data_mof_unit_37106.cif
_audit_creation_date              2013-03-05T15:50:08-0500
_audit_creation_method            fapswitch 2.2
_symmetry_space_group_name_H-M    P1
_symmetry_Int_Tables_number       1
_space_group_crystal_system       triclinic
_cell_length_a                    18.266132
_cell_length_b                    25.775584
_cell_length_c                    18.270128
_cell_angle_alpha                 90.45838
_cell_angle_beta                  89.996908
_cell_angle_gamma                 89.999883
_cell_volume                      8601.67038942

loop_
_atom_site_label
_atom_site_type_symbol
_atom_site_description
_atom_site_fract_x
_atom_site_fract_y
_atom_site_fract_z
_atom_type_partial_charge
Zn1   Zn    Zn3+2 0.249990 0.293780 0.913250 0.995809
Zn2   Zn    Zn3+2 0.249990 0.706220 0.086750 0.994087
Zn3   Zn    Zn3+2 0.249990 0.706220 0.913250 1.026316
Zn4   Zn    Zn3+2 0.249990 0.293780 0.086750 1.025824
Zn5   Zn    Zn3+2 0.749990 0.793780 0.413250 0.992488
Zn6   Zn    Zn3+2 0.749990 0.206220 0.586750 0.994076
Zn7   Zn    Zn3+2 0.749990 0.206220 0.413250 1.025417
Zn8   Zn    Zn3+2 0.749990 0.793780 0.586750 1.025928
Zn9   Zn    Zn3+2 0.336760 0.206240 0.000000 0.956209
Zn10  Zn    Zn3+2 0.336760 0.793760 0.000000 0.956613
Zn11  Zn    Zn3+2 0.836760 0.706240 0.500000 0.955609
Zn12  Zn    Zn3+2 0.836760 0.293760 0.500000 0.955259
Zn13  Zn    Zn3+2 0.163250 0.206230 0.000000 1.053953
Zn14  Zn    Zn3+2 0.163250 0.793770 0.000000 1.054568
Zn15  Zn    Zn3+2 0.663250 0.706230 0.500000 1.055776
Zn16  Zn    Zn3+2 0.663250 0.293770 0.500000 1.055444
O1    O     O_3   0.249990 0.250010 0.000000 -0.490550
O2    O     O_3   0.249990 0.749990 0.000000 -0.490791
O3    O     O_3   0.749990 0.750010 0.500000 -0.491142
O4    O     O_3   0.749990 0.249990 0.500000 -0.490843
O5    O     O_R   0.335430 0.280650 0.146160 -0.652851
O6    O     O_R   0.335430 0.719350 0.853840 -0.653654
O7    O     O_R   0.335430 0.719350 0.146160 -0.648360
O8    O     O_R   0.335430 0.280650 0.853840 -0.647586
O9    O     O_R   0.835430 0.780650 0.646160 -0.653320
O10   O     O_R   0.835430 0.219350 0.353840 -0.652620
O11   O     O_R   0.835430 0.219350 0.646160 -0.644876
O12   O     O_R   0.835430 0.780650 0.353840 -0.645285
O13   O     O_R   0.164550 0.280640 0.853840 -0.618427
O14   O     O_R   0.164550 0.719360 0.146160 -0.619083
O15   O     O_R   0.164550 0.719360 0.853840 -0.602900
O16   O     O_R   0.164550 0.280640 0.146160 -0.603660
O17   O     O_R   0.664550 0.780640 0.353840 -0.622478
O18   O     O_R   0.664550 0.219360 0.646160 -0.622092
O19   O     O_R   0.664550 0.219360 0.353840 -0.604744
O20   O     O_R   0.664550 0.780640 0.646160 -0.603877
O21   O     O_R   0.396160 0.219380 0.914560 -0.646833
O22   O     O_R   0.396160 0.780620 0.085440 -0.646628
O23   O     O_R   0.396160 0.780620 0.914560 -0.649707
O24   O     O_R   0.396160 0.219380 0.085440 -0.651027
O25   O     O_R   0.896160 0.719380 0.414560 -0.646821
O26   O     O_R   0.896160 0.280620 0.585440 -0.647062
O27   O     O_R   0.896160 0.280620 0.414560 -0.650835
O28   O     O_R   0.896160 0.719380 0.585440 -0.649576
O29   O     O_R   0.103840 0.219370 0.085450 -0.611070
O30   O     O_R   0.103840 0.780630 0.914550 -0.609704
O31   O     O_R   0.103840 0.780630 0.085450 -0.631414
O32   O     O_R   0.103840 0.219370 0.914550 -0.632215
O33   O     O_R   0.603840 0.719370 0.585450 -0.606048
O34   O     O_R   0.603840 0.280630 0.414550 -0.607411
O35   O     O_R   0.603840 0.280630 0.585450 -0.628232
O36   O     O_R   0.603840 0.719370 0.414550 -0.627693
O37   O     O_R   0.310730 0.133160 0.000000 -0.662235
O38   O     O_R   0.310730 0.866840 0.000000 -0.661673
O39   O     O_R   0.810730 0.633160 0.500000 -0.662783
O40   O     O_R   0.810730 0.366840 0.500000 -0.663359
O41   O     O_R   0.249970 0.366860 0.060720 -0.622254
O42   O     O_R   0.249970 0.633140 0.939280 -0.619258
O43   O     O_R   0.249970 0.633140 0.060720 -0.636396
O44   O     O_R   0.249970 0.366860 0.939280 -0.634893
O45   O     O_R   0.749970 0.866860 0.560720 -0.618833
O46   O     O_R   0.749970 0.133140 0.439280 -0.621899
O47   O     O_R   0.749970 0.133140 0.560720 -0.638645
O48   O     O_R   0.749970 0.866860 0.439280 -0.640102
O49   O     O_R   0.189290 0.133150 0.000000 -0.624476
O50   O     O_R   0.189290 0.866850 0.000000 -0.623765
O51   O     O_R   0.689290 0.633150 0.500000 -0.623408
O52   O     O_R   0.689290 0.366850 0.500000 -0.624052
C1    C     C_R   0.393328 0.253055 0.137717 0.798659
C2    C     C_R   0.393325 0.746751 0.862411 0.798391
C3    C     C_R   0.389726 0.750149 0.139928 0.774142
C4    C     C_R   0.389754 0.249876 0.860107 0.774108
C5    C     C_R   0.893334 0.753192 0.637613 0.799422
C6    C     C_R   0.893331 0.247002 0.362258 0.799720
C7    C     C_R   0.889880 0.250039 0.639740 0.774577
C8    C     C_R   0.889880 0.749960 0.360262 0.774623
C9    C     C_R   0.109594 0.250477 0.860836 0.891579
C10   C     C_R   0.109594 0.749522 0.139163 0.891834
C11   C     C_R   0.105610 0.745386 0.864659 0.922556
C12   C     C_R   0.105472 0.254717 0.135067 0.925506
C13   C     C_R   0.609837 0.750376 0.360586 0.888859
C14   C     C_R   0.609784 0.249584 0.639357 0.889239
C15   C     C_R   0.605514 0.245302 0.364856 0.930173
C16   C     C_R   0.605659 0.754592 0.635428 0.926842
C17   C     C_R   0.250320 0.108996 0.007960 0.855358
C18   C     C_R   0.250261 0.890988 0.991939 0.854053
C19   C     C_R   0.750254 0.609012 0.508063 0.853004
C20   C     C_R   0.750314 0.391003 0.492038 0.854307
C21   C     C_R   0.250187 0.391356 0.000324 0.808314
C22   C     C_R   0.250092 0.608595 0.999912 0.805486
C23   C     C_R   0.750171 0.891403 0.500088 0.797112
C24   C     C_R   0.750258 0.108643 0.499677 0.800133
C25   C     C_3   0.253447 0.470690 0.080350 -0.375422
C26   C     C_3   0.180583 0.529513 0.962273 -0.348801
C27   C     C_3   0.252379 0.530219 0.080032 -0.379491
C28   C     C_3   0.179835 0.469620 0.963932 -0.374645
C29   C     C_3   0.680636 0.970477 0.537568 -0.347575
C30   C     C_3   0.753722 0.029309 0.419663 -0.374181
C31   C     C_3   0.679937 0.030366 0.535990 -0.375752
C32   C     C_3   0.752732 0.969780 0.419977 -0.379751
H1    H     H_    0.304065 0.457016 0.108146 0.169038
H2    H     H_    0.179188 0.542330 0.904379 0.230332
H3    H     H_    0.301879 0.545072 0.108942 0.178934
H4    H     H_    0.175409 0.454231 0.907004 0.195940
H5    H     H_    0.679027 0.957601 0.595432 0.230721
H6    H     H_    0.804357 0.043018 0.391925 0.168864
H7    H     H_    0.675485 0.045710 0.592940 0.194634
H8    H     H_    0.802338 0.954953 0.391215 0.179270
H9    H     H_    0.205872 0.456453 0.112430 0.231710
H10   H     H_    0.130747 0.544964 0.989912 0.208368
H11   H     H_    0.203529 0.544230 0.110843 0.200218
H12   H     H_    0.130788 0.456026 0.994450 0.214912
H13   H     H_    0.630877 0.955071 0.509752 0.205305
H14   H     H_    0.706166 0.043516 0.387532 0.231937
H15   H     H_    0.630925 0.043995 0.505455 0.212438
H16   H     H_    0.703995 0.955745 0.389016 0.199323
H17   H     H_    0.369212 0.455046 0.984101 0.155155
H18   H     H_    0.318971 0.543891 0.901734 0.182949
H19   H     H_    0.369320 0.543997 0.986049 0.158123
H20   H     H_    0.316920 0.455370 0.900985 0.188249
H21   H     H_    0.818865 0.956131 0.598434 0.183313
H22   H     H_    0.869338 0.044938 0.516040 0.153102
H23   H     H_    0.816960 0.044663 0.599101 0.188685
H24   H     H_    0.869437 0.955971 0.514245 0.156076
C33   C     C_3   0.317958 0.469694 0.958607 -0.399052
C34   C     C_3   0.318468 0.529669 0.959097 -0.406346
C35   C     C_3   0.818523 0.970328 0.541058 -0.405385
C36   C     C_3   0.818048 0.030311 0.541493 -0.398797
C37   C     C_3   0.250383 0.449038 0.000865 0.157735
C38   C     C_3   0.250368 0.550820 0.000244 0.148924
C39   C     C_3   0.750510 0.949177 0.499759 0.150186
C40   C     C_3   0.750523 0.050959 0.499144 0.159578
H25   H     H_    0.169874 0.120501 0.677138 0.136064
H26   H     H_    0.171251 0.878189 0.324219 0.136622
H27   H     H_    0.889231 0.847082 0.946707 0.134117
H28   H     H_    0.891137 0.149615 0.055458 0.133591
H29   H     H_    0.707488 0.671239 0.139083 0.137369
H30   H     H_    0.705573 0.332660 0.858781 0.136726
H31   H     H_    0.390451 0.349128 0.445473 0.133870
H32   H     H_    0.388554 0.654263 0.552377 0.134422
C41   C     C_R   0.982295 0.322180 0.872662 0.354668
C42   C     C_R   0.981595 0.678511 0.126641 0.354706
C43   C     C_R   0.088755 0.658883 0.751727 0.441311
C44   C     C_R   0.085810 0.343153 0.244208 0.438178
C45   C     C_R   0.466120 0.800670 0.389089 0.354683
C46   C     C_R   0.466872 0.197767 0.611772 0.354096
C47   C     C_R   0.586914 0.157503 0.254369 0.439748
C48   C     C_R   0.590014 0.840335 0.749841 0.442707
C49   C     C_R   0.921872 0.355422 0.874100 -0.134792
C50   C     C_R   0.920809 0.645609 0.124851 -0.135038
C51   C     C_R   0.108366 0.635949 0.685062 -0.190538
C52   C     C_R   0.104382 0.367716 0.310004 -0.188397
C53   C     C_R   0.395103 0.818614 0.402007 -0.145668
C54   C     C_R   0.396360 0.178555 0.599585 -0.143647
C55   C     C_R   0.605902 0.133586 0.188211 -0.189407
C56   C     C_R   0.610053 0.862520 0.816886 -0.191506
C57   C     C_R   0.341286 0.813612 0.349152 -0.215706
C58   C     C_R   0.342660 0.183182 0.652631 -0.215075
C59   C     C_R   0.584102 0.155310 0.122333 -0.232463
C60   C     C_R   0.587630 0.839835 0.881902 -0.230815
C61   C     C_R   0.870488 0.354461 0.818469 -0.225460
C62   C     C_R   0.869412 0.646571 0.180475 -0.226374
C63   C     C_R   0.086214 0.658231 0.619684 -0.233535
C64   C     C_R   0.082768 0.346374 0.376188 -0.234862
C65   C     C_R   0.357833 0.791502 0.281750 -0.145579
C66   C     C_R   0.358804 0.206285 0.719481 -0.145080
C67   C     C_R   0.536715 0.197684 0.122516 -0.120157
C68   C     C_R   0.538666 0.798393 0.880058 -0.119498
C69   C     C_R   0.878299 0.320038 0.760346 -0.147406
C70   C     C_R   0.877558 0.680668 0.238929 -0.147667
C71   C     C_R   0.037913 0.700077 0.620853 -0.118089
C72   C     C_R   0.035962 0.303677 0.376620 -0.119148
C73   C     C_R   0.428674 0.771826 0.266485 0.035858
C74   C     C_R   0.429136 0.227115 0.734071 0.036108
C75   C     C_R   0.511846 0.219855 0.189185 0.037200
C76   C     C_R   0.513208 0.777989 0.812535 0.035809
C77   C     C_R   0.938633 0.285659 0.756215 0.038623
C78   C     C_R   0.938253 0.714704 0.243412 0.038647
C79   C     C_R   0.012728 0.721239 0.688033 0.036620
C80   C     C_R   0.011383 0.280834 0.310283 0.038162
C81   C     C_R   0.992232 0.286321 0.812619 -0.018194
C82   C     C_R   0.991867 0.714036 0.187019 -0.017850
C83   C     C_R   0.048424 0.706010 0.752734 -0.012207
C84   C     C_R   0.046696 0.295487 0.245032 -0.012628
C85   C     C_R   0.483640 0.774585 0.321359 -0.012406
C86   C     C_R   0.484024 0.224547 0.679080 -0.013874
C87   C     C_R   0.547283 0.204963 0.254246 -0.013741
C88   C     C_R   0.549070 0.793472 0.748052 -0.013379
C89   C     C_R   0.445455 0.750681 0.196701 -0.124693
C90   C     C_R   0.445463 0.249311 0.803317 -0.123714
C91   C     C_R   0.453158 0.256083 0.192909 -0.188893
C92   C     C_R   0.453237 0.743084 0.807484 -0.188771
C93   C     C_R   0.945610 0.250752 0.696493 -0.121314
C94   C     C_R   0.945617 0.749238 0.303515 -0.121511
C95   C     C_R   0.953250 0.756660 0.692581 -0.188328
C96   C     C_R   0.953166 0.244151 0.307035 -0.188360
C97   C     C_R   0.515336 0.730371 0.180688 0.083012
C98   C     C_R   0.514828 0.270704 0.818758 0.082286
C99   C     C_R   0.443031 0.286022 0.258033 0.073099
C100  C     C_R   0.442318 0.714194 0.741536 0.073710
C101  C     C_R   0.005061 0.216160 0.691023 0.079660
C102  C     C_R   0.005481 0.783435 0.309392 0.079708
C103  C     C_R   0.942648 0.785978 0.758200 0.073491
C104  C     C_R   0.943357 0.213818 0.242239 0.072957
C105  C     C_R   0.058973 0.216413 0.746130 0.058986
C106  C     C_R   0.059366 0.783213 0.254256 0.059036
C107  C     C_R   0.981260 0.771895 0.821832 0.083269
C108  C     C_R   0.981458 0.227586 0.178168 0.083748
C109  C     C_R   0.569353 0.730369 0.235680 0.056931
C110  C     C_R   0.568815 0.270672 0.763732 0.057068
C111  C     C_R   0.481325 0.272134 0.321942 0.084245
C112  C     C_R   0.481136 0.728402 0.678078 0.083959
C113  C     C_R   0.052444 0.251305 0.806111 -0.156268
C114  C     C_R   0.052449 0.748695 0.193892 -0.156398
C115  C     C_R   0.041555 0.737810 0.815732 -0.174733
C116  C     C_R   0.040941 0.262464 0.183297 -0.175983
C117  C     C_R   0.553127 0.751960 0.305446 -0.156776
C118  C     C_R   0.553052 0.248082 0.694479 -0.156383
C119  C     C_R   0.541119 0.237552 0.316442 -0.172746
C120  C     C_R   0.541760 0.762164 0.684563 -0.171742
C121  C     C_R   0.532071 0.708799 0.110992 -0.164794
C122  C     C_R   0.531072 0.293315 0.887923 -0.164251
C123  C     C_R   0.396919 0.330282 0.261722 -0.103514
C124  C     C_R   0.394932 0.670667 0.736565 -0.102867
C125  C     C_R   0.011938 0.181104 0.631232 -0.159991
C126  C     C_R   0.012773 0.818089 0.369597 -0.160726
C127  C     C_R   0.895733 0.829781 0.762676 -0.102931
C128  C     C_R   0.897702 0.169308 0.239034 -0.103511
C129  C     C_R   0.600924 0.688030 0.096287 -0.141980
C130  C     C_R   0.599413 0.315140 0.902055 -0.140467
C131  C     C_R   0.378613 0.353003 0.328762 -0.126050
C132  C     C_R   0.376190 0.649084 0.668914 -0.127019
C133  C     C_R   0.070938 0.147016 0.626521 -0.134787
C134  C     C_R   0.072126 0.851842 0.374655 -0.135667
C135  C     C_R   0.877125 0.851788 0.830098 -0.126960
C136  C     C_R   0.879530 0.146191 0.172227 -0.125927
C137  C     C_R   0.124160 0.147117 0.680787 -0.131212
C138  C     C_R   0.125283 0.851810 0.320321 -0.132432
C139  C     C_R   0.905674 0.831348 0.894112 -0.107904
C140  C     C_R   0.907293 0.166231 0.107607 -0.107594
C141  C     C_R   0.654140 0.687665 0.150493 -0.122703
C142  C     C_R   0.652616 0.315442 0.847818 -0.121831
C143  C     C_R   0.406684 0.332824 0.393154 -0.110158
C144  C     C_R   0.405066 0.669665 0.605141 -0.110628
C145  C     C_R   0.118697 0.181381 0.739899 -0.154378
C146  C     C_R   0.119435 0.817916 0.260825 -0.154735
C147  C     C_R   0.957758 0.791976 0.890266 -0.048417
C148  C     C_R   0.958310 0.206345 0.110308 -0.047557
C149  C     C_R   0.638798 0.708219 0.219547 -0.150409
C150  C     C_R   0.637767 0.293787 0.779302 -0.150150
C151  C     C_R   0.458077 0.292972 0.390019 -0.048580
C152  C     C_R   0.457542 0.708745 0.609433 -0.049963
H33   H     H_    0.914437 0.382475 0.919175 0.181668
H34   H     H_    0.913120 0.618806 0.079526 0.181340
H35   H     H_    0.140073 0.600457 0.683923 0.162917
H36   H     H_    0.135137 0.403628 0.309837 0.162562
H37   H     H_    0.381672 0.837755 0.453277 0.180325
H38   H     H_    0.383225 0.158812 0.548682 0.181020
H39   H     H_    0.637066 0.097850 0.187856 0.162770
H40   H     H_    0.642245 0.897783 0.818608 0.163106
H41   H     H_    0.286719 0.828142 0.359862 0.156168
H42   H     H_    0.288491 0.167704 0.642467 0.155558
H43   H     H_    0.601214 0.137902 0.070997 0.158022
H44   H     H_    0.605280 0.855944 0.933879 0.159200
H45   H     H_    0.824086 0.380564 0.820455 0.155680
H46   H     H_    0.822752 0.620710 0.178236 0.155937
H47   H     H_    0.103609 0.641555 0.567970 0.157906
H48   H     H_    0.099628 0.364275 0.427272 0.156898
H49   H     H_    0.314198 0.790332 0.241770 0.136514
H50   H     H_    0.315279 0.207315 0.759606 0.134771
H51   H     H_    0.521409 0.213476 0.070072 0.168233
H52   H     H_    0.522260 0.781981 0.931810 0.165280
H53   H     H_    0.836299 0.320816 0.718592 0.125333
H54   H     H_    0.835548 0.679893 0.280678 0.125216
H55   H     H_    0.021916 0.716210 0.568817 0.168015
H56   H     H_    0.020994 0.288161 0.429311 0.170411
H57   H     H_    0.492232 0.707395 0.067216 0.118227
H58   H     H_    0.491218 0.294700 0.931699 0.117461
H59   H     H_    0.376578 0.349178 0.213289 0.156446
H60   H     H_    0.373964 0.651372 0.784407 0.158984
H61   H     H_    0.971907 0.179605 0.587594 0.109766
H62   H     H_    0.972789 0.819535 0.413286 0.109591
H63   H     H_    0.875000 0.848914 0.714600 0.158640
H64   H     H_    0.877582 0.150570 0.287689 0.156060
H65   H     H_    0.075328 0.120411 0.580582 0.136043
H66   H     H_    0.076831 0.878147 0.420904 0.136127
H67   H     H_    0.839870 0.884420 0.832639 0.133889
H68   H     H_    0.843190 0.113021 0.170624 0.132950
H69   H     H_    0.612834 0.671841 0.042740 0.139348
H70   H     H_    0.610947 0.332162 0.955186 0.139298
H71   H     H_    0.341953 0.385988 0.330716 0.132796
H72   H     H_    0.338603 0.616658 0.666015 0.133679
H73   H     H_    0.161736 0.179903 0.780527 0.104473
H74   H     H_    0.162442 0.819427 0.220161 0.104448
H75   H     H_    0.978348 0.776761 0.941297 0.168783
H76   H     H_    0.978336 0.221199 0.058838 0.167862
H77   H     H_    0.682089 0.706379 0.259832 0.113846
H78   H     H_    0.681025 0.295551 0.738962 0.112626
H79   H     H_    0.478336 0.278022 0.441327 0.174590
H80   H     H_    0.478387 0.724038 0.558571 0.175714
H81   H     H_    0.000556 0.035189 0.046883 0.193877
H82   H     H_    0.999805 0.964918 0.956898 0.194231
H83   H     H_    0.499740 0.535126 0.543093 0.194351
H84   H     H_    0.500477 0.464773 0.453257 0.194000
C153  C     C_R   0.386941 0.047386 0.035406 -0.098925
C154  C     C_R   0.386380 0.952477 0.962554 -0.098738
C155  C     C_R   0.886338 0.547512 0.537460 -0.099538
C156  C     C_R   0.886897 0.452625 0.464555 -0.099718
C157  C     C_R   0.452945 0.023123 0.018069 -0.147040
C158  C     C_R   0.452649 0.976678 0.978995 -0.145213
C159  C     C_R   0.952607 0.523315 0.520999 -0.145944
C160  C     C_R   0.952902 0.476882 0.481896 -0.147635
C161  C     C_R   0.318937 0.974532 0.985316 0.061927
C162  C     C_R   0.319153 0.025416 0.013515 0.062444
C163  C     C_R   0.819109 0.474588 0.486470 0.062088
C164  C     C_R   0.818896 0.525465 0.514691 0.061629
C165  C     C_R   0.251489 0.947620 0.979730 -0.116234
C166  C     C_R   0.251777 0.052354 0.020054 -0.116057
C167  C     C_R   0.751738 0.447647 0.479948 -0.116200
C168  C     C_R   0.751452 0.552381 0.520277 -0.116375
C169  C     C_R   0.184894 0.975609 0.982916 -0.088326
C170  C     C_R   0.185170 0.024390 0.017855 -0.088732
C171  C     C_R   0.685113 0.475603 0.482178 -0.088884
C172  C     C_R   0.684841 0.524401 0.517090 -0.088510
C173  C     C_R   0.117703 0.956525 0.953797 0.375993
C174  C     C_R   0.118494 0.043512 0.048066 0.375882
C175  C     C_R   0.618411 0.456452 0.452038 0.376203
C176  C     C_R   0.617633 0.543516 0.546169 0.376314
C177  C     C_R   0.051847 0.979367 0.976780 -0.283295
C178  C     C_R   0.052258 0.020709 0.026165 -0.283366
C179  C     C_R   0.552185 0.479272 0.473929 -0.284613
C180  C     C_R   0.551781 0.520658 0.523231 -0.284525
H85   H     H_    0.389688 0.082607 0.067828 0.173445
H86   H     H_    0.388594 0.917190 0.930226 0.172790
H87   H     H_    0.888551 0.582792 0.569803 0.172619
H88   H     H_    0.889641 0.417410 0.432117 0.173260
H89   H     H_    0.504343 0.040877 0.033887 0.141022
H90   H     H_    0.503803 0.958854 0.962541 0.142415
H91   H     H_    0.003761 0.541133 0.537460 0.141593
H92   H     H_    0.004299 0.459133 0.466059 0.140216
N1    N     N_R   0.116090 0.918457 0.895546 0.220141
O53   O     O_R   0.171317 0.913659 0.850976 -0.420271
O54   O     O_R   0.056057 0.893335 0.880777 -0.402455
N2    N     N_R   0.117903 0.081590 0.106328 0.219489
O55   O     O_R   0.173882 0.086361 0.149949 -0.420199
O56   O     O_R   0.058098 0.106630 0.122253 -0.403234
N3    N     N_R   0.617760 0.418307 0.393865 0.219379
O57   O     O_R   0.673648 0.413541 0.350120 -0.421129
O58   O     O_R   0.557989 0.393141 0.378199 -0.403320
N4    N     N_R   0.615981 0.581655 0.604327 0.220051
O59   O     O_R   0.671128 0.586451 0.648990 -0.421107
O60   O     O_R   0.555990 0.606902 0.618868 -0.402435
Cl1   Cl    Cl    0.040364 0.329272 0.949567 -0.654561
Cl2   Cl    Cl    0.039732 0.671382 0.049787 -0.658392
Cl3   Cl    Cl    0.101106 0.621503 0.831179 -0.634473
Cl4   Cl    Cl    0.098738 0.378765 0.163079 -0.628759
Cl5   Cl    Cl    0.528836 0.817428 0.459146 -0.659059
Cl6   Cl    Cl    0.529448 0.182001 0.541128 -0.655240
Cl7   Cl    Cl    0.599873 0.121220 0.334893 -0.626362
Cl8   Cl    Cl    0.602532 0.878468 0.671127 -0.631910

loop_
_geom_bond_atom_site_label_1
_geom_bond_atom_site_label_2
_geom_bond_distance
_ccdc_geom_bond_type
C162  C166  1.417603 A    
C57   H41   1.082042 S    
C44   C84   1.421433 A    
C152  H80   1.081518 S    
C176  C180  1.402057 A    
C53   H37   1.083335 S    
C1    C91   1.488648 S    
C103  C127  1.419269 A    
C2    C92   1.487270 S    
C12   C116  1.484211 S    
C79   C95   1.421109 A    
C101  C125  1.417665 A    
C58   C66   1.386233 A    
O26   C7    1.277180 A    
C154  C158  1.393430 A    
C77   C93   1.414439 A    
C70   C78   1.415744 A    
H27   C139  1.082482 S    
C54   C58   1.383379 A    
C105  C145  1.420145 A    
C41   Cl1   1.768831 S    
O30   C11   1.282150 A    
C30   H14   1.112107 S    
C23   C39   1.489214 S    
C93   C101  1.408128 A    
C157  H89   1.082723 S    
C4    C90   1.453234 S    
C133  C137  1.388570 A    
Zn12  O26   1.933211 S    
C104  C108  1.409652 A    
C19   C168  1.478592 S    
C150  H78   1.081707 S    
C20   C167  1.478602 S    
C173  C177  1.402138 A    
C96   C104  1.424813 A    
C47   C55   1.396197 A    
C80   C96   1.423881 A    
H29   C141  1.082053 S    
C106  C114  1.417087 A    
C43   C51   1.396307 A    
H26   C138  1.082429 S    
H84   C179  1.082684 S    
C10   C114  1.445705 S    
O11   C7    1.276774 A    
C154  H86   1.081286 S    
O34   C15   1.281096 A    
C76   C88   1.408456 A    
C83   C115  1.413236 A    
C167  C171  1.414738 A    
C66   C74   1.416887 A    
C171  C172  1.405751 A    
C141  C149  1.392900 A    
C29   C39   1.549655 S    
C102  C126  1.417658 A    
Zn1   O44   1.939094 S    
C25   H1    1.113519 S    
C52   H36   1.082803 S    
H20   C33   1.113002 S    
C18   C165  1.478607 S    
C112  C120  1.412773 A    
C146  H74   1.082118 S    
C153  C162  1.417844 A    
Zn5   O48   1.939094 S    
H32   C144  1.082491 S    
Zn6   O47   1.939094 S    
C126  H62   1.082306 S    
Zn7   O46   1.946471 S    
O16   C12   1.284490 A    
C64   H48   1.082566 S    
C46   C54   1.397120 A    
Zn16  O4    1.945182 S    
Zn12  O4    1.945486 S    
Zn1   O13   1.929462 S    
C137  C145  1.393218 A    
C26   C28   1.544390 S    
Zn4   O16   1.932413 S    
C65   H49   1.081411 S    
H24   C35   1.113036 S    
C42   C82   1.440276 A    
C28   H4    1.113120 S    
Zn6   O4    1.952805 S    
C89   C97   1.409444 A    
C107  C147  1.415976 A    
C132  H72   1.082623 S    
C48   C88   1.420855 A    
C30   H6    1.113523 S    
Zn10  O22   1.933211 S    
C109  C117  1.418056 A    
C129  H69   1.082575 S    
O25   C8    1.277140 A    
Zn13  O29   1.928987 S    
Zn10  O2    1.945486 S    
C59   C67   1.393611 A    
O29   C12   1.280426 A    
C41   C81   1.440272 A    
Zn15  O33   1.928987 S    
N4    O59   1.301663 A    
C35   C39   1.550315 S    
C71   H55   1.080963 S    
H19   C34   1.113010 S    
C33   C37   1.552291 S    
C95   C103  1.425241 A    
C26   H2    1.110946 S    
C169  C170  1.405554 A    
C45   C85   1.439581 A    
O37   C17   1.275977 A    
O48   C23   1.274057 A    
C156  H88   1.081204 S    
C80   C84   1.409629 A    
C28   C37   1.550209 S    
C175  C179  1.401954 A    
C131  C143  1.388288 A    
Zn16  O35   1.933368 S    
C130  H70   1.082750 S    
C174  N2    1.442129 S    
C21   C37   1.486753 S    
C86   C118  1.426272 A    
C73   C85   1.420278 A    
C26   C38   1.549772 S    
Zn7   O10   1.932369 S    
O33   C16   1.282903 A    
C24   C40   1.486811 S    
H83   C180  1.082671 S    
C97   C121  1.418678 A    
C134  C138  1.388557 A    
O40   C20   1.276091 A    
C123  H59   1.079458 S    
C49   H33   1.083353 S    
C124  H60   1.079346 S    
C15   C119  1.484291 S    
C16   C120  1.484386 S    
C61   H45   1.082593 S    
C58   H42   1.082370 S    
Zn5   O17   1.929462 S    
C27   C38   1.555851 S    
H31   C143  1.082486 S    
C171  C175  1.423758 A    
C54   H38   1.083461 S    
C176  N4    1.442083 S    
C92   C100  1.425372 A    
C13   C117  1.445805 S    
C25   C27   1.534576 S    
C53   C57   1.383329 A    
C71   C79   1.415944 A    
H25   C137  1.082423 S    
C69   C77   1.415758 A    
C27   H3    1.113499 S    
N1    O54   1.300700 A    
C32   H8    1.113525 S    
Zn8   O3    1.938099 S    
C143  C151  1.392377 A    
C55   C59   1.389821 A    
C56   C60   1.389858 A    
C46   Cl6   1.768872 S    
C57   C65   1.386124 A    
O38   C18   1.276949 A    
O5    C1    1.283118 A    
O32   C9    1.276564 A    
C108  C148  1.415941 A    
C130  C142  1.387956 A    
C156  C163  1.417854 A    
C55   H39   1.082802 S    
Zn15  O51   1.942804 S    
Zn11  O28   1.928831 S    
Zn12  O40   1.942762 S    
C8    C94   1.453048 S    
Zn2   O43   1.939094 S    
C42   Cl2   1.768845 S    
C64   C72   1.393681 A    
C159  H91   1.082725 S    
O8    C4    1.276090 A    
C67   C75   1.416116 A    
C68   C76   1.415792 A    
C44   Cl4   1.765548 S    
C127  H63   1.079415 S    
O50   C18   1.284752 A    
C161  C165  1.417163 A    
C111  C119  1.412835 A    
Zn1   O1    1.952807 S    
C126  C134  1.392687 A    
Zn13  O1    1.945186 S    
Zn2   O14   1.929366 S    
C29   H5    1.110984 S    
C44   C52   1.396013 A    
C170  C174  1.423551 A    
C77   C81   1.421474 A    
O9    C5    1.281492 A    
O39   C19   1.277036 A    
O36   C13   1.278815 A    
C98   C110  1.408194 A    
C75   C87   1.409488 A    
O13   C9    1.276736 A    
N2    O55   1.301667 A    
C122  C130  1.392553 A    
Zn1   O8    1.929324 S    
C59   H43   1.082561 S    
C30   C40   1.552576 S    
Zn2   O7    1.929419 S    
C60   H44   1.082537 S    
C101  C105  1.408346 A    
Zn3   O6    1.932369 S    
C81   C113  1.427123 A    
O18   C14   1.274623 A    
O31   C10   1.276550 A    
H17   C33   1.113026 S    
O6    C2    1.280606 A    
C156  C160  1.393486 A    
C25   H9    1.112096 S    
C32   H16   1.113626 S    
C9    C113  1.445785 S    
Zn14  O30   1.929084 S    
C60   C68   1.393384 A    
Zn15  O3    1.945186 S    
C78   C94   1.414419 A    
Zn11  O3    1.945482 S    
C99   C123  1.419220 A    
O41   C21   1.275692 A    
C31   C40   1.550147 S    
C168  C172  1.415378 A    
C106  C146  1.420133 A    
Zn16  O34   1.929084 S    
H21   C35   1.113086 S    
C31   H15   1.113235 S    
C84   C116  1.411506 A    
C34   C38   1.550180 S    
O15   C11   1.282971 A    
C94   C102  1.408097 A    
C139  C147  1.392418 A    
Zn8   O20   1.932413 S    
C133  H65   1.082546 S    
C174  C178  1.402030 A    
C125  H61   1.082309 S    
C112  C152  1.416078 A    
C63   C71   1.393506 A    
C131  H71   1.082612 S    
C72   C80   1.416273 A    
C105  C113  1.417103 A    
C163  C164  1.405250 A    
Zn8   O9    1.932462 S    
C25   C37   1.552588 S    
C72   H56   1.080536 S    
C123  C131  1.394084 A    
C88   C120  1.414070 A    
C50   C62   1.383567 A    
C166  C170  1.414544 A    
C142  C150  1.393187 A    
O7    C3    1.276027 A    
C69   H53   1.082233 S    
N3    O57   1.301667 A    
O19   C15   1.283867 A    
C87   C119  1.412176 A    
C47   C87   1.421468 A    
O44   C21   1.277216 A    
C47   Cl7   1.765527 S    
C62   H46   1.082592 S    
Zn9   O24   1.928831 S    
C151  H79   1.081646 S    
Zn6   O18   1.929366 S    
Zn10  O23   1.928737 S    
C43   C83   1.420660 A    
C179  C180  1.390670 A    
C129  C141  1.387804 A    
C62   C70   1.385681 A    
C172  C176  1.424006 A    
C138  C146  1.393213 A    
C107  C115  1.412706 A    
Zn15  O36   1.933464 S    
C3    C89   1.453338 S    
N4    O60   1.300789 A    
O42   C22   1.280075 A    
C74   C90   1.416064 A    
Zn4   O1    1.938099 S    
C30   C32   1.534576 S    
C5    C95   1.487615 S    
C33   C34   1.545891 S    
C49   C61   1.383589 A    
C35   C36   1.546088 S    
O12   C8    1.276810 A    
Zn11  O39   1.942764 S    
C90   C98   1.409461 A    
C63   H47   1.082539 S    
C132  C144  1.388162 A    
C154  C161  1.417691 A    
C135  C139  1.388261 A    
C46   C86   1.439897 A    
C67   H51   1.080815 S    
Zn5   O3    1.952807 S    
C31   H7    1.113114 S    
C163  C167  1.417576 A    
C164  C168  1.417129 A    
C125  C133  1.392691 A    
C42   C50   1.397372 A    
C124  C132  1.394051 A    
C26   H10   1.113096 S    
C161  C162  1.405308 A    
C153  H85   1.081197 S    
C155  C159  1.393425 A    
H22   C36   1.113048 S    
O28   C5    1.287442 A    
C22   C38   1.489256 S    
Zn3   O42   1.946471 S    
C165  C169  1.415220 A    
Zn7   O4    1.938100 S    
O21   C4    1.278222 A    
C121  C129  1.392194 A    
C140  C148  1.392528 A    
C48   C56   1.396514 A    
H82   C177  1.082669 S    
C109  C149  1.420974 A    
C149  H77   1.081605 S    
C159  C160  1.388933 A    
C48   Cl8   1.763282 S    
Zn2   O2    1.952805 S    
C177  C178  1.390794 A    
Zn14  O2    1.945182 S    
C121  H57   1.081727 S    
C32   C39   1.555861 S    
C41   C49   1.397374 A    
Zn13  O49   1.942804 S    
C157  C158  1.388935 A    
C28   H12   1.113251 S    
C100  C112  1.409882 A    
C85   C117  1.425776 A    
C98   C122  1.418727 A    
C91   C99   1.425038 A    
Zn12  O27   1.928737 S    
C68   H52   1.081255 S    
C75   C91   1.422949 A    
C153  C157  1.393485 A    
C76   C92   1.420076 A    
C65   C73   1.416718 A    
C147  H75   1.081843 S    
C148  H76   1.081840 S    
Zn3   O2    1.938100 S    
C17   C166  1.478610 S    
C145  H73   1.082122 S    
O46   C24   1.275736 A    
O47   C24   1.277198 A    
C135  H67   1.082620 S    
Zn16  O52   1.942806 S    
C104  C128  1.419167 A    
C50   H34   1.083351 S    
H30   C142  1.082310 S    
Zn8   O45   1.946471 S    
C45   C53   1.396627 A    
C128  H64   1.079526 S    
O27   C6    1.285842 A    
C11   C115  1.484420 S    
C108  C116  1.412862 A    
C66   H50   1.081587 S    
C36   C40   1.552391 S    
C29   C31   1.544226 S    
C160  H92   1.082717 S    
C79   C83   1.408577 A    
C6    C96   1.488821 S    
O24   C1    1.286493 A    
C100  C124  1.419350 A    
C45   Cl5   1.768767 S    
C134  H66   1.082544 S    
C103  C107  1.409824 A    
C136  C140  1.388348 A    
H81   C178  1.082680 S    
O43   C22   1.274064 A    
Zn4   O41   1.946471 S    
Zn3   O15   1.932507 S    
N3    O58   1.300670 A    
Zn5   O12   1.929324 S    
Zn6   O11   1.929419 S    
C14   C118  1.445713 S    
Zn9   O21   1.933119 S    
Zn14  O50   1.942806 S    
C175  N3    1.442128 S    
C78   C82   1.421449 A    
O35   C14   1.278580 A    
C52   C64   1.389683 A    
C136  H68   1.082609 S    
C7    C93   1.453125 S    
Zn9   O1    1.945482 S    
N2    O56   1.300579 A    
C51   C63   1.389734 A    
O52   C20   1.285561 A    
C122  H58   1.081838 S    
C29   H13   1.113063 S    
C70   H54   1.082230 S    
C158  H90   1.082724 S    
C173  N1    1.442073 S    
C51   H35   1.082802 S    
O22   C3    1.278360 A    
C144  C152  1.392251 A    
Zn7   O19   1.932507 S    
Zn13  O32   1.933464 S    
O49   C17   1.285672 A    
Zn14  O31   1.933368 S    
C127  C135  1.394067 A    
O51   C19   1.284657 A    
C110  C118  1.418139 A    
H28   C140  1.082480 S    
C61   C69   1.385694 A    
C27   H11   1.113655 S    
C74   C86   1.420490 A    
Zn4   O5    1.932462 S    
H23   C36   1.113002 S    
O20   C16   1.282294 A    
C169  C173  1.423804 A    
C73   C89   1.416107 A    
O10   C6    1.283942 A    
O23   C2    1.288122 A    
C110  C150  1.421109 A    
Zn11  O25   1.933119 S    
C99   C111  1.409802 A    
Zn10  O38   1.942762 S    
C155  H87   1.081290 S    
C128  C136  1.394076 A    
C97   C109  1.408221 A    
O14   C10   1.276747 A    
Zn9   O37   1.942764 S    
C102  C106  1.408318 A    
C82   C114  1.427106 A    
N1    O53   1.301665 A    
C155  C164  1.417702 A    
H18   C34   1.113095 S    
C111  C151  1.416003 A    
O17   C13   1.274378 A    
O45   C23   1.280061 A    
C43   Cl3   1.763155 S    
C56   H40   1.082803 S    
