data_mof_unit_26202.cif
_audit_creation_date              2012-12-10T17:31:06-0500
_audit_creation_method            fapswitch 2.2
_symmetry_space_group_name_H-M    P1
_symmetry_Int_Tables_number       1
_space_group_crystal_system       triclinic
_cell_length_a                    12.071192
_cell_length_b                    12.797499
_cell_length_c                    15.297452
_cell_angle_alpha                 85.635541
_cell_angle_beta                  115.536252
_cell_angle_gamma                 95.39443
_cell_volume                      2121.20637284

loop_
_atom_site_label
_atom_site_type_symbol
_atom_type_description
_atom_site_fract_x
_atom_site_fract_y
_atom_site_fract_z
_atom_type_partial_charge
C1    C     C_R   0.475297 0.299516 0.497932 0.913158
C2    C     C_R   0.660614 0.968556 0.587358 0.066580
C3    C     C_R   0.345329 0.139008 0.427379 0.040305
C4    C     C_R   0.654388 0.860519 0.574265 0.041682
C5    C     C_R   0.558111 0.130686 0.547938 -0.297895
C6    C     C_R   0.442142 0.869236 0.452810 -0.294226
C7    C     C_R   0.555087 0.024840 0.534609 0.117222
C8    C     C_R   0.444937 0.974893 0.466649 0.115727
C9    C     C_R   0.023888 0.620536 0.433430 -0.336168
C10   C     C_R   0.976121 0.379649 0.566663 -0.318124
C11   C     C_R   0.139521 0.606216 0.437020 -0.007211
C12   C     C_R   0.524763 0.700445 0.502253 0.920863
C13   C     C_R   0.860071 0.393453 0.562360 -0.014676
C14   C     C_R   0.148273 0.443856 0.525296 0.178595
C15   C     C_R   0.852493 0.556994 0.476108 0.173307
C16   C     C_R   0.576909 0.497336 0.681135 0.872882
C17   C     C_R   0.424000 0.507786 0.318808 0.882059
C18   C     C_R   0.031546 0.455465 0.523423 0.068537
C19   C     C_R   0.968739 0.545045 0.477148 0.068800
C20   C     C_R   0.627672 0.516448 0.785379 -0.104199
C21   C     C_R   0.380127 0.531951 0.213959 -0.089243
C22   C     C_R   0.793626 0.564410 0.940306 -0.239788
C23   C     C_R   0.659766 0.616772 0.107898 0.084952
C24   C     C_R   0.225306 0.582357 0.054778 -0.250831
C25   C     C_R   0.755190 0.532449 0.845203 0.115638
C26   C     C_R   0.256811 0.551863 0.152066 0.108156
C27   C     C_R   0.543058 0.532148 0.822055 -0.256481
C28   C     C_R   0.468753 0.544813 0.177351 -0.275227
C29   C     C_R   0.579930 0.573994 0.912559 0.100215
C30   C     C_R   0.440358 0.583294 0.082832 0.102219
C31   C     C_R   0.706969 0.583606 0.974434 0.117655
C32   C     C_R   0.315529 0.595624 0.019480 0.125387
C33   C     C_R   0.492680 0.597007 0.946064 0.023909
C34   C     C_R   0.368663 0.617941 0.883313 0.080185
C35   C     C_R   0.531666 0.599202 0.047323 0.026383
C36   C     C_R   0.745646 0.610650 0.070101 -0.279651
C37   C     C_R   0.282168 0.618935 0.921287 -0.283176
C38   C     C_R   0.543913 0.812354 0.507523 -0.095515
C39   C     C_R   0.456241 0.187502 0.493232 -0.097831
C40   C     C_R   0.339160 0.030976 0.414353 0.067047
H1    H     H_    0.818504 0.334144 0.595266 0.142196
H2    H     H_    0.123081 0.611456 0.175233 0.170389
H3    H     H_    0.844755 0.434823 0.804928 0.180565
H4    H     H_    0.933160 0.540679 0.860010 0.162352
H5    H     H_    0.891063 0.573831 0.987813 0.122538
H6    H     H_    0.130007 0.594458 0.006712 0.124977
H7    H     H_    0.748916 0.724775 0.209324 0.193300
H8    H     H_    0.767718 0.598646 0.250921 0.191201
H9    H     H_    0.301980 0.723950 0.771232 0.193809
H10   H     H_    0.257661 0.597491 0.741340 0.185549
H11   H     H_    0.358869 0.829028 0.401350 0.182781
H12   H     H_    0.180667 0.665077 0.403406 0.144614
H13   H     H_    0.641575 0.171038 0.598996 0.181313
H14   H     H_    0.776098 0.803940 0.704846 0.186631
H15   H     H_    0.833060 0.828633 0.620724 0.172939
H16   H     H_    0.221241 0.194771 0.297428 0.179659
H17   H     H_    0.166990 0.170526 0.383232 0.175878
H18   H     H_    0.157355 0.987269 0.368590 0.181741
H19   H     H_    0.203607 0.012930 0.278249 0.182274
H20   H     H_    0.842608 0.011998 0.634278 0.181914
H21   H     H_    0.795147 0.986133 0.723916 0.182830
H22   H     H_    0.702419 0.634092 0.386413 0.236997
H23   H     H_    0.842990 0.623242 0.117016 0.144125
H24   H     H_    0.797978 0.696200 0.490390 0.217712
H25   H     H_    0.298923 0.370162 0.620078 0.220129
H26   H     H_    0.207869 0.304552 0.516677 0.218322
H27   H     H_    0.187666 0.633759 0.872915 0.147805
H28   H     H_    0.978485 0.690619 0.396515 0.171561
H29   H     H_    0.021350 0.309434 0.603374 0.174463
H30   H     H_    0.559897 0.520270 0.222447 0.191265
H31   H     H_    0.447271 0.508811 0.779767 0.185308
H32   H     H_    0.095024 0.484327 0.144678 0.175559
N1    N     N_R   0.799120 0.480200 0.517090 -0.103738
N2    N     N_3   0.772053 0.021030 0.654817 -0.488445
N3    N     N_3   0.793606 0.651935 0.434389 -0.487811
N4    N     N_3   0.209032 0.350541 0.570484 -0.487781
N5    N     N_R   0.200880 0.519800 0.482910 -0.103761
N6    N     N_3   0.163076 0.539695 0.186578 -0.435224
N7    N     N_3   0.844800 0.515824 0.810091 -0.427001
N8    N     N_3   0.703204 0.650434 0.205002 -0.475747
N9    N     N_3   0.332301 0.648047 0.782991 -0.454915
N10   N     N_3   0.756333 0.798500 0.631705 -0.443688
N11   N     N_3   0.242700 0.200652 0.370831 -0.447842
N12   N     N_3   0.227438 0.978255 0.347510 -0.488267
O1    O     O_R   0.580150 0.341050 0.504560 -0.627398
O2    O     O_R   0.419850 0.658950 0.495440 -0.625123
O3    O     O_R   0.388090 0.353760 0.493600 -0.614860
O4    O     O_R   0.611910 0.646240 0.506400 -0.615807
O5    O     O_R   0.650890 0.490020 0.640860 -0.585968
O6    O     O_R   0.349110 0.509980 0.359140 -0.576951
O7    O     O_R   0.458830 0.502730 0.629890 -0.629288
O8    O     O_R   0.541170 0.497270 0.370110 -0.634853
Zn1   Zn    Zn3+2 0.628240 0.491510 0.507320 0.937647
Zn2   Zn    Zn3+2 0.371760 0.508490 0.492680 0.942905

loop_
_geom_bond_atom_site_label_1
_geom_bond_atom_site_label_2
_ccdc_geom_bond_type
C1    O3    A    
C15   N3    S    
C21   C26   A    
C27   C29   A    
C34   C37   A    
C40   N12   S    
C2    C7    A    
N1    Zn1   S    
C13   H1    S    
C7    C8    A    
C15   C19   A    
C26   N6    S    
H25   N4    S    
C30   C35   A    
C5    H13   S    
C24   C26   A    
C20   C25   A    
H3    N7    S    
O3    Zn2   S    
C29   C33   A    
N5    Zn2   S    
C18   C19   A    
C14   N5    A    
H9    N9    S    
C14   C18   A    
H32   N6    S    
C11   H12   S    
O2    Zn2   S    
O1    Zn1   S    
C9    C19   A    
C22   C25   A    
H17   N11   S    
C34   N9    S    
C23   N8    S    
C36   H23   S    
C11   N5    A    
C2    N2    S    
C3    C39   A    
C16   O5    A    
C12   C38   S    
C17   O8    A    
H7    N8    S    
O6    Zn2   S    
C1    O1    A    
C22   C31   A    
C12   O4    A    
H19   N12   S    
C5    C7    A    
C6    C8    A    
C17   C21   S    
C14   N4    S    
C2    C4    A    
C24   C32   A    
H18   N12   S    
C16   C20   S    
H26   N4    S    
C6    C38   A    
C33   C34   A    
C32   C37   A    
H15   N10   S    
C9    C11   A    
C15   N1    A    
C21   C28   A    
C13   N1    A    
C3    C40   A    
H2    N6    S    
C23   C35   A    
C5    C39   A    
C3    N11   S    
C6    H11   S    
H22   N3    S    
H14   N10   S    
C27   H31   S    
H16   N11   S    
O4    Zn1   S    
C25   N7    S    
H4    N7    S    
C28   H30   S    
C17   O6    A    
C4    C38   A    
C10   C13   A    
C20   C27   A    
H21   N2    S    
C12   O2    A    
C24   H6    S    
H8    N8    S    
C28   C30   A    
C9    H28   S    
C29   C31   A    
O7    Zn2   S    
C30   C32   A    
C10   C18   A    
C37   H27   S    
H20   N2    S    
O8    Zn1   S    
C33   C35   A    
H24   N3    S    
O5    Zn1   S    
C1    C39   S    
C10   H29   S    
C22   H5    S    
C4    N10   S    
C16   O7    A    
C23   C36   A    
C31   C36   A    
C8    C40   A    
H10   N9    S    
