data_mof_unit_62616.cif
_audit_creation_date              2013-03-05T16:21:58-0500
_audit_creation_method            fapswitch 2.2
_symmetry_space_group_name_H-M    P1
_symmetry_Int_Tables_number       1
_space_group_crystal_system       triclinic
_cell_length_a                    23.579564
_cell_length_b                    30.12706
_cell_length_c                    9.003541
_cell_angle_alpha                 90.31112
_cell_angle_beta                  94.790418
_cell_angle_gamma                 89.744264
_cell_volume                      6373.47422958

loop_
_atom_site_label
_atom_site_type_symbol
_atom_site_description
_atom_site_fract_x
_atom_site_fract_y
_atom_site_fract_z
_atom_type_partial_charge
P1    P     P_3+3 0.880180 0.450420 0.058010 0.700264
P2    P     P_3+3 0.880180 0.549580 0.558010 0.706519
P3    P     P_3+3 0.380180 0.950420 0.058010 0.697034
P4    P     P_3+3 0.380180 0.049580 0.558010 0.703666
O1    O     O_2   0.885810 0.435270 0.885040 -0.278319
O2    O     O_2   0.885810 0.564730 0.385040 -0.269958
O3    O     O_2   0.385810 0.935270 0.885040 -0.282312
O4    O     O_2   0.385810 0.064730 0.385040 -0.297383
O5    O     O_3   0.933490 0.477290 0.133000 -0.265250
O6    O     O_3   0.933490 0.522710 0.633000 -0.270056
O7    O     O_3   0.433490 0.977290 0.133000 -0.275104
O8    O     O_3   0.433490 0.022710 0.633000 -0.265105
O9    O     O_3   0.980190 0.395350 0.639000 -0.296904
O10   O     O_3   0.980190 0.604650 0.139000 -0.328963
O11   O     O_3   0.480190 0.895350 0.639000 -0.342323
O12   O     O_3   0.480190 0.104650 0.139000 -0.316227
O13   O     O_2   0.887015 0.365079 0.728540 -0.225776
O14   O     O_2   0.889478 0.640867 0.228035 -0.218555
O15   O     O_2   0.389831 0.862143 0.739898 -0.249399
O16   O     O_2   0.389651 0.135497 0.240942 -0.246949
O17   O     O_3   0.810123 0.473416 0.054241 -0.599265
O18   O     O_3   0.810010 0.527340 0.552257 -0.610499
O19   O     O_3   0.309264 0.972022 0.060349 -0.598463
O20   O     O_3   0.309790 0.027384 0.553290 -0.584923
O21   O     O_3   0.960913 0.307427 0.663627 -0.447802
O22   O     O_3   0.959472 0.695656 0.109210 -0.456074
O23   O     O_3   0.456092 0.804698 0.631127 -0.448379
O24   O     O_3   0.463487 0.192327 0.175799 -0.445476
C1    C     C_3   0.032084 0.252625 0.623597 0.363464
C2    C     C_3   0.038882 0.741418 0.174580 0.368598
C3    C     C_3   0.535623 0.757785 0.675666 0.358083
C4    C     C_3   0.525230 0.252052 0.124698 0.357942
P5    P     P_3+3 0.119600 0.450040 0.631910 0.699311
P6    P     P_3+3 0.119600 0.549960 0.131910 0.656852
P7    P     P_3+3 0.619600 0.950040 0.631910 0.692730
P8    P     P_3+3 0.619600 0.049960 0.131910 0.667195
P9    P     P_3+3 0.068560 0.350585 0.095097 0.636844
P10   P     P_3+3 0.064976 0.650607 0.607642 0.601733
P11   P     P_3+3 0.566484 0.849582 0.096244 0.613670
P12   P     P_3+3 0.568299 0.149325 0.593725 0.668756
O25   O     O_2   0.113920 0.434910 0.804950 -0.270351
O26   O     O_2   0.113920 0.565090 0.304950 -0.291151
O27   O     O_2   0.613920 0.934910 0.804950 -0.274841
O28   O     O_2   0.613920 0.065090 0.304950 -0.278627
O29   O     O_3   0.019410 0.395290 0.051170 -0.282031
O30   O     O_3   0.019410 0.604710 0.551170 -0.271880
O31   O     O_3   0.519410 0.895290 0.051170 -0.284939
O32   O     O_3   0.519410 0.104710 0.551170 -0.264505
O33   O     O_2   0.114476 0.358791 0.985352 -0.272222
O34   O     O_2   0.109796 0.647537 0.492704 -0.305728
O35   O     O_2   0.611905 0.856066 0.983883 -0.298252
O36   O     O_2   0.614322 0.141873 0.484054 -0.270611
O37   O     O_3   0.189304 0.474431 0.649204 -0.534764
O38   O     O_3   0.192282 0.530567 0.165862 -0.565136
O39   O     O_3   0.689773 0.973459 0.655012 -0.536261
O40   O     O_3   0.692501 0.030761 0.164608 -0.562079
O41   O     O_3   0.040196 0.299216 0.022090 -0.518492
O42   O     O_3   0.035756 0.704997 0.567113 -0.550709
O43   O     O_3   0.533287 0.799517 0.025812 -0.558395
O44   O     O_3   0.537708 0.200505 0.523374 -0.503978
C5    C     C_3   0.998777 0.281278 0.110397 0.465394
C6    C     C_3   0.979470 0.710909 0.610099 0.390020
C7    C     C_3   0.507687 0.775527 0.138288 0.450586
C8    C     C_3   0.503268 0.219758 0.628144 0.493848
H1    H     H_    0.014816 0.284327 0.229099 -0.029706
H2    H     H_    0.975839 0.692361 0.714638 0.074289
H3    H     H_    0.539996 0.769353 0.231197 0.019945
H4    H     H_    0.530031 0.224425 0.734322 -0.041634
C9    C     C_3   0.986735 0.229701 0.076541 0.430649
C10   C     C_3   0.961145 0.762482 0.632961 0.438722
C11   C     C_3   0.482786 0.728808 0.083116 0.410860
C12   C     C_3   0.479216 0.267979 0.588111 0.410115
C13   C     C_3   0.202537 0.484598 0.174496 0.760508
C14   C     C_3   0.206009 0.519663 0.642853 0.756793
C15   C     C_3   0.702957 0.984786 0.174364 0.758766
C16   C     C_3   0.708068 0.018037 0.643139 0.757856
C17   C     C_3   0.267476 0.472747 0.160404 -0.142483
C18   C     C_3   0.259451 0.521747 0.553380 -0.081911
C19   C     C_3   0.767818 0.972815 0.159407 -0.142047
C20   C     C_3   0.763209 0.017628 0.558848 -0.076410
H5    H     H_    0.280153 0.442129 0.222042 0.215127
H6    H     H_    0.279436 0.554647 0.570910 0.207907
H7    H     H_    0.779902 0.941526 0.217826 0.214662
H8    H     H_    0.785795 0.049496 0.577577 0.207766
Ba1   Ba    Ba6+2 0.999920 0.467660 0.844980 1.949376
Ba2   Ba    Ba6+2 0.999920 0.532340 0.344980 1.917725
Ba3   Ba    Ba6+2 0.499920 0.967660 0.844980 1.935985
Ba4   Ba    Ba6+2 0.499920 0.032340 0.344980 1.947177
C21   C     C_3   0.794338 0.517709 0.021835 0.977612
C22   C     C_3   0.794352 0.483234 0.518520 0.979721
C23   C     C_3   0.282577 0.012391 0.013296 1.018885
C24   C     C_3   0.293644 0.983024 0.520278 1.015987
C25   C     C_3   0.730509 0.521055 0.048219 -0.799620
C26   C     C_3   0.730096 0.480558 0.540387 -0.795127
C27   C     C_3   0.218821 0.001084 0.986576 -0.821750
C28   C     C_3   0.229405 0.980875 0.541595 -0.789517
O45   O     O_3   0.066460 0.522600 0.056690 -0.316055
O46   O     O_3   0.066460 0.477400 0.556690 -0.293914
O47   O     O_3   0.566460 0.022600 0.056690 -0.319809
O48   O     O_3   0.566460 0.977400 0.556690 -0.294009
P13   P     P_3+3 0.926795 0.643618 0.095814 0.700830
P14   P     P_3+3 0.926448 0.356329 0.603339 0.695601
P15   P     P_3+3 0.427244 0.144382 0.112167 0.675879
P16   P     P_3+3 0.425260 0.857191 0.603936 0.703106
C29   C     C_3   0.002431 0.295975 0.566661 0.092469
C30   C     C_3   0.018460 0.693336 0.145551 0.153091
C31   C     C_3   0.515605 0.805216 0.636219 0.142923
C32   C     C_3   0.496444 0.208854 0.065580 0.073579
C33   C     C_R   0.741709 0.296412 0.025767 0.062492
C34   C     C_R   0.742657 0.703224 0.526613 0.086485
C35   C     C_R   0.244065 0.795571 0.024098 0.060228
C36   C     C_R   0.250836 0.207063 0.520704 0.071094
C37   C     C_R   0.749075 0.334118 0.938445 0.078451
C38   C     C_R   0.748372 0.664457 0.442025 0.064224
C39   C     C_R   0.251092 0.833333 0.937167 0.079111
C40   C     C_R   0.258228 0.168987 0.434098 0.071887
C41   C     C_R   0.720977 0.336086 0.795860 -0.174004
C42   C     C_R   0.719148 0.661361 0.301466 -0.164735
C43   C     C_R   0.222818 0.835277 0.795159 -0.151342
C44   C     C_R   0.230369 0.166286 0.291308 -0.150205
C45   C     C_R   0.192455 0.798897 0.731164 0.314944
C46   C     C_R   0.198339 0.201952 0.227963 0.330963
C47   C     C_R   0.689194 0.300174 0.733244 0.329103
C48   C     C_R   0.689951 0.697841 0.234918 0.369102
C49   C     C_R   0.184648 0.760035 0.818121 -0.046840
C50   C     C_R   0.189395 0.240759 0.315107 -0.011080
C51   C     C_R   0.681530 0.261432 0.820199 -0.001669
C52   C     C_R   0.683433 0.737765 0.319193 -0.014300
C53   C     C_R   0.209892 0.758979 0.966022 0.053191
C54   C     C_R   0.215865 0.243080 0.461920 0.045396
C55   C     C_R   0.707732 0.259797 0.967064 0.047762
C56   C     C_R   0.709415 0.739943 0.466392 0.051983
C57   C     C_R   0.153414 0.722260 0.762345 -0.028064
C58   C     C_R   0.153380 0.276295 0.262005 -0.071592
C59   C     C_R   0.647111 0.225204 0.766592 -0.092473
C60   C     C_R   0.650537 0.774659 0.263227 -0.114012
C61   C     C_R   0.142412 0.685176 0.852618 0.014218
C62   C     C_R   0.144026 0.314642 0.348563 -0.038448
C63   C     C_R   0.638341 0.186981 0.852982 -0.031136
C64   C     C_R   0.641642 0.813240 0.349786 -0.029609
C65   C     C_R   0.168603 0.683855 0.000214 0.016773
C66   C     C_R   0.172357 0.317662 0.494530 0.036102
C67   C     C_R   0.666012 0.184708 0.999406 0.048907
C68   C     C_R   0.669530 0.816015 0.496296 0.025165
C69   C     C_R   0.202870 0.720802 0.054496 0.086594
C70   C     C_R   0.207677 0.281316 0.550128 0.085778
C71   C     C_R   0.700679 0.221449 0.054760 0.086265
C72   C     C_R   0.703314 0.778957 0.552809 0.085411
C73   C     C_R   0.107650 0.648868 0.797360 0.237980
C74   C     C_R   0.108011 0.350237 0.292201 0.165662
C75   C     C_R   0.604467 0.150498 0.794390 0.179439
C76   C     C_R   0.606640 0.849346 0.292703 0.171331
C77   C     C_R   0.103000 0.611203 0.889538 -0.216525
C78   C     C_R   0.102184 0.387918 0.385601 -0.174197
C79   C     C_R   0.599138 0.112792 0.887256 -0.254024
C80   C     C_R   0.602441 0.887562 0.384736 -0.168180
C81   C     C_R   0.128426 0.607570 0.035942 0.163176
C82   C     C_R   0.129048 0.392813 0.531709 0.202936
C83   C     C_R   0.626200 0.108140 0.033582 0.187242
C84   C     C_R   0.628827 0.892375 0.531586 0.185724
C85   C     C_R   0.164282 0.644737 0.090488 -0.174570
C86   C     C_R   0.167592 0.357205 0.583709 -0.141279
C87   C     C_R   0.662388 0.145145 0.087900 -0.117011
C88   C     C_R   0.666156 0.856032 0.584604 -0.174451
C89   C     C_R   0.768435 0.295399 0.171388 0.061027
C90   C     C_R   0.770253 0.705112 0.671249 0.093467
C91   C     C_R   0.270712 0.794715 0.169558 0.061405
C92   C     C_R   0.278095 0.208860 0.666118 0.058024
C93   C     C_R   0.806373 0.330489 0.226394 0.092662
C94   C     C_R   0.808522 0.670367 0.725372 0.001472
C95   C     C_R   0.308590 0.829805 0.224440 0.056300
C96   C     C_R   0.315811 0.173791 0.722205 0.065841
C97   C     C_R   0.819322 0.365979 0.128457 0.024934
C98   C     C_R   0.819648 0.633693 0.629683 -0.003013
C99   C     C_R   0.320800 0.865611 0.127439 0.018033
C100  C     C_R   0.326714 0.136819 0.627294 -0.000653
C101  C     C_R   0.786718 0.368458 0.990218 -0.040817
C102  C     C_R   0.785989 0.630221 0.493511 -0.006462
C103  C     C_R   0.288438 0.867843 0.988789 -0.046140
C104  C     C_R   0.295413 0.134686 0.486849 -0.015563
H9    H     H_    0.726094 0.365161 0.728752 0.203429
H10   H     H_    0.722719 0.631191 0.237527 0.199118
H11   H     H_    0.226284 0.864919 0.729804 0.204889
H12   H     H_    0.237005 0.137170 0.223858 0.214215
H13   H     H_    0.079662 0.582771 0.845499 0.201583
H14   H     H_    0.077011 0.415353 0.340085 0.206641
H15   H     H_    0.577823 0.084234 0.839137 0.203354
H16   H     H_    0.579244 0.915614 0.337131 0.206374
C105  C     C_R   0.204884 0.641562 0.215962 0.364645
C106  C     C_R   0.204339 0.359693 0.717299 0.342631
C107  C     C_R   0.703184 0.141687 0.213348 0.350611
C108  C     C_R   0.703235 0.858165 0.717824 0.349485
C109  C     C_R   0.225824 0.681324 0.287177 -0.135721
C110  C     C_R   0.227546 0.320772 0.785034 -0.119363
C111  C     C_R   0.724359 0.181218 0.286013 -0.141246
C112  C     C_R   0.725766 0.819041 0.785486 -0.116251
C113  C     C_R   0.228682 0.720355 0.200609 0.053796
C114  C     C_R   0.233283 0.282335 0.697208 0.064874
C115  C     C_R   0.727176 0.220517 0.200596 0.060386
C116  C     C_R   0.729387 0.780027 0.699260 0.078631
C117  C     C_R   0.759772 0.257839 0.258716 0.083956
C118  C     C_R   0.761683 0.742958 0.758484 0.095500
C119  C     C_R   0.260204 0.758053 0.258827 0.093631
C120  C     C_R   0.267881 0.246163 0.754554 0.080924
C121  C     C_R   0.248581 0.683606 0.438361 0.413003
C122  C     C_R   0.253026 0.321223 0.933412 0.389800
C123  C     C_R   0.749957 0.182316 0.434930 0.401653
C124  C     C_R   0.749930 0.818963 0.935004 0.398321
C125  C     C_R   0.775016 0.220427 0.492827 -0.124708
C126  C     C_R   0.775088 0.781167 0.994465 -0.119839
C127  C     C_R   0.268662 0.723289 0.497906 -0.196903
C128  C     C_R   0.281422 0.284431 0.990585 -0.120260
C129  C     C_R   0.785061 0.256727 0.404326 -0.029061
C130  C     C_R   0.785961 0.744338 0.905532 -0.042135
C131  C     C_R   0.281949 0.758393 0.407121 -0.021406
C132  C     C_R   0.292840 0.247939 0.901015 0.005404
C133  C     C_R   0.836093 0.326817 0.371798 -0.154118
C134  C     C_R   0.836664 0.673341 0.872113 -0.183631
C135  C     C_R   0.335434 0.827696 0.373125 -0.144928
C136  C     C_R   0.342947 0.176668 0.870716 -0.172695
C137  C     C_R   0.822733 0.289905 0.461039 0.314192
C138  C     C_R   0.822214 0.710330 0.963737 0.385261
C139  C     C_R   0.320359 0.791200 0.463610 0.364435
C140  C     C_R   0.330020 0.214474 0.958509 0.323110
C141  C     C_R   0.881789 0.357020 0.413592 0.083975
C142  C     C_R   0.880281 0.641194 0.914532 0.153659
C143  C     C_R   0.378476 0.860030 0.419169 0.187221
C144  C     C_R   0.382224 0.142389 0.923033 0.127816
C145  C     C_R   0.897248 0.388603 0.306954 0.146554
C146  C     C_R   0.895364 0.609034 0.809767 0.074596
C147  C     C_R   0.394090 0.891908 0.313559 0.128628
C148  C     C_R   0.392231 0.105985 0.825127 0.171866
C149  C     C_R   0.866356 0.395851 0.167289 0.148591
C150  C     C_R   0.865092 0.602753 0.670333 0.192377
C151  C     C_R   0.365889 0.896865 0.169538 0.172398
C152  C     C_R   0.368325 0.103358 0.674088 0.171550
H17   H     H_    0.034173 0.322971 0.561240 0.089882
H18   H     H_    0.027967 0.673608 0.248712 0.143416
H19   H     H_    0.532914 0.828305 0.725226 0.136847
H20   H     H_    0.528696 0.184085 0.035256 0.079984
N1    N     N_R   0.308835 0.507491 0.205867 0.293106
O49   O     O_R   0.325062 0.534347 0.105754 -0.144191
O50   O     O_R   0.344906 0.500611 0.320451 -0.235692
N2    N     N_R   0.302359 0.488070 0.597960 0.316214
O51   O     O_R   0.303827 0.451642 0.520757 -0.224396
O52   O     O_R   0.348327 0.499873 0.678309 -0.173772
N3    N     N_R   0.809613 0.006908 0.208813 0.291101
O53   O     O_R   0.826573 0.034386 0.111517 -0.143301
O54   O     O_R   0.845418 0.998756 0.322967 -0.244509
N4    N     N_R   0.802899 0.981842 0.605224 0.314696
O55   O     O_R   0.806251 0.947454 0.518737 -0.220612
O56   O     O_R   0.846330 0.990535 0.699564 -0.181710
H21   H     H_    0.274560 0.463059 0.046093 0.224769
H22   H     H_    0.247589 0.519228 0.434030 0.124281
H23   H     H_    0.774846 0.964120 0.043901 0.222852
H24   H     H_    0.752542 0.015896 0.438602 0.122771
N5    N     N_R   0.801608 0.526919 0.868809 0.160652
O57   O     O_R   0.771054 0.557757 0.799594 -0.456596
O58   O     O_R   0.850909 0.516990 0.825911 -0.404592
N6    N     N_R   0.803256 0.473337 0.366738 0.157784
O59   O     O_R   0.773284 0.442270 0.296949 -0.464212
O60   O     O_R   0.853602 0.481864 0.328888 -0.406312
N7    N     N_R   0.300764 0.028633 0.874898 0.162053
O61   O     O_R   0.274158 0.061787 0.807579 -0.445603
O62   O     O_R   0.344846 0.011503 0.821764 -0.406160
N8    N     N_R   0.302140 0.972588 0.369004 0.188296
O63   O     O_R   0.273277 0.940431 0.302077 -0.459002
O64   O     O_R   0.350844 0.983700 0.325683 -0.395243
N9    N     N_R   0.827007 0.549732 0.114548 0.207679
O65   O     O_R   0.881466 0.551293 0.106143 -0.318474
O66   O     O_R   0.801766 0.584973 0.160948 -0.476706
N10   N     N_R   0.826262 0.451449 0.613004 0.215385
O67   O     O_R   0.799929 0.417836 0.664546 -0.477150
O68   O     O_R   0.880700 0.448453 0.603846 -0.321030
N11   N     N_R   0.289605 0.046816 0.129209 0.228371
O69   O     O_R   0.315229 0.083464 0.101598 -0.415697
O70   O     O_R   0.257490 0.046728 0.239902 -0.435105
N12   N     N_R   0.325116 0.950842 0.614267 0.200647
O71   O     O_R   0.299274 0.915940 0.658401 -0.484015
O72   O     O_R   0.379731 0.948908 0.609180 -0.328574
H25   H     H_    0.705871 0.496028 0.978739 0.244363
H26   H     H_    0.706178 0.505403 0.468717 0.238583
H27   H     H_    0.212238 0.974795 0.900158 0.211637
H28   H     H_    0.205552 0.004427 0.464828 0.268923
H29   H     H_    0.712722 0.554441 0.019597 0.272965
H30   H     H_    0.712524 0.447154 0.511461 0.270896
H31   H     H_    0.193239 0.030839 0.951233 0.270540
H32   H     H_    0.211797 0.947120 0.519163 0.264734
H33   H     H_    0.724182 0.514726 0.167017 0.244147
H34   H     H_    0.722525 0.487626 0.658241 0.251995
H35   H     H_    0.202413 0.987893 0.089666 0.284413
H36   H     H_    0.221657 0.990483 0.656846 0.232321
N13   N     N_R   0.952991 0.405152 0.326941 0.210924
O73   O     O_R   0.962902 0.442866 0.394194 -0.308236
O74   O     O_R   0.992211 0.375071 0.333163 -0.570100
N14   N     N_R   0.949836 0.589650 0.833019 0.223673
O75   O     O_R   0.956724 0.552568 0.904747 -0.288778
O76   O     O_R   0.991621 0.617092 0.835566 -0.539284
N15   N     N_R   0.448175 0.911542 0.339300 0.221832
O77   O     O_R   0.454472 0.948924 0.410550 -0.295302
O78   O     O_R   0.490836 0.884776 0.337661 -0.502809
N16   N     N_R   0.431049 0.072423 0.878686 0.236527
O79   O     O_R   0.420000 0.049080 0.993028 -0.315659
O80   O     O_R   0.482225 0.072222 0.836803 -0.404463
H37   H     H_    0.981447 0.291018 0.453522 0.116795
H38   H     H_    0.039947 0.678285 0.052363 0.054927
H39   H     H_    0.530424 0.815218 0.527441 0.066672
H40   H     H_    0.467987 0.217054 0.966295 0.145218
N17   N     N_R   0.090045 0.260215 0.688274 0.219728
O81   O     O_R   0.125849 0.227132 0.695803 -0.285321
O82   O     O_R   0.100863 0.294417 0.774074 -0.370232
N18   N     N_R   0.097823 0.744326 0.236196 0.206407
O83   O     O_R   0.116255 0.717555 0.341429 -0.410112
O84   O     O_R   0.125600 0.781001 0.219956 -0.296596
N19   N     N_R   0.596240 0.755379 0.719181 0.200168
O85   O     O_R   0.623092 0.718004 0.703581 -0.286277
O86   O     O_R   0.617364 0.783726 0.817197 -0.412023
N20   N     N_R   0.583312 0.244441 0.189038 0.227329
O87   O     O_R   0.594751 0.209544 0.270400 -0.362343
O88   O     O_R   0.618460 0.277705 0.200966 -0.281884
N21   N     N_R   0.032969 0.219308 0.505956 0.249322
O89   O     O_R   0.066033 0.224793 0.399415 -0.426212
O90   O     O_R   0.009260 0.180879 0.521670 -0.189755
N22   N     N_R   0.031963 0.767714 0.039448 0.273901
O91   O     O_R   0.057063 0.754765 0.923668 -0.427242
O92   O     O_R   0.015902 0.808937 0.048750 -0.192900
N23   N     N_R   0.520037 0.726667 0.554402 0.275001
O93   O     O_R   0.552240 0.722830 0.444926 -0.372862
O94   O     O_R   0.482093 0.696344 0.571761 -0.175905
N24   N     N_R   0.524864 0.285768 0.008796 0.232685
O95   O     O_R   0.562596 0.284221 0.911831 -0.410906
O96   O     O_R   0.494528 0.321635 0.019785 -0.201451
N25   N     N_R   0.852861 0.280749 0.601614 0.245816
O97   O     O_R   0.828975 0.291791 0.721523 -0.361666
O98   O     O_R   0.887698 0.246986 0.608183 -0.290438
N26   N     N_R   0.847731 0.717754 0.111485 0.264058
O99   O     O_R   0.819158 0.705831 0.221622 -0.384376
O100  O     O_R   0.881523 0.751735 0.133168 -0.239338
N27   N     N_R   0.349471 0.781471 0.604929 0.257217
O101  O     O_R   0.325799 0.793586 0.723777 -0.379940
O102  O     O_R   0.381124 0.745863 0.613044 -0.238310
N28   N     N_R   0.357214 0.222438 0.103418 0.238812
O103  O     O_R   0.331248 0.209834 0.217286 -0.374331
O104  O     O_R   0.391228 0.256318 0.120393 -0.318959
N29   N     N_R   0.956707 0.208059 0.194537 0.264880
O105  O     O_R   0.942701 0.166415 0.179330 -0.184823
O106  O     O_R   0.938826 0.229881 0.306433 -0.361323
N30   N     N_R   0.946185 0.771112 0.785384 0.243975
O107  O     O_R   0.931671 0.811335 0.820756 -0.202820
O108  O     O_R   0.929078 0.738965 0.865033 -0.428494
N31   N     N_R   0.449040 0.708962 0.197261 0.265593
O109  O     O_R   0.463723 0.671111 0.258459 -0.176835
O110  O     O_R   0.397458 0.723202 0.210653 -0.317449
N32   N     N_R   0.448517 0.286446 0.710999 0.239859
O111  O     O_R   0.437645 0.328863 0.712726 -0.180136
O112  O     O_R   0.415028 0.260994 0.779667 -0.434470
N33   N     N_R   0.171573 0.802661 0.577156 0.247446
O113  O     O_R   0.121916 0.787560 0.531762 -0.255652
O114  O     O_R   0.196596 0.828966 0.489026 -0.364671
N34   N     N_R   0.178423 0.198368 0.072997 0.261937
O115  O     O_R   0.179230 0.232616 0.986433 -0.370034
O116  O     O_R   0.169707 0.159451 0.011887 -0.271387
N35   N     N_R   0.667195 0.303843 0.579826 0.260228
O117  O     O_R   0.669114 0.270110 0.490100 -0.364721
O118  O     O_R   0.655983 0.342797 0.522356 -0.280295
N36   N     N_R   0.670283 0.693556 0.079930 0.260756
O119  O     O_R   0.673629 0.726807 0.990921 -0.370273
O120  O     O_R   0.659703 0.654515 0.021515 -0.280521
H41   H     H_    0.138773 0.720786 0.646739 0.213207
H42   H     H_    0.130815 0.273626 0.154070 0.204727
H43   H     H_    0.625937 0.226967 0.657134 0.197625
H44   H     H_    0.630168 0.773125 0.152338 0.201565
H45   H     H_    0.792243 0.396251 0.918796 0.189633
H46   H     H_    0.790311 0.601615 0.423383 0.180701
H47   H     H_    0.293367 0.895826 0.917586 0.184703
H48   H     H_    0.300183 0.106619 0.414880 0.197572
N37   N     N_R   0.248007 0.609256 0.197936 0.267223
O121  O     O_R   0.276240 0.611931 0.080172 -0.221731
O122  O     O_R   0.270438 0.587600 0.311780 -0.337252
N38   N     N_R   0.239689 0.397498 0.742047 0.259164
O123  O     O_R   0.292719 0.393028 0.714603 -0.245352
O124  O     O_R   0.228624 0.424504 0.847413 -0.337964
N39   N     N_R   0.745883 0.108782 0.196443 0.261252
O125  O     O_R   0.771618 0.109110 0.074156 -0.230181
O126  O     O_R   0.770387 0.088727 0.311521 -0.323378
N40   N     N_R   0.738779 0.895799 0.744386 0.259950
O127  O     O_R   0.791895 0.891019 0.718265 -0.247115
O128  O     O_R   0.727753 0.922514 0.850712 -0.339209
N41   N     N_R   0.257672 0.646754 0.535518 0.260244
O129  O     O_R   0.230431 0.647300 0.655197 -0.349193
O130  O     O_R   0.309062 0.630499 0.548437 -0.247088
N42   N     N_R   0.255832 0.359616 0.027085 0.243084
O131  O     O_R   0.305220 0.378414 0.054075 -0.293777
O132  O     O_R   0.218402 0.364674 0.123708 -0.380577
N43   N     N_R   0.752796 0.146206 0.535944 0.266354
O133  O     O_R   0.720484 0.148991 0.645678 -0.343020
O134  O     O_R   0.802544 0.127866 0.564466 -0.266416
N44   N     N_R   0.753739 0.857368 0.028655 0.245049
O135  O     O_R   0.803481 0.875634 0.055102 -0.289162
O136  O     O_R   0.716375 0.863167 0.125070 -0.370153
H49   H     H_    0.007784 0.239121 0.712039 0.171450
H50   H     H_    0.011662 0.755802 0.256295 0.169994
H51   H     H_    0.514196 0.747881 0.773337 0.137240
H52   H     H_    0.500524 0.265125 0.213803 0.184943
H53   H     H_    0.789534 0.219674 0.610024 0.212181
H54   H     H_    0.788437 0.782603 0.112170 0.204877
H55   H     H_    0.280446 0.723771 0.616635 0.207609
H56   H     H_    0.296371 0.286242 0.107294 0.209759
N45   N     N_R   0.946323 0.306707 0.085463 0.224973
O137  O     O_R   0.902329 0.294436 0.150492 -0.437590
O138  O     O_R   0.939441 0.334883 0.976901 -0.294278
N46   N     N_R   0.941402 0.691049 0.494705 0.229714
O139  O     O_R   0.928406 0.649651 0.502201 -0.403253
O140  O     O_R   0.933464 0.710844 0.367863 -0.302173
N47   N     N_R   0.463150 0.801776 0.195728 0.224335
O141  O     O_R   0.449442 0.794341 0.329657 -0.427528
O142  O     O_R   0.431088 0.826496 0.106095 -0.376725
N48   N     N_R   0.458981 0.188595 0.653127 0.212281
O143  O     O_R   0.469396 0.164142 0.769630 -0.566564
O144  O     O_R   0.429850 0.171627 0.537845 -0.334481
N49   N     N_R   0.951071 0.222680 0.935610 0.236841
O145  O     O_R   0.900843 0.240767 0.918153 -0.246493
O146  O     O_R   0.959087 0.186909 0.857932 -0.240076
N50   N     N_R   0.909412 0.774890 0.536904 0.259357
O147  O     O_R   0.907357 0.810820 0.456825 -0.202837
O148  O     O_R   0.861738 0.754869 0.554472 -0.389678
N51   N     N_R   0.444554 0.732175 0.945769 0.232475
O149  O     O_R   0.426589 0.770372 0.894440 -0.272541
O150  O     O_R   0.420948 0.696373 0.887766 -0.210674
N52   N     N_R   0.438842 0.268915 0.454451 0.252900
O151  O     O_R   0.438417 0.303685 0.369015 -0.249182
O152  O     O_R   0.391245 0.247429 0.456260 -0.280409
N53   N     N_R   0.041456 0.206937 0.065268 0.229234
O153  O     O_R   0.068478 0.213099 0.947571 -0.275047
O154  O     O_R   0.057433 0.174241 0.153276 -0.238537
N54   N     N_R   0.008122 0.792206 0.601061 0.271885
O155  O     O_R   0.015650 0.802544 0.464201 -0.264737
O156  O     O_R   0.035713 0.814851 0.707200 -0.228931
N55   N     N_R   0.530805 0.699111 0.057417 0.231329
O157  O     O_R   0.536139 0.681039 0.927661 -0.246989
O158  O     O_R   0.564640 0.686083 0.170214 -0.314526
N56   N     N_R   0.528148 0.296542 0.563800 0.234876
O159  O     O_R   0.554772 0.291154 0.444753 -0.280985
O160  O     O_R   0.543595 0.329030 0.653931 -0.230259
N57   N     N_R   0.184527 0.467843 0.312890 0.149002
O161  O     O_R   0.206962 0.431695 0.370169 -0.430918
O162  O     O_R   0.134994 0.480369 0.348487 -0.425399
N58   N     N_R   0.225345 0.536659 0.790421 0.237727
O163  O     O_R   0.267890 0.517350 0.863867 -0.293069
O164  O     O_R   0.211015 0.576110 0.832506 -0.341233
N59   N     N_R   0.684949 0.968202 0.313102 0.147000
O165  O     O_R   0.707412 0.932129 0.370907 -0.428439
O166  O     O_R   0.635233 0.980494 0.347949 -0.428133
N60   N     N_R   0.725052 0.037278 0.789281 0.238942
O167  O     O_R   0.768061 0.020497 0.868265 -0.296966
O168  O     O_R   0.707105 0.076289 0.826015 -0.340221
N61   N     N_R   0.168871 0.464746 0.053439 0.230730
O169  O     O_R   0.126820 0.439316 0.081396 -0.336813
O170  O     O_R   0.164302 0.488874 0.934879 -0.363826
N62   N     N_R   0.161883 0.548515 0.576213 0.213086
O171  O     O_R   0.112774 0.549819 0.630599 -0.378412
O172  O     O_R   0.178843 0.584023 0.513436 -0.372620
N63   N     N_R   0.669526 0.964648 0.053602 0.230289
O173  O     O_R   0.629027 0.937579 0.080849 -0.335264
O174  O     O_R   0.664222 0.988775 0.935027 -0.361611
N64   N     N_R   0.665699 0.046345 0.567516 0.216452
O175  O     O_R   0.616367 0.050614 0.619939 -0.367936
O176  O     O_R   0.685214 0.079666 0.498200 -0.368767

loop_
_geom_bond_atom_site_label_1
_geom_bond_atom_site_label_2
_geom_bond_distance
_ccdc_geom_bond_type
C37   C101  1.417485 A    
N51   O149  1.298440 A    
O6    Ba1   2.891138 S    
C57   C61   1.422574 A    
N33   O113  1.291446 A    
C10   N50   1.482874 S    
C54   C70   1.417291 A    
N61   O169  1.297721 A    
C66   C70   1.439221 A    
P6    O26   1.636942 D    
C60   C64   1.420430 A    
C137  N25   1.426383 S    
O21   C29   1.405739 S    
N25   O97   1.299778 A    
N54   O155  1.299265 A    
C59   C63   1.418629 A    
C28   H28   1.111019 S    
C1    N21   1.456633 S    
C119  C131  1.389702 A    
C78   C82   1.418822 A    
C11   N51   1.471920 S    
C121  C127  1.377170 A    
N4    O56   1.301342 A    
O20   C24   1.414458 S    
C140  N28   1.424490 S    
N2    O51   1.297771 A    
C6    C10   1.627447 S    
P12   O32   1.793574 S    
C90   C118  1.404467 A    
C26   H34   1.109960 S    
C130  C138  1.406503 A    
P3    C151  1.950408 S    
C10   N30   1.466801 S    
C76   C80   1.422789 A    
P1    C149  1.962894 S    
N10   O67   1.298174 A    
P2    O18   1.784489 S    
O26   Ba2   2.918645 S    
C75   C79   1.426342 A    
P4    O8    1.595742 S    
C64   C76   1.433809 A    
C53   C69   1.420739 A    
C65   C69   1.437659 A    
C26   H26   1.111491 S    
C139  N27   1.425627 S    
C106  N38   1.419978 S    
C41   C47   1.407152 A    
C22   N6    1.429493 S    
C16   N60   1.460663 S    
C68   C88   1.446108 A    
C7    N47   1.440326 S    
P5    O37   1.797879 S    
C10   N54   1.475186 S    
C14   N62   1.446195 S    
C47   N35   1.439019 S    
C98   C150  1.442320 A    
C67   C87   1.444097 A    
C108  N40   1.420279 S    
C7    H3    1.099414 S    
C42   H10   1.079993 S    
C89   C93   1.446307 A    
O12   Ba4   2.879639 S    
N24   O95   1.298022 A    
N63   O173  1.298249 A    
C105  N37   1.422867 S    
N28   O103  1.296636 A    
C72   C116  1.407830 A    
C148  N16   1.419872 S    
P3    Ba3   3.584504 S    
P14   C141  1.930712 S    
C125  C129  1.389366 A    
C15   N59   1.444830 S    
N40   O128  1.289623 A    
C132  C140  1.405346 A    
C18   H6    1.104300 S    
C42   C48   1.404389 A    
C118  C130  1.398328 A    
C85   C105  1.421859 A    
N14   O75   1.296229 A    
C7    C11   1.588592 S    
P6    O38   1.810377 S    
C27   H27   1.109515 S    
N9    O66   1.298858 A    
C114  C120  1.430912 A    
N41   O129  1.299713 A    
P1    O1    1.636316 D    
P8    O28   1.636942 D    
C45   N33   1.437078 S    
P9    O29   1.796875 S    
N39   O125  1.300894 A    
C84   C88   1.458872 A    
C86   C106  1.424292 A    
C23   N7    1.440062 S    
P5    C82   1.961934 S    
N52   O152  1.299460 A    
P11   O31   1.791707 S    
C94   C98   1.434106 A    
N7    O62   1.284990 A    
C20   H24   1.091844 S    
C3    C31   1.537011 S    
C58   H42   1.071041 S    
C28   H36   1.105372 S    
N26   O99   1.297651 A    
C123  N43   1.419516 S    
O41   C5    1.420235 S    
C12   N52   1.471088 S    
O43   C7    1.423447 S    
O44   C8    1.415463 S    
N58   O163  1.292388 A    
C3    H51   1.093634 S    
C79   H15   1.069560 S    
O24   C32   1.405079 S    
N46   O140  1.290580 A    
N30   O107  1.302830 A    
C146  C150  1.403672 A    
P8    O47   1.602986 S    
C24   N12   1.450670 S    
N57   O161  1.298898 A    
C51   C55   1.413025 A    
Ba4   O47   3.154829 S    
P3    O7    1.597714 S    
C49   C53   1.412963 A    
C15   N63   1.423248 S    
C32   H40   1.100499 S    
C116  C118  1.429154 A    
N64   O175  1.296986 A    
O9    Ba1   2.867519 S    
C13   C17   1.585957 S    
N1    O50   1.298047 A    
N45   O137  1.289502 A    
C15   C19   1.586255 S    
C134  C142  1.439121 A    
P9    O41   1.788636 S    
O31   Ba3   2.881627 S    
N38   O123  1.300961 A    
N3    O54   1.298234 A    
P11   O35   1.547137 D    
C112  C124  1.417322 A    
N49   O145  1.299381 A    
P12   O44   1.795346 S    
N31   O109  1.302016 A    
P9    C74   1.933702 S    
Ba1   Ba2   4.915110 S    
P8    Ba4   3.585293 S    
C78   H14   1.077982 S    
C12   N56   1.474014 S    
C121  N41   1.421575 S    
C17   N1    1.467002 S    
C8    H4    1.109281 S    
N46   O139  1.289102 A    
C127  H55   1.081846 S    
N55   O158  1.299286 A    
O21   P14   1.746411 S    
C60   H44   1.072019 S    
O23   P16   1.747487 S    
C148  C152  1.429860 A    
P6    O45   1.602986 S    
N18   O83   1.293619 A    
N5    O57   1.302243 A    
P4    O4    1.641356 D    
Ba2   O45   3.154829 S    
P5    Ba1   3.578472 S    
C73   C77   1.419511 A    
C28   H32   1.111264 S    
P7    C84   1.973275 S    
C63   C67   1.423132 A    
C30   H38   1.109551 S    
C38   C102  1.412019 A    
C5    N45   1.453984 S    
N47   O142  1.295020 A    
C55   C71   1.421048 A    
N60   O167  1.291765 A    
C4    H52   1.100311 S    
C27   H35   1.111078 S    
P7    O27   1.641980 D    
C34   C38   1.402991 A    
C96   C136  1.435670 A    
O1    Ba1   2.917416 S    
O40   C15   1.407699 S    
C20   N4    1.463961 S    
P4    C152  1.954921 S    
C1    C29   1.548075 S    
C128  H56   1.081241 S    
N34   O115  1.297594 A    
P2    C150  1.937266 S    
C111  C115  1.420106 A    
N17   O82   1.297828 A    
N16   O80   1.293928 A    
C109  C121  1.422262 A    
C6    H2    1.106832 S    
C79   C83   1.422426 A    
C80   C84   1.420407 A    
C17   H21   1.094244 S    
O10   Ba2   2.879639 S    
N23   O94   1.300649 A    
N22   O91   1.298347 A    
C12   N32   1.476888 S    
C142  C146  1.413521 A    
C2    N22   1.452827 S    
C92   C120  1.405300 A    
O4    Ba4   2.908060 S    
C19   N3    1.467958 S    
C70   C114  1.409006 A    
C103  H47   1.074423 S    
O13   P14   1.540894 D    
C45   C49   1.433033 A    
N13   O73   1.297488 A    
C5    H1    1.106979 S    
O15   P16   1.544791 D    
C47   C51   1.429447 A    
C138  N26   1.430357 S    
C43   H11   1.079253 S    
C44   H12   1.082403 S    
C50   C58   1.423221 A    
N8    O64   1.289463 A    
C37   C41   1.396055 A    
N50   O147  1.302333 A    
C90   C94   1.439126 A    
C39   C43   1.393115 A    
C30   H18   1.111857 S    
C125  H53   1.082120 S    
P7    O48   1.601016 S    
C36   C40   1.401944 A    
N41   O130  1.301337 A    
Ba3   O48   3.158751 S    
C29   H17   1.111754 S    
C122  N42   1.426293 S    
C16   C20   1.559218 S    
N6    O59   1.302157 A    
P4    Ba4   3.577828 S    
C120  C132  1.399279 A    
O2    Ba2   2.908060 S    
C24   N8    1.426327 S    
C25   H29   1.111292 S    
C110  C114  1.411048 A    
C13   N61   1.424247 S    
C27   H31   1.111263 S    
N14   O76   1.287651 A    
N2    O52   1.301658 A    
C2    H50   1.101805 S    
N12   O72   1.293475 A    
C145  C149  1.417079 A    
C107  C111  1.427585 A    
P10   O30   1.799804 S    
C23   C27   1.541819 S    
N59   O165  1.299010 A    
P6    C81   1.962602 S    
C105  C109  1.426194 A    
C100  C104  1.411199 A    
C8    N48   1.439712 S    
N32   O111  1.302500 A    
C123  C125  1.373789 A    
C93   C97   1.439478 A    
N12   O71   1.298279 A    
C87   C107  1.425082 A    
C36   C54   1.436262 A    
N56   O159  1.295726 A    
C102  H46   1.075087 S    
C95   C135  1.433817 A    
C96   C100  1.435561 A    
C133  C141  1.438000 A    
O42   C6    1.423355 S    
C93   C133  1.436968 A    
Ba3   Ba4   4.915110 S    
C46   N34   1.438147 S    
C71   C115  1.406575 A    
O37   C14   1.422951 S    
C20   H8    1.105277 S    
O22   C30   1.403555 S    
O30   Ba2   2.869451 S    
N7    O61   1.302344 A    
O16   P15   1.542347 D    
O17   C21   1.409263 S    
P1    O17   1.786236 S    
N24   O96   1.301094 A    
C14   N58   1.459059 S    
C108  C112  1.410973 A    
P12   O36   1.541893 D    
C51   C59   1.421141 A    
P3    O3    1.636316 D    
C52   C60   1.422721 A    
P4    O20   1.789301 S    
N28   O104  1.301389 A    
C50   C54   1.415368 A    
C49   C57   1.424519 A    
C136  C144  1.438754 A    
C16   N64   1.440170 S    
C89   C117  1.406762 A    
N36   O119  1.293044 A    
P8    C83   1.980551 S    
P10   O42   1.802022 S    
C129  C137  1.405514 A    
C35   C53   1.438518 A    
O3    Ba3   2.917416 S    
C97   C149  1.450123 A    
N53   O154  1.302068 A    
C33   C55   1.438357 A    
N35   O117  1.297787 A    
O32   Ba4   2.869451 S    
C34   C56   1.435238 A    
C91   C119  1.404533 A    
N29   O106  1.298562 A    
C40   C44   1.396142 A    
C98   C102  1.407425 A    
P10   C73   1.909557 S    
C68   C72   1.438917 A    
C48   C52   1.433181 A    
N25   O98   1.303067 A    
C74   C78   1.422074 A    
N19   O85   1.302030 A    
N33   O114  1.301923 A    
N9    O65   1.293737 A    
C133  C137  1.427107 A    
N61   O170  1.291498 A    
C126  H54   1.080721 S    
C1    N17   1.458661 S    
C25   H25   1.111508 S    
N54   O156  1.301903 A    
C22   C26   1.546614 S    
C80   H16   1.076002 S    
P1    O5    1.597714 S    
N26   O100  1.303903 A    
C62   C66   1.426301 A    
C1    H49   1.099854 S    
O10   P13   1.739131 S    
C31   H39   1.110580 S    
N4    O55   1.298734 A    
C31   H19   1.111075 S    
C141  C145  1.425326 A    
P13   C142  1.890150 S    
N58   O164  1.297431 A    
N55   O157  1.301588 A    
P8    O40   1.812335 S    
O38   C13   1.406241 S    
P9    O33   1.547062 D    
O12   P15   1.728936 S    
N27   O101  1.297490 A    
C17   H5    1.106163 S    
P11   O43   1.790848 S    
N30   O108  1.293957 A    
O18   C22   1.405528 S    
N44   O136  1.298061 A    
C117  C129  1.394689 A    
Ba4   O48   2.888992 S    
C33   C89   1.406889 A    
N42   O132  1.297905 A    
N64   O176  1.291457 A    
C11   N31   1.481345 S    
C81   C85   1.463872 A    
C144  C148  1.434394 A    
O25   Ba1   2.909193 S    
N51   O150  1.302548 A    
P16   C143  1.919870 S    
N38   O124  1.288828 A    
C3    N19   1.451748 S    
C61   C65   1.418516 A    
N48   O144  1.299529 A    
C64   C68   1.426133 A    
N42   O131  1.301175 A    
C66   C86   1.442219 A    
C91   C95   1.445167 A    
N43   O133  1.299191 A    
N31   O110  1.302766 A    
N22   O92   1.301051 A    
N21   O89   1.297335 A    
C25   H33   1.109867 S    
P5    O25   1.641980 D    
C23   N11   1.467363 S    
N40   O127  1.300741 A    
P15   C144  1.930754 S    
N23   O93   1.297877 A    
C19   H7    1.106515 S    
O24   P15   1.750762 S    
C143  C147  1.426031 A    
C9    N29   1.480662 S    
C104  H48   1.073725 S    
C6    N46   1.444106 S    
N18   O84   1.302082 A    
C122  C128  1.372563 A    
C77   C81   1.406394 A    
Ba2   O46   2.888992 S    
C18   N2    1.463416 S    
C135  C139  1.435492 A    
C11   N55   1.472577 S    
C92   C96   1.443789 A    
C111  C123  1.423956 A    
N62   O171  1.294719 A    
C14   C18   1.552947 S    
C115  C117  1.436324 A    
N60   O168  1.297863 A    
C135  C143  1.443935 A    
C2    N18   1.455591 S    
N59   O166  1.290786 A    
C127  C131  1.392811 A    
C65   C85   1.444030 A    
O19   C23   1.417316 S    
N43   O134  1.301041 A    
P3    O19   1.793378 S    
C24   C28   1.544330 S    
C112  C116  1.411302 A    
N34   O116  1.302273 A    
C26   H30   1.111343 S    
N17   O81   1.301704 A    
C62   C74   1.433345 A    
C67   C71   1.440782 A    
C21   N9    1.453070 S    
N11   O70   1.301094 A    
N1    O49   1.296839 A    
O22   P13   1.749087 S    
C41   H9    1.079710 S    
C36   C92   1.410389 A    
P5    O46   1.601016 S    
P6    Ba2   3.585293 S    
C63   C75   1.433724 A    
N57   O162  1.290949 A    
N52   O151  1.302486 A    
C146  N14   1.408660 S    
Ba1   O46   3.158751 S    
C107  N39   1.426413 S    
C32   H20   1.112273 S    
N21   O90   1.301413 A    
N20   O88   1.301591 A    
P2    Ba2   3.577828 S    
O23   C31   1.400357 S    
O11   P16   1.743534 S    
N45   O138  1.297529 A    
C48   N36   1.438563 S    
Ba1   O45   2.885154 S    
C33   C37   1.404626 A    
N50   O148  1.299730 A    
C4    N20   1.459433 S    
N49   O146  1.303193 A    
C2    C30   1.542607 S    
C21   C25   1.545928 S    
N35   O118  1.302274 A    
C61   C73   1.431752 A    
P2    O2    1.641356 D    
P7    Ba3   3.578472 S    
C52   C56   1.414175 A    
C44   C46   1.406323 A    
C134  C138  1.439471 A    
Ba3   O47   2.885154 S    
P1    Ba1   3.584504 S    
C110  C122  1.418341 A    
C9    N49   1.477307 S    
N19   O86   1.295535 A    
N37   O122  1.292159 A    
P7    O39   1.797305 S    
C18   H22   1.089860 S    
C128  C132  1.398402 A    
C21   N5    1.431312 S    
N6    O60   1.289450 A    
C59   H43   1.068399 S    
N15   O77   1.296002 A    
C82   C86   1.456630 A    
C99   C103  1.409439 A    
C126  C130  1.400022 A    
C95   C99   1.436775 A    
P11   C76   1.935372 S    
C124  N44   1.426700 S    
P12   C75   1.932591 S    
N5    O58   1.288687 A    
O14   P13   1.541099 D    
C46   C50   1.429139 A    
O29   Ba1   2.881627 S    
N39   O126  1.294646 A    
C69   C113  1.402726 A    
N20   O87   1.299035 A    
O5    Ba2   2.887266 S    
N47   O141  1.295135 A    
C97   C101  1.409412 A    
O7    Ba4   2.887266 S    
C145  N13   1.404980 S    
N15   O78   1.287425 A    
N37   O121  1.301234 A    
C38   C42   1.392393 A    
C43   C45   1.406095 A    
O39   C16   1.419709 S    
N10   O68   1.295853 A    
N27   O102  1.302996 A    
N11   O69   1.296107 A    
N32   O112  1.298413 A    
C4    N24   1.459701 S    
C83   C87   1.463905 A    
N56   O160  1.301669 A    
P2    O6    1.595742 S    
C136  C140  1.429131 A    
O11   Ba3   2.867519 S    
N48   O143  1.291158 A    
C5    C9    1.603889 S    
C40   C104  1.410667 A    
N16   O79   1.294829 A    
O8    Ba3   2.891138 S    
C9    N53   1.469263 S    
C56   C72   1.419458 A    
C22   N10   1.449927 S    
N62   O172  1.293020 A    
C131  C139  1.407625 A    
C58   C62   1.416815 A    
C147  C151  1.415314 A    
N3    O53   1.296909 A    
P10   O34   1.541796 D    
C101  H45   1.073519 S    
C99   C151  1.448550 A    
O27   Ba3   2.909193 S    
C3    N23   1.459778 S    
O9    P14   1.741314 S    
N13   O74   1.289980 A    
C88   C108  1.425387 A    
C147  N15   1.409213 S    
C34   C90   1.407277 A    
C100  C152  1.443318 A    
C77   H13   1.076004 S    
C109  C113  1.419198 A    
C113  C119  1.432865 A    
C8    C12   1.589423 S    
N36   O120  1.302410 A    
C13   N57   1.443914 S    
N8    O63   1.302268 A    
C106  C110  1.411589 A    
C35   C91   1.404792 A    
C124  C126  1.372097 A    
N53   O153  1.295907 A    
C4    C32   1.541985 S    
N63   O174  1.291915 A    
C19   H23   1.096834 S    
N44   O135  1.301138 A    
C35   C39   1.402623 A    
C57   H41   1.069655 S    
N29   O105  1.302343 A    
O28   Ba4   2.918645 S    
C39   C103  1.416681 A    
C29   H37   1.104352 S    
C94   C134  1.430635 A    
