data_mof_unit_42139.cif
_audit_creation_date              2013-03-05T15:51:56-0500
_audit_creation_method            fapswitch 2.2
_symmetry_space_group_name_H-M    P1
_symmetry_Int_Tables_number       1
_space_group_crystal_system       triclinic
_cell_length_a                    9.594711
_cell_length_b                    10.789262
_cell_length_c                    17.316094
_cell_angle_alpha                 93.840358
_cell_angle_beta                  85.628958
_cell_angle_gamma                 88.674471
_cell_volume                      1782.61372002

loop_
_atom_site_label
_atom_site_type_symbol
_atom_site_description
_atom_site_fract_x
_atom_site_fract_y
_atom_site_fract_z
_atom_type_partial_charge
O1    O     O_R   0.381190 0.680360 0.500010 -0.520322
O2    O     O_R   0.618760 0.680340 0.500000 -0.584981
C1    C     C_R   0.497220 0.737926 0.505080 0.896684
O3    O     O_R   0.367440 0.500030 0.613600 -0.517333
O4    O     O_R   0.605010 0.500010 0.613590 -0.604127
C2    C     C_R   0.481617 0.493138 0.649452 0.879128
Cu1   Cu    Cu3+1 0.359340 0.500010 0.500010 1.025932
Cu2   Cu    Cu3+1 0.640660 0.499990 0.499990 0.962888
O5    O     O_R   0.381240 0.319660 0.500000 -0.579827
O6    O     O_R   0.618810 0.319640 0.499990 -0.609777
O7    O     O_R   0.394990 0.499990 0.386410 -0.597200
O8    O     O_R   0.632560 0.499970 0.386400 -0.604239
C3    C     C_R   0.501905 0.262679 0.499000 0.754380
C4    C     C_R   0.518746 0.495402 0.350013 0.803206
C5    C     C_R   0.472943 0.483312 0.733724 -0.121975
C6    C     C_R   0.584543 0.527737 0.774682 -0.182605
C7    C     C_R   0.578123 0.531502 0.855464 0.394063
C8    C     C_R   0.460495 0.482677 0.895729 0.003021
C9    C     C_R   0.350724 0.435453 0.855050 -0.168228
C10   C     C_R   0.356012 0.434461 0.774477 0.287519
C11   C     C_R   0.416648 0.431519 0.146811 -0.133464
C12   C     C_R   0.408564 0.451406 0.226922 -0.171115
C13   C     C_R   0.658697 0.482368 0.222145 -0.177177
C14   C     C_R   0.666482 0.463581 0.141482 -0.108106
C15   C     C_R   0.545011 0.441006 0.103378 0.158549
C16   C     C_2   0.448305 0.478096 0.980153 -0.129322
C17   C     C_2   0.553185 0.434125 0.018284 -0.126630
C18   C     C_R   0.529047 0.478428 0.265228 -0.013295
H1    H     H_    0.673766 0.567218 0.743989 0.198028
H2    H     H_    0.307702 0.444745 0.258718 0.159376
H3    H     H_    0.753484 0.501031 0.250566 0.163974
H4    H     H_    0.651054 0.402478 0.986528 0.186501
H5    H     H_    0.261284 0.397031 0.886211 0.187807
H6    H     H_    0.322132 0.409085 0.119144 0.134374
H7    H     H_    0.350032 0.510947 0.010716 0.159785
H8    H     H_    0.766504 0.470114 0.108675 0.154571
C19   C     C_R   0.507826 0.900607 0.652726 0.266850
C20   C     C_R   0.564515 0.971036 0.713446 -0.165796
H9    H     H_    0.566699 0.935890 0.770468 0.219421
C21   C     C_R   0.605852 0.091870 0.703847 0.272921
C22   C     C_R   0.585613 0.145641 0.634744 -0.190365
H10   H     H_    0.609427 0.242522 0.631545 0.176049
C23   C     C_R   0.536806 0.074831 0.571225 0.030624
C24   C     C_R   0.512570 0.946928 0.577361 -0.057773
C25   C     C_R   0.489509 0.873036 0.508400 -0.121191
C26   C     C_R   0.465651 0.929499 0.439564 0.253254
H11   H     H_    0.444710 0.101042 0.385888 0.149449
C27   C     C_R   0.468126 0.057524 0.438249 -0.221841
C28   C     C_R   0.505799 0.129529 0.502673 -0.067435
H12   H     H_    0.854833 0.641084 0.589596 0.149955
C29   C     C_R   0.873561 0.333286 0.396005 -0.142878
H13   H     H_    0.764116 0.325871 0.392065 0.191994
C30   C     C_R   0.954572 0.251777 0.344636 -0.186389
H14   H     H_    0.905105 0.188068 0.304890 0.167575
C31   C     C_R   0.098404 0.251741 0.344238 -0.194146
H15   H     H_    0.161431 0.188036 0.304136 0.170011
C32   C     C_R   0.162141 0.333164 0.395221 -0.142753
H16   H     H_    0.273037 0.325369 0.390103 0.181344
C33   C     C_R   0.083755 0.418079 0.448525 0.220869
C34   C     C_R   0.934094 0.418078 0.448713 0.209381
N1    N     N_R   0.852190 0.498790 0.499250 -0.207586
C35   C     C_R   0.917251 0.577532 0.549221 -0.026254
H17   H     H_    0.112912 0.640477 0.589768 0.197442
C36   C     C_R   0.065124 0.577346 0.549254 0.015257
N2    N     N_R   0.148060 0.498710 0.499220 -0.207261
Br1   Br    Br    0.428860 0.835454 0.345344 -0.490815
N3    N     N_R   0.419313 0.800225 0.672975 0.101769
O9    O     O_R   0.430872 0.751256 0.738841 -0.380311
O10   O     O_R   0.300851 0.789306 0.641671 -0.351886
Br2   Br    Br    0.675016 0.188507 0.788536 -0.459857
Br3   Br    Br    0.204194 0.358051 0.724608 -0.399007
N4    N     N_R   0.687171 0.591453 0.895280 0.116674
O11   O     O_R   0.815321 0.585215 0.864354 -0.316731
O12   O     O_R   0.656217 0.666708 0.956410 -0.320623

loop_
_geom_bond_atom_site_label_1
_geom_bond_atom_site_label_2
_geom_bond_distance
_ccdc_geom_bond_type
C29   C30   1.388144 A    
C31   H15   1.083121 S    
C22   H10   1.079238 S    
C9    C10   1.391572 A    
C8    C16   1.461891 S    
Cu1   Cu2   2.699152 S    
C30   H14   1.083026 S    
Cu1   O7    1.970761 S    
C16   C17   1.339718 D    
C14   H8    1.083549 S    
C21   Br2   1.911434 S    
C26   Br1   1.923182 S    
O1    C1    1.293226 A    
C20   H9    1.082641 S    
O7    C4    1.299471 A    
C32   C33   1.416340 A    
C5    C6    1.404721 A    
C8    C9    1.398179 A    
O5    C3    1.296622 A    
C35   C36   1.418798 A    
C2    C5    1.466375 S    
C6    C7    1.393312 A    
C13   C14   1.393943 A    
C10   Br3   1.923309 S    
Cu2   N1    2.028369 S    
C33   C34   1.435708 A    
C12   C18   1.402816 A    
C11   C12   1.385416 A    
C22   C23   1.412528 A    
O3    Cu1   1.974364 S    
C30   C31   1.379514 A    
C5    C10   1.411020 A    
C26   C27   1.383732 A    
C29   H13   1.061989 S    
C14   C15   1.400662 A    
N4    O12   1.301445 A    
C9    H5    1.084096 S    
C23   C28   1.409051 A    
C11   H6    1.082276 S    
C6    H1    1.083802 S    
C25   C26   1.405957 A    
C1    C25   1.454960 S    
N3    O9    1.299821 A    
C34   N1    1.379542 A    
N3    O10   1.300439 A    
C13   H3    1.083175 S    
C23   C24   1.414372 A    
C19   C20   1.406422 A    
Cu1   N2    2.028626 S    
H11   C27   1.084538 S    
Cu2   O8    1.974364 S    
C7    C8    1.412147 A    
C13   C18   1.403940 A    
C3    C28   1.441994 S    
O3    C2    1.302742 A    
C27   C28   1.391785 A    
O8    C4    1.301966 A    
C31   C32   1.388654 A    
H12   C35   1.081926 S    
C24   C25   1.425270 A    
Cu1   O5    1.952304 S    
C11   C15   1.402831 A    
C21   C22   1.389003 A    
C12   H2    1.082645 S    
C17   H4    1.087226 S    
O1    Cu1   1.961920 S    
O2    Cu2   1.952304 S    
N4    O11   1.301573 A    
O6    C3    1.292102 A    
O4    Cu2   1.970761 S    
C15   C17   1.466381 S    
C36   N2    1.367077 A    
C19   C24   1.426296 A    
O2    C1    1.302754 A    
C33   N2    1.383173 A    
C20   C21   1.388349 A    
C32   H16   1.061855 S    
O4    C2    1.300359 A    
C19   N3    1.437089 S    
N1    C35   1.366961 A    
H17   C36   1.079732 S    
C16   H7    1.085411 S    
C7    N4    1.438741 S    
Cu2   O6    1.961920 S    
C29   C34   1.414502 A    
C4    C18   1.462799 S    
