data_mof_unit_45450.cif
_audit_creation_date              2012-12-10T17:33:01-0500
_audit_creation_method            fapswitch 2.2
_symmetry_space_group_name_H-M    P1
_symmetry_Int_Tables_number       1
_space_group_crystal_system       triclinic
_cell_length_a                    12.420415
_cell_length_b                    13.292335
_cell_length_c                    14.289699
_cell_angle_alpha                 93.858589
_cell_angle_beta                  107.984157
_cell_angle_gamma                 117.326827
_cell_volume                      1931.53752733

loop_
_atom_site_label
_atom_site_type_symbol
_atom_type_description
_atom_site_fract_x
_atom_site_fract_y
_atom_site_fract_z
_atom_type_partial_charge
C1    C     C_R   0.650847 0.714064 0.508791 0.762389
C2    C     C_R   0.883929 0.549844 0.924901 0.082979
C3    C     C_R   0.843379 0.578118 0.000225 0.162566
C4    C     C_R   0.000050 0.542745 0.953691 0.067581
C5    C     C_R   0.065276 0.549790 0.057083 0.077195
C6    C     C_R   0.023371 0.580447 0.130383 -0.225189
C7    C     C_R   0.915099 0.595220 0.102174 -0.211762
C8    C     C_R   0.054305 0.530873 0.882780 -0.221482
C9    C     C_R   0.162759 0.516859 0.910699 -0.218242
C10   C     C_R   0.219721 0.512096 0.009524 0.115680
C11   C     C_R   0.171337 0.527519 0.083527 0.088002
C12   C     C_R   0.619673 0.518592 0.686899 0.789566
C13   C     C_R   0.325768 0.493052 0.034836 -0.181358
C14   C     C_R   0.385995 0.487711 0.133469 0.005820
C15   C     C_R   0.227783 0.516245 0.180673 -0.234809
C16   C     C_R   0.135445 0.963734 0.361721 -0.187079
C17   C     C_R   0.248368 0.161616 0.463244 -0.045683
C18   C     C_R   0.732633 0.922910 0.574492 -0.186331
C19   C     C_R   0.823627 0.040359 0.593409 -0.143664
C20   C     C_R   0.923588 0.074264 0.557039 -0.177783
C21   C     C_R   0.931586 0.990484 0.497056 0.079337
C22   C     C_R   0.828975 0.872389 0.467435 0.084745
C23   C     C_R   0.345299 0.285230 0.485008 0.837327
C24   C     C_R   0.037259 0.020150 0.464562 0.074121
C25   C     C_R   0.031814 0.935191 0.394566 0.166561
C26   C     C_R   0.921858 0.823524 0.356494 -0.239039
C27   C     C_R   0.821223 0.792884 0.391373 -0.199314
C28   C     C_R   0.149290 0.131588 0.500665 -0.203812
C29   C     C_R   0.243006 0.076902 0.395348 -0.188935
C30   C     C_R   0.736005 0.837668 0.513891 -0.100901
C31   C     C_R   0.255454 0.678299 0.670534 -0.304040
C32   C     C_R   0.650213 0.333794 0.369900 0.087846
C33   C     C_R   0.722187 0.284600 0.353826 -0.239067
C34   C     C_R   0.386280 0.488949 0.313561 0.809709
C35   C     C_R   0.856819 0.341491 0.409202 -0.206143
C36   C     C_R   0.924033 0.453219 0.476392 -0.022660
C37   C     C_R   0.843831 0.493722 0.497946 0.296952
C38   C     C_R   0.065822 0.521562 0.528544 -0.101904
C39   C     C_R   0.119949 0.615932 0.612767 0.171395
C40   C     C_R   0.038780 0.649224 0.637518 -0.287102
C41   C     C_R   0.904698 0.591925 0.579550 -0.191930
C42   C     C_R   0.157025 0.504231 0.498415 0.139757
C43   C     C_R   0.338726 0.650499 0.643056 0.030814
C44   C     C_R   0.693022 0.536982 0.795105 -0.055064
C45   C     C_R   0.333671 0.496569 0.207448 -0.147964
C46   C     C_R   0.730908 0.588539 0.972582 -0.149025
C47   C     C_R   0.656721 0.569119 0.870549 -0.185703
C48   C     C_R   0.804378 0.525768 0.822765 -0.256228
Cu1   Cu    Cu3+1 0.416420 0.526630 0.522910 0.966137
Cu2   Cu    Cu3+1 0.583580 0.473370 0.477090 0.921537
H1    H     H_    0.886026 0.618267 0.160574 0.137019
H2    H     H_    0.363903 0.485094 0.977595 0.163739
H3    H     H_    0.318950 0.099227 0.365261 0.148846
H4    H     H_    0.913736 0.759291 0.299780 0.133509
H5    H     H_    0.131520 0.899355 0.307950 0.136367
H6    H     H_    0.161821 0.197797 0.557578 0.145152
H7    H     H_    0.661097 0.898674 0.609355 0.154543
H8    H     H_    0.990923 0.166919 0.575138 0.135493
H9    H     H_    0.819158 0.105482 0.639301 0.147841
H10   H     H_    0.735963 0.706960 0.355703 0.157459
H11   H     H_    0.442785 0.697680 0.688851 0.128578
H12   H     H_    0.188254 0.519989 0.236707 0.154051
H13   H     H_    0.079864 0.722369 0.701364 0.157676
H14   H     H_    0.296984 0.748681 0.736822 0.145650
H15   H     H_    0.545034 0.287789 0.328822 0.133297
H16   H     H_    0.904348 0.292808 0.402127 0.186054
H17   H     H_    0.672943 0.200244 0.301031 0.155116
H18   H     H_    0.851390 0.625234 0.603461 0.205315
H19   H     H_    0.201141 0.508043 0.853925 0.147890
H20   H     H_    0.700406 0.611719 0.029930 0.149802
H21   H     H_    0.570939 0.578595 0.850829 0.150498
H22   H     H_    0.825476 0.495061 0.762905 0.160332
H23   H     H_    0.074558 0.597367 0.210873 0.131888
H24   H     H_    0.017675 0.535516 0.805345 0.153642
N1    N     N_R   0.290690 0.566960 0.557640 -0.195069
N2    N     N_R   0.709100 0.433710 0.442970 -0.215701
O1    O     O_R   0.545970 0.684450 0.528810 -0.583873
O2    O     O_R   0.687130 0.639470 0.490120 -0.606710
O3    O     O_R   0.519670 0.535100 0.660030 -0.589825
O4    O     O_R   0.660830 0.490120 0.621340 -0.598316
O5    O     O_R   0.312870 0.360530 0.509880 -0.526732
O6    O     O_R   0.454030 0.315550 0.471190 -0.595315
O7    O     O_R   0.339170 0.509880 0.378660 -0.554725
O8    O     O_R   0.480330 0.464900 0.339970 -0.611360
C49   C     C_2   0.109427 0.436229 0.394157 0.396136
H25   H     H_    0.060436 0.461305 0.331387 0.024761
O9    O     O_2   0.111501 0.346152 0.377235 -0.537368
C50   C     C_2   0.505034 0.477496 0.155359 0.330915
H26   H     H_    0.586538 0.521438 0.227980 0.091182
O10   O     O_2   0.515200 0.422103 0.090161 -0.553560

loop_
_geom_bond_atom_site_label_1
_geom_bond_atom_site_label_2
_ccdc_geom_bond_type
C23   O6    A    
C1    O1    A    
C35   C36   A    
C4    C8    A    
C28   H6    S    
Cu2   O8    S    
C49   H25   S    
C43   H11   S    
C42   N1    A    
C17   C23   S    
C40   H13   S    
C31   C43   A    
C36   C37   A    
C9    H19   S    
C5    C11   A    
C3    C7    A    
C27   H10   S    
C38   C39   A    
C12   O3    A    
C26   H4    S    
C17   C29   A    
C18   C19   A    
Cu1   O5    S    
C11   C15   A    
C19   C20   A    
Cu1   O1    S    
C8    C9    A    
Cu1   N1    S    
C18   C30   A    
C41   H18   S    
C23   O5    A    
C9    C10   A    
C44   C47   A    
C13   C14   A    
C1    O2    A    
C34   O8    A    
C48   H22   S    
Cu2   O2    S    
C14   C45   A    
C49   O9    D    
C43   N1    A    
C24   C25   A    
C39   C40   A    
C34   C45   S    
C35   H16   S    
C2    C48   A    
C25   C26   A    
Cu1   O3    S    
C2    C4    A    
Cu2   N2    S    
C13   H2    S    
C18   H7    S    
C8    H24   S    
C26   C27   A    
C42   C49   S    
C50   H26   S    
C47   H21   S    
C40   C41   A    
C37   N2    A    
C50   O10   D    
C22   C27   A    
C34   O7    A    
C15   C45   A    
C20   H8    S    
Cu2   O6    S    
C6    H23   S    
C16   C25   A    
C46   C47   A    
C22   C30   A    
C17   C28   A    
C31   H14   S    
C24   C28   A    
C4    C5    A    
C10   C13   A    
Cu2   O4    S    
C32   N2    A    
C38   C42   A    
C6    C7    A    
C3    C46   A    
C19   H9    S    
C32   C33   A    
Cu1   O7    S    
C36   C38   A    
C2    C3    A    
C16   C29   A    
C16   H5    S    
C14   C50   S    
C12   C44   S    
C33   H17   S    
C5    C6    A    
C29   H3    S    
C12   O4    A    
C1    C30   S    
C33   C35   A    
C15   H12   S    
C31   C39   A    
C37   C41   A    
C46   H20   S    
C10   C11   A    
C7    H1    S    
C20   C21   A    
Cu1   Cu2   S    
C21   C24   A    
C21   C22   A    
C44   C48   A    
C32   H15   S    
