data_mof_unit_27650.cif
_audit_creation_date              2012-12-10T20:36:34-0500
_audit_creation_method            fapswitch 2.2
_symmetry_space_group_name_H-M    P1
_symmetry_Int_Tables_number       1
_space_group_crystal_system       triclinic
_cell_length_a                    10.498524
_cell_length_b                    10.665749
_cell_length_c                    9.871007
_cell_angle_alpha                 89.992925
_cell_angle_beta                  89.542706
_cell_angle_gamma                 90.071959
_cell_volume                      1105.2661904

loop_
_atom_site_label
_atom_site_type_symbol
_atom_type_description
_atom_site_fract_x
_atom_site_fract_y
_atom_site_fract_z
_atom_type_partial_charge
C1    C     C_R   0.503659 0.259985 0.500070 0.878713
C2    C     C_3   0.960495 0.499953 0.369814 -0.189457
C3    C     C_3   0.042807 0.398654 0.438652 -0.202038
C4    C     C_3   0.122530 0.503585 0.500974 -0.066614
C5    C     C_R   0.514230 0.063760 0.623296 0.140038
C6    C     C_R   0.523114 0.128534 0.501195 -0.106102
C7    C     C_R   0.555855 0.064878 0.381580 -0.228864
C8    C     C_R   0.556217 0.935165 0.381592 -0.233868
C9    C     C_R   0.523623 0.871344 0.501162 -0.108181
C10   C     C_R   0.514447 0.935981 0.623252 0.127340
C11   C     C_3   0.415015 0.928372 0.732289 -0.476367
C12   C     C_R   0.257426 0.501097 0.500474 0.876981
C13   C     C_3   0.414767 0.070482 0.732369 -0.493903
C14   C     C_R   0.437044 0.408417 0.071829 0.219650
C15   C     C_R   0.571382 0.583570 0.071336 -0.138150
C16   C     C_R   0.571329 0.583633 0.927374 -0.135961
C17   C     C_R   0.436934 0.408499 0.929310 0.218525
C18   C     C_3   0.297546 0.382075 0.925429 -0.520530
C19   C     C_3   0.297908 0.381221 0.079181 -0.512233
C20   C     C_R   0.503946 0.739959 0.500003 0.864231
C21   C     C_R   0.742548 0.500793 0.499430 0.868851
C22   C     C_3   0.039268 0.506573 0.629379 -0.186768
C23   C     C_3   0.957099 0.401694 0.566591 -0.191270
C24   C     C_3   0.877380 0.503148 0.498389 -0.058964
C25   C     C_3   0.957583 0.607758 0.560439 0.189940
C26   C     C_3   0.042273 0.604684 0.432701 0.184805
H1    H     H_    0.917543 0.318897 0.620681 0.145949
H2    H     H_    0.452863 0.887286 0.827329 0.203892
H3    H     H_    0.323706 0.111610 0.696570 0.197660
H4    H     H_    0.452435 0.111591 0.827510 0.203214
H5    H     H_    0.627094 0.652607 0.125150 0.140550
H6    H     H_    0.626893 0.652788 0.872621 0.140009
H7    H     H_    0.242570 0.461422 0.882704 0.213404
H8    H     H_    0.276213 0.288924 0.880605 0.198471
H9    H     H_    0.242059 0.459347 0.124650 0.218700
H10   H     H_    0.277999 0.287241 0.123246 0.198594
H11   H     H_    0.073961 0.509575 0.735072 0.143577
H12   H     H_    0.924348 0.496926 0.264452 0.152689
H13   H     H_    0.082553 0.313510 0.389401 0.143988
H14   H     H_    0.572773 0.114222 0.287175 0.169982
H15   H     H_    0.573408 0.885906 0.287222 0.166759
H16   H     H_    0.324095 0.886695 0.696447 0.201539
N1    N     N_R   0.499140 0.499140 0.142800 -0.107126
N2    N     N_R   0.499140 0.499180 0.857150 -0.105363
O1    O     O_R   0.500020 0.316790 0.614690 -0.614057
O2    O     O_R   0.500000 0.316760 0.385350 -0.621781
O3    O     O_R   0.313960 0.499990 0.614650 -0.621341
O4    O     O_R   0.313940 0.499950 0.385310 -0.627857
O5    O     O_R   0.500000 0.683240 0.614650 -0.620837
O6    O     O_R   0.499980 0.683210 0.385310 -0.626241
O7    O     O_R   0.686060 0.500050 0.614690 -0.628305
O8    O     O_R   0.686040 0.500010 0.385350 -0.623719
Zn1   Zn    Zn3+2 0.500010 0.500020 0.653130 0.934069
Zn2   Zn    Zn3+2 0.499990 0.499980 0.346870 0.931017
C27   C     C_3   0.900013 0.720511 0.634960 -0.403871
C28   C     C_3   0.002342 0.807773 0.690409 -0.894976
H17   H     H_    0.068890 0.755339 0.756421 0.256807
H18   H     H_    0.056702 0.852436 0.606658 0.260992
H19   H     H_    0.956555 0.882975 0.751344 0.251597
H20   H     H_    0.836532 0.773066 0.565864 0.197073
H21   H     H_    0.841109 0.685619 0.721027 0.211142
C29   C     C_3   0.099721 0.713672 0.351574 -0.399414
C30   C     C_3   0.997286 0.797504 0.290971 -0.890347
H22   H     H_    0.930933 0.741464 0.228066 0.254082
H23   H     H_    0.942750 0.846028 0.371945 0.264871
H24   H     H_    0.042989 0.869765 0.225714 0.251837
H25   H     H_    0.163070 0.769929 0.417483 0.196410
H26   H     H_    0.158680 0.674710 0.267694 0.216555

loop_
_geom_bond_atom_site_label_1
_geom_bond_atom_site_label_2
_ccdc_geom_bond_type
C8    C9    A    
C4    C26   S    
C23   C24   S    
C30   H23   S    
C15   H5    S    
C29   C30   S    
C22   H11   S    
C23   H1    S    
C16   H6    S    
C4    C22   S    
C9    C10   A    
C2    H12   S    
N1    Zn2   S    
C5    C13   S    
C28   H19   S    
C29   H26   S    
N2    Zn1   S    
C12   O4    A    
O2    Zn2   S    
C27   C28   S    
C17   C18   S    
C26   C29   S    
C30   H24   S    
C15   N1    A    
C5    C10   A    
C2    C26   S    
C19   H9    S    
C27   H20   S    
C8    H15   S    
O4    Zn2   S    
C11   C13   S    
C14   C17   A    
C1    O1    A    
C20   O5    A    
C29   H25   S    
C12   O3    A    
O5    Zn1   S    
O3    Zn1   S    
C11   H2    S    
C13   H3    S    
C25   C27   S    
C28   H18   S    
C2    C3    S    
C6    C7    A    
C19   H10   S    
C18   H8    S    
C2    C24   S    
C5    C6    A    
C18   H7    S    
C1    O2    A    
C17   N2    A    
C21   O7    A    
C4    C12   S    
C10   C11   S    
O1    Zn1   S    
C15   C16   A    
C27   H21   S    
C13   H4    S    
O6    Zn2   S    
C24   C25   S    
C3    C4    S    
C11   H16   S    
C7    C8    A    
C21   C24   S    
C28   H17   S    
C16   N2    A    
C22   C23   S    
C18   C19   S    
C20   O6    A    
C9    C20   S    
C25   C26   S    
C30   H22   S    
C7    H14   S    
C3    C23   S    
C14   C19   S    
C21   O8    A    
C3    H13   S    
C1    C6    S    
O8    Zn2   S    
C14   N1    A    
O7    Zn1   S    
C22   C25   S    
