data_mof_unit_52572.cif
_audit_creation_date              2012-12-11T16:52:18-0500
_audit_creation_method            fapswitch 2.2
_symmetry_space_group_name_H-M    P1
_symmetry_Int_Tables_number       1
_space_group_crystal_system       triclinic
_cell_length_a                    7.242129
_cell_length_b                    25.83258
_cell_length_c                    28.870558
_cell_angle_alpha                 89.998374
_cell_angle_beta                  90.090402
_cell_angle_gamma                 90.061261
_cell_volume                      5401.17723204

loop_
_atom_site_label
_atom_site_type_symbol
_atom_type_description
_atom_site_fract_x
_atom_site_fract_y
_atom_site_fract_z
_atom_type_partial_charge
O1    O     O_R   0.601030 0.796770 0.202460 -0.543827
O2    O     O_R   0.398970 0.203230 0.797540 -0.544900
O3    O     O_R   0.398970 0.203230 0.702460 -0.543904
O4    O     O_R   0.601030 0.796770 0.297540 -0.545020
O5    O     O_R   0.101030 0.703230 0.297540 -0.543946
O6    O     O_R   0.898970 0.296770 0.702460 -0.544914
O7    O     O_R   0.898970 0.296770 0.797540 -0.543707
O8    O     O_R   0.101030 0.703230 0.202460 -0.545191
O9    O     O_R   0.271290 0.802910 0.297210 -0.525797
O10   O     O_R   0.728710 0.197090 0.702790 -0.524761
O11   O     O_R   0.728710 0.197090 0.797210 -0.525860
O12   O     O_R   0.271290 0.802910 0.202790 -0.524833
O13   O     O_R   0.771290 0.697090 0.202790 -0.524944
O14   O     O_R   0.228710 0.302910 0.797210 -0.525109
O15   O     O_R   0.228710 0.302910 0.702790 -0.525945
O16   O     O_R   0.771290 0.697090 0.297210 -0.524863
C1    C     C_R   0.439891 0.815077 0.312392 0.747489
C2    C     C_R   0.560133 0.184958 0.687568 0.752516
C3    C     C_R   0.560285 0.184922 0.812399 0.747507
C4    C     C_R   0.439690 0.815041 0.187560 0.752336
C5    C     C_R   0.939558 0.684898 0.187606 0.747456
C6    C     C_R   0.060467 0.315028 0.812454 0.752579
C7    C     C_R   0.060216 0.315078 0.687599 0.747673
C8    C     C_R   0.939771 0.684943 0.312425 0.751925
O17   O     O_3   0.434520 0.717290 0.250000 -0.377630
O18   O     O_3   0.565480 0.282710 0.750000 -0.377857
O19   O     O_3   0.934520 0.782710 0.250000 -0.377846
O20   O     O_3   0.065480 0.217290 0.750000 -0.377825
V1    V     V_3+5 0.159680 0.756060 0.250000 1.504666
V2    V     V_3+5 0.840320 0.243940 0.750000 1.504956
V3    V     V_3+5 0.659680 0.743940 0.250000 1.505952
V4    V     V_3+5 0.340320 0.256060 0.750000 1.504698
C9    C     C_R   0.991422 0.338763 0.605731 -0.264531
C10   C     C_R   0.012854 0.662527 0.394265 -0.277000
C11   C     C_R   0.012409 0.660820 0.106104 -0.264932
C12   C     C_R   0.989946 0.336922 0.894478 -0.275117
C13   C     C_R   0.491693 0.161171 0.894218 -0.264726
C14   C     C_R   0.513378 0.837463 0.105798 -0.277023
C15   C     C_R   0.508878 0.838842 0.394237 -0.264510
C16   C     C_R   0.485839 0.162501 0.605793 -0.277162
H1    H     H_    0.955370 0.298756 0.598965 0.130174
H2    H     H_    0.053543 0.702380 0.400056 0.129522
H3    H     H_    0.052720 0.700559 0.099608 0.130863
H4    H     H_    0.949942 0.296995 0.900135 0.128729
H5    H     H_    0.455668 0.201155 0.900973 0.129992
H6    H     H_    0.554765 0.797676 0.100122 0.129758
H7    H     H_    0.544825 0.798853 0.401028 0.130206
H8    H     H_    0.444367 0.202282 0.600086 0.129675
C17   C     C_R   0.980536 0.374888 0.569674 -0.128084
C18   C     C_R   0.021021 0.627381 0.431107 -0.066719
C19   C     C_R   0.022568 0.624699 0.070046 -0.128335
C20   C     C_R   0.982692 0.371831 0.931500 -0.068892
C21   C     C_R   0.480802 0.125023 0.930252 -0.128483
C22   C     C_R   0.521370 0.872557 0.068917 -0.066678
C23   C     C_R   0.519779 0.874993 0.430273 -0.128048
C24   C     C_R   0.477849 0.127403 0.568912 -0.066708
H9    H     H_    0.937229 0.362023 0.535643 0.152707
H10   H     H_    0.065882 0.641065 0.464748 0.148101
H11   H     H_    0.069501 0.637349 0.036291 0.156842
H12   H     H_    0.939551 0.357826 0.965137 0.141322
H13   H     H_    0.437528 0.137849 0.964255 0.152431
H14   H     H_    0.566712 0.858878 0.035360 0.148616
H15   H     H_    0.563010 0.862171 0.464316 0.152653
H16   H     H_    0.432395 0.141069 0.535323 0.148516
C25   C     C_R   0.022875 0.427300 0.577475 0.132560
C26   C     C_R   0.971301 0.575211 0.424763 0.183485
C27   C     C_R   0.975494 0.572541 0.077554 0.132129
C28   C     C_R   0.031069 0.424128 0.925307 0.186027
C29   C     C_R   0.523033 0.072634 0.922458 0.132850
C30   C     C_R   0.470942 0.924664 0.075118 0.183017
C31   C     C_R   0.477504 0.927377 0.422438 0.132563
C32   C     C_R   0.528523 0.075315 0.575149 0.183153
C33   C     C_R   0.080363 0.442473 0.622027 -0.166118
C34   C     C_R   0.910296 0.559338 0.380670 -0.169152
C35   C     C_R   0.911995 0.557803 0.121659 -0.163917
C36   C     C_R   0.091625 0.440234 0.881299 -0.168159
C37   C     C_R   0.580487 0.057515 0.877944 -0.166292
C38   C     C_R   0.409131 0.940485 0.119098 -0.169750
C39   C     C_R   0.420136 0.942501 0.377875 -0.166288
C40   C     C_R   0.590429 0.059503 0.619171 -0.169703
H17   H     H_    0.110322 0.482869 0.628754 0.125845
H18   H     H_    0.875157 0.519086 0.374911 0.138516
H19   H     H_    0.877158 0.517652 0.128083 0.134645
H20   H     H_    0.126937 0.480514 0.875768 0.136443
H21   H     H_    0.610346 0.017135 0.871218 0.125675
H22   H     H_    0.373474 0.980687 0.124779 0.138795
H23   H     H_    0.390249 0.982879 0.371125 0.125634
H24   H     H_    0.626251 0.019311 0.624874 0.138743
C41   C     C_R   0.097646 0.405938 0.658194 0.345440
C42   C     C_R   0.895463 0.595006 0.343722 0.346829
C43   C     C_R   0.894995 0.594417 0.157763 0.343357
C44   C     C_R   0.105720 0.404788 0.844170 0.347913
C45   C     C_R   0.597816 0.094078 0.841808 0.345373
C46   C     C_R   0.394091 0.904832 0.156044 0.347593
C47   C     C_R   0.402826 0.905938 0.341731 0.345462
C48   C     C_R   0.605454 0.095159 0.656121 0.347516
C49   C     C_R   0.050695 0.353845 0.650004 -0.057831
C50   C     C_R   0.949021 0.646843 0.350579 -0.060213
C51   C     C_R   0.948330 0.646115 0.150006 -0.057922
C52   C     C_R   0.052036 0.352924 0.850780 -0.060577
C53   C     C_R   0.550910 0.146142 0.849982 -0.057716
C54   C     C_R   0.448729 0.853095 0.149362 -0.060596
C55   C     C_R   0.449659 0.853872 0.349955 -0.057791
C56   C     C_R   0.550695 0.146885 0.649393 -0.060536
C57   C     C_R   0.156215 0.499057 0.528859 0.256775
C58   C     C_R   0.832263 0.504828 0.474502 0.282368
C59   C     C_R   0.841869 0.501443 0.028180 0.257031
C60   C     C_R   0.169601 0.494234 0.975508 0.290060
C61   C     C_R   0.656022 0.000853 0.971119 0.256454
C62   C     C_R   0.332137 0.995011 0.025249 0.282163
C63   C     C_R   0.344019 0.999064 0.470993 0.256804
C64   C     C_R   0.667845 0.005068 0.525387 0.282182
C65   C     C_R   0.146140 0.534181 0.490892 0.207397
C66   C     C_R   0.840800 0.470352 0.512642 0.205673
C67   C     C_R   0.856212 0.464627 0.991644 0.197903
C68   C     C_R   0.159520 0.529029 0.013434 0.185283
C69   C     C_R   0.645828 0.965708 0.009067 0.207626
C70   C     C_R   0.340814 0.029499 0.987124 0.205774
C71   C     C_R   0.353936 0.034195 0.508958 0.207522
C72   C     C_R   0.659415 0.970577 0.487259 0.205484
C73   C     C_R   0.983151 0.537471 0.464195 -0.077162
C74   C     C_R   0.005742 0.466192 0.539129 -0.114358
C75   C     C_R   0.018211 0.461941 0.964648 -0.076666
C76   C     C_R   0.993917 0.533314 0.039493 -0.099941
C77   C     C_R   0.482881 0.962392 0.035668 -0.077025
C78   C     C_R   0.505740 0.033705 0.960763 -0.114593
C79   C     C_R   0.516857 0.037598 0.535686 -0.077039
C80   C     C_R   0.494534 0.966296 0.460761 -0.114475
O21   O     O_3   0.156178 0.420413 0.701817 -0.622085
H25   H     H_    0.183672 0.458028 0.701780 0.294441
O22   O     O_3   0.832563 0.579908 0.300652 -0.620479
H26   H     H_    0.800615 0.542586 0.301624 0.296206
O23   O     O_3   0.830760 0.580356 0.200943 -0.621399
H27   H     H_    0.799275 0.542988 0.200638 0.295004
O24   O     O_3   0.168098 0.420131 0.801172 -0.620268
H28   H     H_    0.200234 0.457435 0.802328 0.296038
O25   O     O_3   0.656296 0.079653 0.798226 -0.622136
H29   H     H_    0.683769 0.042053 0.798270 0.294226
O26   O     O_3   0.329885 0.919858 0.198949 -0.620094
H30   H     H_    0.297192 0.957107 0.197859 0.295839
O27   O     O_3   0.344349 0.920359 0.298100 -0.622143
H31   H     H_    0.316920 0.957962 0.298114 0.294239
O28   O     O_3   0.669840 0.080152 0.699066 -0.620110
H32   H     H_    0.702610 0.042909 0.698003 0.295869
O29   O     O_3   0.313188 0.495209 0.555779 -0.626901
H33   H     H_    0.358499 0.530727 0.562054 0.287441
O30   O     O_3   0.674962 0.508944 0.447499 -0.638016
H34   H     H_    0.587479 0.480738 0.455048 0.348308
O31   O     O_3   0.679294 0.508823 0.052353 -0.635873
H35   H     H_    0.575285 0.492811 0.035470 0.329852
O32   O     O_3   0.329513 0.488831 0.949743 -0.626186
H36   H     H_    0.421253 0.515335 0.958892 0.350742
O33   O     O_3   0.813002 0.004756 0.944326 -0.626673
H37   H     H_    0.857566 0.969236 0.937882 0.287125
O34   O     O_3   0.174802 0.990861 0.052121 -0.638163
H38   H     H_    0.087574 0.019093 0.044549 0.348470
O35   O     O_3   0.187113 0.995097 0.444055 -0.626832
H39   H     H_    0.142156 0.030594 0.437642 0.287170
O36   O     O_3   0.825160 0.009311 0.552379 -0.637969
H40   H     H_    0.912482 0.981088 0.544918 0.348352
O37   O     O_3   0.295193 0.564133 0.477420 -0.633944
H41   H     H_    0.409205 0.551759 0.492520 0.334141
O38   O     O_3   0.683628 0.442593 0.523784 -0.629286
H42   H     H_    0.685475 0.433984 0.557179 0.319239
O39   O     O_3   0.711781 0.431921 0.980722 -0.627728
H43   H     H_    0.656516 0.419497 0.010065 0.293816
O40   O     O_3   0.314243 0.557986 0.024230 -0.643686
H44   H     H_    0.314507 0.565621 0.057826 0.316092
O41   O     O_3   0.794756 0.935780 0.022632 -0.633936
H45   H     H_    0.908602 0.947905 0.007347 0.334308
O42   O     O_3   0.183776 0.057230 0.975873 -0.629117
H46   H     H_    0.185582 0.065816 0.942474 0.319192
O43   O     O_3   0.204771 0.064026 0.522409 -0.633933
H47   H     H_    0.090967 0.051753 0.507105 0.334238
O44   O     O_3   0.816640 0.942924 0.476141 -0.629237
H48   H     H_    0.814837 0.934288 0.442751 0.319368

loop_
_geom_bond_atom_site_label_1
_geom_bond_atom_site_label_2
_ccdc_geom_bond_type
O17   V3    S    
O42   H46   S    
C65   C73   A    
O18   V4    S    
O35   H39   S    
C64   O36   S    
O12   V1    S    
O19   V1    S    
O41   H45   S    
C29   C37   A    
O38   H42   S    
C10   H2    S    
C21   C29   A    
C27   C76   S    
C36   H20   S    
C39   H23   S    
O29   H33   S    
C61   C69   A    
O15   V4    S    
O43   H47   S    
O16   V3    S    
O11   C3    A    
O39   H43   S    
C17   C25   A    
C58   C66   A    
C8    C50   S    
O8    V1    S    
C57   C65   A    
C30   C38   A    
C38   C46   A    
C5    C51   S    
C4    C54   S    
O6    C7    A    
C9    C17   A    
O28   H32   S    
C26   C34   A    
O1    V3    S    
C17   H9    S    
O3    C2    A    
O2    V4    S    
C33   H17   S    
C64   C79   A    
C62   O34   S    
C20   H12   S    
C21   H13   S    
C15   C23   A    
O30   H34   S    
O11   V2    S    
C16   C24   A    
C23   H15   S    
O32   H36   S    
C24   H16   S    
C68   O40   S    
C40   C48   A    
C61   O33   S    
C67   O39   S    
C12   C20   A    
O9    V1    S    
C13   C21   A    
C38   H22   S    
O15   C7    A    
C37   H21   S    
C14   C22   A    
O16   C8    A    
O7    V2    S    
O14   C6    A    
C46   O26   S    
C62   C70   A    
C59   C76   A    
C34   H18   S    
C11   C51   A    
C28   C75   S    
C31   C39   A    
C47   C55   A    
O37   H41   S    
O5    V1    S    
C10   C18   A    
C6    C52   S    
C32   C79   S    
C18   H10   S    
O24   H28   S    
C67   C75   A    
C25   C33   A    
C45   C53   A    
O40   H44   S    
C64   C72   A    
C44   C52   A    
C19   C27   A    
C22   H14   S    
C24   C32   A    
C58   O30   S    
C32   C40   A    
C41   C49   A    
C59   O31   S    
C39   C47   A    
C16   C56   A    
C60   O32   S    
O10   V2    S    
C72   O44   S    
O36   H40   S    
C22   C30   A    
C57   O29   S    
O12   C4    A    
O8    C5    A    
C26   C73   S    
O13   C5    A    
C12   C52   A    
C2    C56   S    
C25   C74   S    
C18   C26   A    
C59   C67   A    
C43   O23   S    
C36   C44   A    
O4    C1    A    
C63   C71   A    
O9    C1    A    
C7    C49   S    
C29   C78   S    
C47   O27   S    
C48   C56   A    
C11   C19   A    
O23   H27   S    
C31   C80   S    
C12   H4    S    
C44   O24   S    
C19   H11   S    
C42   O22   S    
C60   C75   A    
C13   H5    S    
O22   H26   S    
C63   C80   A    
C11   H3    S    
C30   C77   S    
C15   H7    S    
O21   H25   S    
C16   H8    S    
O1    C4    A    
C68   C76   A    
O6    V2    S    
O2    C3    A    
O13   V3    S    
O14   V4    S    
C20   C28   A    
O26   H30   S    
C72   C80   A    
C15   C55   A    
C35   C43   A    
C28   C36   A    
O7    C6    A    
O25   H29   S    
C9    H1    S    
C60   C68   A    
O20   V2    S    
C1    C55   S    
C33   C41   A    
C14   C54   A    
O44   H48   S    
O31   H35   S    
C71   O43   S    
C48   O28   S    
C13   C53   A    
C3    C53   S    
C35   H19   S    
C66   O38   S    
O5    C8    A    
C70   O42   S    
O10   C2    A    
C34   C42   A    
C58   C73   A    
C37   C45   A    
C10   C50   A    
C57   C74   A    
C9    C49   A    
C63   O35   S    
O3    V4    S    
C14   H6    S    
O4    V3    S    
C45   O25   S    
C62   C77   A    
C65   O37   S    
C66   C74   A    
C69   O41   S    
C61   C78   A    
C27   C35   A    
C46   C54   A    
C40   H24   S    
O34   H38   S    
C70   C78   A    
C43   C51   A    
O33   H37   S    
O27   H31   S    
C41   O21   S    
C69   C77   A    
C42   C50   A    
C23   C31   A    
C71   C79   A    
