data_mof_unit_16334.cif
_audit_creation_date              2012-10-26T19:04:40-0400
_audit_creation_method            fapswitch 2.2
_symmetry_space_group_name_H-M    P1
_symmetry_Int_Tables_number       1
_space_group_crystal_system       triclinic
_cell_length_a                    9.668183
_cell_length_b                    10.767399
_cell_length_c                    13.343698
_cell_angle_alpha                 92.542552
_cell_angle_beta                  73.667259
_cell_angle_gamma                 90.177494
_cell_volume                      1331.66148316

loop_
_atom_site_label
_atom_site_type_symbol
_atom_type_description
_atom_site_fract_x
_atom_site_fract_y
_atom_site_fract_z
_atom_type_partial_charge
C1    C     C_R   0.498702 0.737202 0.503706 0.533391
C2    C     C_R   0.386255 0.466026 0.814137 -0.047696
C3    C     C_R   0.289394 0.879170 0.670627 -0.107755
C4    C     C_R   0.424229 0.488870 0.699656 0.538567
C5    C     C_R   0.188535 0.948134 0.748260 -0.124638
C6    C     C_R   0.187932 0.077297 0.747852 -0.126247
C7    C     C_R   0.288208 0.138293 0.669850 -0.103750
C8    C     C_R   0.390238 0.070296 0.589322 0.030817
C9    C     C_R   0.390726 0.938917 0.589684 0.024494
C10   C     C_R   0.496262 0.871502 0.511048 0.001539
C11   C     C_R   0.602874 0.932757 0.437449 -0.149083
C12   C     C_R   0.459817 0.437885 0.974696 -0.001795
C13   C     C_R   0.602575 0.060801 0.437186 -0.155110
C14   C     C_R   0.495558 0.129598 0.510436 0.005642
C15   C     C_R   0.908242 0.332278 0.363955 -0.082721
C16   C     C_R   0.498596 0.263101 0.503136 0.518221
C17   C     C_R   0.003398 0.245581 0.301283 -0.177952
C18   C     C_R   0.144845 0.242921 0.303587 -0.165468
C19   C     C_R   0.192892 0.328959 0.366693 -0.074300
C20   C     C_R   0.099328 0.416661 0.434005 0.148040
C21   C     C_R   0.950627 0.417409 0.433393 0.160784
C22   C     C_R   0.901858 0.578377 0.563908 -0.012824
C23   C     C_R   0.495774 0.437985 0.864107 -0.013677
C24   C     C_R   0.049364 0.578538 0.563728 -0.005021
C25   C     C_R   0.577214 0.501506 0.300467 0.544090
C26   C     C_R   0.778380 0.572839 0.020875 0.313095
C27   C     C_R   0.622503 0.501929 0.185917 -0.029323
C28   C     C_R   0.244137 0.492712 0.878467 0.246682
C29   C     C_R   0.215784 0.501039 0.987417 0.161285
C30   C     C_R   0.318410 0.463388 0.034407 -0.182420
C31   C     C_3   0.556578 0.222767 0.199584 -0.315687
C32   C     C_3   0.129257 0.701591 0.058829 -0.204847
C33   C     C_R   0.571450 0.444903 0.023682 0.001895
C34   C     C_R   0.702784 0.494421 0.967257 -0.026871
C35   C     C_R   0.746384 0.468041 0.859357 -0.153782
C36   C     C_R   0.644718 0.424097 0.810493 -0.110645
C37   C     C_R   0.550045 0.425396 0.129764 0.081583
C38   C     C_R   0.731782 0.582350 0.130966 0.243400
Cu1   Cu    Cu3+1 0.359340 0.500010 0.500010 0.922935
Cu2   Cu    Cu3+1 0.640660 0.499990 0.499990 0.912078
H1    H     H_    0.288697 0.779321 0.676301 0.147672
H2    H     H_    0.304389 0.323591 0.359589 0.217973
H3    H     H_    0.856655 0.480395 0.813223 0.130704
H4    H     H_    0.083752 0.643063 0.616225 0.128588
H5    H     H_    0.292540 0.476067 0.118711 0.139213
H6    H     H_    0.685295 0.389472 0.730607 0.165481
H7    H     H_    0.685022 0.880984 0.378385 0.129933
H8    H     H_    0.726933 0.692646 0.251826 0.322384
H9    H     H_    0.878502 0.661210 0.896634 0.323890
H10   H     H_    0.402332 0.283812 0.134472 0.252034
H11   H     H_    0.634100 0.184110 0.126764 0.148793
H12   H     H_    0.111777 0.901156 0.809786 0.130649
H13   H     H_    0.485643 0.146817 0.237468 0.133803
H14   H     H_    0.616746 0.257746 0.254401 0.143552
H15   H     H_    0.123587 0.450620 0.791349 0.317120
H16   H     H_    0.049690 0.534369 0.121145 0.258185
H17   H     H_    0.033088 0.754630 0.105368 0.215589
H18   H     H_    0.165272 0.741522 0.980362 0.175017
H19   H     H_    0.215330 0.713811 0.098788 0.094336
H20   H     H_    0.110667 0.130608 0.809040 0.113597
H21   H     H_    0.286289 0.238690 0.674899 0.130438
H22   H     H_    0.684632 0.106422 0.377981 0.107387
H23   H     H_    0.827150 0.642712 0.616605 0.123000
H24   H     H_    0.802862 0.327971 0.354881 0.177771
H25   H     H_    0.966942 0.180212 0.250304 0.114958
H26   H     H_    0.218282 0.174422 0.255028 0.123788
N1    N     N_R   0.852480 0.498790 0.499000 -0.246516
N2    N     N_R   0.148360 0.498710 0.498970 -0.248298
N3    N     N_2   0.469908 0.320501 0.175383 -0.526645
N4    N     N_2   0.095556 0.570862 0.049221 -0.399789
O1    O     O_R   0.381190 0.680360 0.500010 -0.500784
O2    O     O_3   0.881180 0.655296 0.969828 -0.625225
O3    O     O_3   0.134022 0.522816 0.837299 -0.674473
O4    O     O_R   0.618760 0.680340 0.500000 -0.496331
O5    O     O_R   0.323240 0.499990 0.650990 -0.494181
O6    O     O_R   0.560820 0.499960 0.650980 -0.512883
O7    O     O_R   0.381240 0.319660 0.500000 -0.531721
O8    O     O_R   0.618810 0.319640 0.499990 -0.523452
O9    O     O_R   0.439180 0.500040 0.349020 -0.487911
O10   O     O_R   0.676760 0.500010 0.349010 -0.520482
O11   O     O_3   0.791909 0.673413 0.181135 -0.694090

loop_
_geom_bond_atom_site_label_1
_geom_bond_atom_site_label_2
_ccdc_geom_bond_type
C37   N3    S    
C25   O10   A    
C26   O2    S    
Cu1   N2    S    
C30   H5    S    
C11   H7    S    
C35   C36   A    
C32   H18   S    
C7    C8    A    
C12   C23   A    
C1    O1    A    
C1    O4    A    
Cu1   O7    S    
C28   C29   A    
H10   N3    S    
C34   C35   A    
C5    C6    A    
C27   C38   A    
H8    O11   S    
C18   C19   A    
C7    H21   S    
C4    O5    A    
C22   H23   S    
C26   C34   A    
C13   H22   S    
C19   C20   A    
C8    C9    A    
Cu2   N1    S    
C15   H24   S    
Cu2   O10   S    
C5    H12   S    
C36   H6    S    
Cu1   O5    S    
C35   H3    S    
C9    C10   A    
C16   O8    A    
C19   H2    S    
C13   C14   A    
C21   N1    A    
C32   H17   S    
C28   O3    S    
C17   C18   A    
C6    H20   S    
Cu1   Cu2   S    
C26   C38   A    
C32   N4    S    
H9    O2    S    
C33   C37   A    
Cu2   O6    S    
Cu1   O9    S    
C2    C4    S    
C29   C30   A    
C3    C9    A    
C15   C21   A    
C33   C34   A    
C31   H13   S    
Cu2   O8    S    
H16   N4    S    
C38   O11   S    
C24   H4    S    
C14   C16   S    
C25   C27   S    
C29   N4    S    
C15   C17   A    
C3    H1    S    
C8    C14   A    
C12   C30   A    
C25   O9    A    
C20   N2    A    
C1    C10   S    
C31   H11   S    
C3    C5    A    
C6    C7    A    
C18   H26   S    
C17   H25   S    
C11   C13   A    
C27   C37   A    
Cu2   O4    S    
C22   C24   A    
C31   H14   S    
C22   N1    A    
C4    O6    A    
C10   C11   A    
C24   N2    A    
H15   O3    S    
C31   N3    S    
C20   C21   A    
C23   C36   A    
C2    C23   A    
Cu1   O1    S    
C16   O7    A    
C2    C28   A    
C32   H19   S    
C12   C33   A    
