data_mof_unit_50007.cif
_audit_creation_date              2012-12-10T20:28:46-0500
_audit_creation_method            fapswitch 2.2
_symmetry_space_group_name_H-M    P1
_symmetry_Int_Tables_number       1
_space_group_crystal_system       triclinic
_cell_length_a                    10.716552
_cell_length_b                    10.686439
_cell_length_c                    9.939723
_cell_angle_alpha                 89.680531
_cell_angle_beta                  91.590308
_cell_angle_gamma                 91.620672
_cell_volume                      1137.40805983

loop_
_atom_site_label
_atom_site_type_symbol
_atom_type_description
_atom_site_fract_x
_atom_site_fract_y
_atom_site_fract_z
_atom_type_partial_charge
C1    C     C_R   0.501028 0.260482 0.499958 0.873400
C2    C     C_R   0.436053 0.934118 0.396976 -0.206140
C3    C     C_R   0.506380 0.871662 0.495702 -0.094042
C4    C     C_R   0.260026 0.488630 0.497917 0.860789
C5    C     C_R   0.590015 0.937809 0.580111 0.156140
C6    C     C_3   0.609011 0.931358 0.729481 -0.493187
C7    C     C_3   0.613609 0.073242 0.727381 -0.277844
C8    C     C_R   0.498083 0.390134 0.072493 0.268287
C9    C     C_R   0.501637 0.608820 0.071032 -0.121963
C10   C     C_R   0.499137 0.608688 0.927983 -0.081454
C11   C     C_R   0.496077 0.389999 0.929546 0.281793
C12   C     C_R   0.060540 0.445568 0.608824 0.109746
C13   C     C_3   0.386495 0.300452 0.928961 -0.540077
C14   C     C_3   0.395338 0.294829 0.080134 -0.504683
C15   C     C_R   0.500873 0.739544 0.499475 0.896975
C16   C     C_R   0.740323 0.511406 0.502098 0.889359
C17   C     C_R   0.108968 0.371489 0.713484 -0.137753
C18   C     C_R   0.059339 0.379335 0.841159 -0.201773
C19   C     C_R   0.974291 0.472724 0.866686 -0.043318
C20   C     C_R   0.913338 0.533060 0.756709 -0.165234
C21   C     C_R   0.945497 0.499321 0.624722 0.056250
C22   C     C_2   0.738039 0.131784 0.769115 1.000278
C23   C     C_R   0.125684 0.476894 0.492400 -0.131993
C24   C     C_2   0.968929 0.517741 0.005857 0.850339
C25   C     C_2   0.840751 0.647899 0.776517 1.023383
C26   C     C_R   0.062070 0.524522 0.379483 -0.150775
C27   C     C_R   0.935248 0.541683 0.384686 -0.131198
C28   C     C_R   0.875151 0.525627 0.506431 -0.110905
C29   C     C_R   0.592173 0.066413 0.578514 0.078605
C30   C     C_R   0.506735 0.128644 0.496250 -0.106554
C31   C     C_R   0.435241 0.063319 0.398167 -0.196578
H1    H     H_    0.110214 0.548806 0.288261 0.185579
H2    H     H_    0.099022 0.325309 0.923366 0.170447
H3    H     H_    0.373478 0.111465 0.328488 0.156313
H4    H     H_    0.376062 0.883284 0.325298 0.163487
H5    H     H_    0.525474 0.892746 0.780671 0.189548
H6    H     H_    0.698182 0.888890 0.761040 0.282651
H7    H     H_    0.831790 0.247262 0.898255 0.354261
H8    H     H_    0.984554 0.667788 0.130020 0.331575
H9    H     H_    0.745646 0.577267 0.932989 0.301912
H10   H     H_    0.883564 0.569199 0.295099 0.191967
H11   H     H_    0.534850 0.112803 0.779209 0.155417
H12   H     H_    0.503234 0.697166 0.123548 0.165912
H13   H     H_    0.498966 0.696711 0.874680 0.172379
H14   H     H_    0.302632 0.347691 0.891441 0.208356
H15   H     H_    0.400828 0.209223 0.882174 0.206637
H16   H     H_    0.311312 0.329731 0.129632 0.219879
H17   H     H_    0.429319 0.203890 0.118848 0.213215
H18   H     H_    0.187071 0.311856 0.697154 0.144532
N1    N     N_R   0.499160 0.499140 0.142800 -0.125537
N2    N     N_R   0.499160 0.499180 0.857150 -0.128245
O1    O     O_R   0.500020 0.316790 0.614690 -0.627954
O2    O     O_R   0.743403 0.217474 0.874815 -0.812674
O3    O     O_2   0.957707 0.442651 0.098105 -0.647593
O4    O     O_R   0.983817 0.646052 0.031246 -0.777720
O5    O     O_2   0.854146 0.736039 0.699096 -0.602407
O6    O     O_R   0.758899 0.658651 0.882162 -0.775684
O7    O     O_R   0.500000 0.316760 0.385350 -0.612232
O8    O     O_R   0.316770 0.500020 0.614690 -0.611163
O9    O     O_R   0.316760 0.499980 0.385350 -0.624752
O10   O     O_R   0.500000 0.683240 0.614650 -0.615875
O11   O     O_R   0.499980 0.683210 0.385310 -0.631642
O12   O     O_R   0.683240 0.500020 0.614650 -0.620958
O13   O     O_R   0.683230 0.499980 0.385310 -0.600921
O14   O     O_2   0.833333 0.104153 0.712481 -0.591964
Zn1   Zn    Zn3+2 0.500010 0.500020 0.653130 0.973917
Zn2   Zn    Zn3+2 0.499990 0.499980 0.346870 0.969460

loop_
_geom_bond_atom_site_label_1
_geom_bond_atom_site_label_2
_ccdc_geom_bond_type
C12   C17   A    
C16   C28   S    
C14   H17   S    
C22   O14   D    
C26   H1    S    
C29   C30   A    
C7    C29   S    
C16   O12   A    
C7    C22   S    
C9    H12   S    
C9    C10   A    
C27   H10   S    
C19   C20   A    
C25   O5    D    
C30   C31   A    
C4    O9    A    
C2    C3    A    
C15   O10   A    
C31   H3    S    
O1    Zn1   S    
C1    O7    A    
C24   O4    S    
C13   H14   S    
C11   C13   S    
C12   C23   A    
C26   C27   A    
C6    C7    S    
H7    O2    S    
C25   O6    S    
O11   Zn2   S    
C8    C11   A    
C10   N2    A    
C12   C21   A    
C4    O8    A    
C1    C30   S    
C1    O1    A    
C15   O11   A    
C6    H5    S    
C19   C24   S    
C22   O2    S    
C5    C29   A    
O8    Zn1   S    
C5    C6    S    
C18   H2    S    
O12   Zn1   S    
C11   N2    A    
C20   C25   S    
C24   O3    D    
O13   Zn2   S    
C8    N1    A    
O7    Zn2   S    
C3    C15   S    
C20   C21   A    
C17   C18   A    
C18   C19   A    
N1    Zn2   S    
C7    H11   S    
C17   H18   S    
C27   C28   A    
C23   C26   A    
C4    C23   S    
C13   H15   S    
C8    C14   S    
H9    O6    S    
C16   O13   A    
C13   C14   S    
C14   H16   S    
C10   H13   S    
O10   Zn1   S    
C21   C28   A    
C2    H4    S    
H8    O4    S    
C9    N1    A    
O9    Zn2   S    
C6    H6    S    
C2    C31   A    
C3    C5    A    
N2    Zn1   S    
