data_mof_unit_5417.cif
_audit_creation_date              2012-12-10T20:33:30-0500
_audit_creation_method            fapswitch 2.2
_symmetry_space_group_name_H-M    P1
_symmetry_Int_Tables_number       1
_space_group_crystal_system       triclinic
_cell_length_a                    14.149561
_cell_length_b                    10.670078
_cell_length_c                    9.857628
_cell_angle_alpha                 89.471707
_cell_angle_beta                  90.106604
_cell_angle_gamma                 90.167119
_cell_volume                      1488.20221293

loop_
_atom_site_label
_atom_site_type_symbol
_atom_type_description
_atom_site_fract_x
_atom_site_fract_y
_atom_site_fract_z
_atom_type_partial_charge
C1    C     C_R   0.502089 0.260221 0.500414 0.933083
C2    C     C_3   0.430687 0.067053 0.734116 -0.427129
C3    C     C_R   0.441156 0.421781 0.071929 0.132497
C4    C     C_R   0.329120 0.499763 0.499920 0.887669
C5    C     C_R   0.562666 0.570971 0.071871 -0.285293
C6    C     C_R   0.564273 0.570526 0.925780 0.516923
C7    C     C_R   0.440381 0.422965 0.929414 0.097294
C8    C     C_3   0.335096 0.426183 0.924259 0.300171
C9    C     C_3   0.335920 0.421834 0.078602 -0.564310
C10   C     C_R   0.500639 0.739705 0.499218 0.904743
C11   C     C_R   0.670886 0.500043 0.500086 0.903364
C12   C     C_1   0.772322 0.499939 0.500312 -0.203656
C13   C     C_1   0.227698 0.499585 0.499653 -0.221140
C14   C     C_1   0.142472 0.499556 0.499582 -0.031485
C15   C     C_1   0.042635 0.499666 0.499756 -0.010686
C16   C     C_1   0.957405 0.499735 0.500037 -0.005300
C17   C     C_1   0.857555 0.499833 0.500294 -0.018965
C18   C     C_3   0.601245 0.124348 0.184973 0.104292
C19   C     C_3   0.668556 0.212235 0.108575 -0.313220
C20   C     C_3   0.651754 0.208956 0.955855 -0.979041
C21   C     C_3   0.200321 0.325594 0.851137 0.085028
C22   C     C_3   0.162622 0.207021 0.783993 -0.338123
C23   C     C_R   0.440257 0.063252 0.583186 0.033400
C24   C     C_3   0.055328 0.210928 0.768625 -0.948204
C25   C     C_3   0.708755 0.681271 0.910044 0.071684
C26   C     C_3   0.703182 0.814935 0.964987 -0.381259
C27   C     C_3   0.792885 0.850445 0.041688 -0.945164
C28   C     C_R   0.502291 0.128120 0.498581 -0.188013
C29   C     C_R   0.555358 0.065607 0.399418 0.447958
C30   C     C_R   0.552892 0.935407 0.398513 -0.329903
C31   C     C_R   0.498473 0.871380 0.495231 -0.138717
C32   C     C_R   0.439003 0.935224 0.582211 0.107551
C33   C     C_3   0.429475 0.925184 0.732776 -0.479876
H1    H     H_    0.307239 0.508437 0.124718 0.184643
H2    H     H_    0.742753 0.184278 0.130010 0.223478
H3    H     H_    0.578920 0.240053 0.932033 0.264035
H4    H     H_    0.662323 0.112687 0.916941 0.263889
H5    H     H_    0.702209 0.273239 0.904038 0.271696
H6    H     H_    0.181724 0.407568 0.785666 0.144880
H7    H     H_    0.166124 0.335717 0.952150 0.143138
H8    H     H_    0.195220 0.197390 0.682091 0.224094
H9    H     H_    0.182286 0.123841 0.846515 0.220232
H10   H     H_    0.021164 0.217506 0.869645 0.262141
H11   H     H_    0.030385 0.123997 0.718744 0.267027
H12   H     H_    0.598804 0.884543 0.330573 0.164368
H13   H     H_    0.033991 0.292601 0.705229 0.271562
H14   H     H_    0.307991 0.332942 0.122804 0.213160
H15   H     H_    0.494047 0.106432 0.784902 0.215364
H16   H     H_    0.763995 0.680044 0.830112 0.168946
H17   H     H_    0.733099 0.612442 0.988182 0.116992
H18   H     H_    0.692878 0.881440 0.878814 0.227219
H19   H     H_    0.641659 0.824149 0.033788 0.206876
H20   H     H_    0.802888 0.787255 0.130734 0.265375
H21   H     H_    0.787025 0.948211 0.078202 0.269770
H22   H     H_    0.855335 0.843983 0.974036 0.265306
H23   H     H_    0.360349 0.884284 0.763610 0.193564
H24   H     H_    0.308411 0.515521 0.878806 0.076936
H25   H     H_    0.492399 0.882722 0.782824 0.231607
H26   H     H_    0.362272 0.107660 0.765926 0.240016
H27   H     H_    0.609161 0.630667 0.129524 0.163032
H28   H     H_    0.527146 0.154741 0.164713 0.146977
H29   H     H_    0.611291 0.027470 0.147187 0.129845
H30   H     H_    0.658516 0.309684 0.144742 0.238732
N1    N     N_R   0.499420 0.499140 0.142800 -0.108437
N2    N     N_R   0.499420 0.499180 0.857150 -0.163110
O1    O     O_R   0.500010 0.316790 0.614690 -0.607602
O2    O     O_3   0.299243 0.315500 0.865937 -0.628382
O3    O     O_3   0.622063 0.648759 0.847833 -0.612547
O4    O     O_R   0.500000 0.316760 0.385350 -0.594964
O5    O     O_R   0.373720 0.500020 0.614700 -0.598410
O6    O     O_R   0.373710 0.499980 0.385350 -0.598128
O7    O     O_R   0.500000 0.683240 0.614650 -0.577304
O8    O     O_R   0.499990 0.683210 0.385310 -0.623254
O9    O     O_R   0.626290 0.500020 0.614650 -0.562737
O10   O     O_R   0.626280 0.499980 0.385300 -0.605386
O11   O     O_3   0.622674 0.130580 0.324630 -0.636339
Zn1   Zn    Zn3+2 0.500010 0.500020 0.653130 0.985494
Zn2   Zn    Zn3+2 0.499990 0.499980 0.346870 0.940034

loop_
_geom_bond_atom_site_label_1
_geom_bond_atom_site_label_2
_ccdc_geom_bond_type
C8    C9    S    
C33   H25   S    
C30   H12   S    
C19   C20   S    
C4    O5    A    
C27   H21   S    
C7    C8    S    
C29   O11   S    
C3    N1    A    
C26   C27   S    
O7    Zn1   S    
C28   C29   A    
C3    C7    A    
C5    C6    A    
C10   O8    A    
C27   H22   S    
C22   H8    S    
C15   C16   T    
C18   C19   S    
C4    C13   S    
C25   H17   S    
C10   C31   S    
C6    N2    A    
C19   H30   S    
C16   C17   S    
O9    Zn1   S    
C12   C17   T    
C1    C28   S    
O8    Zn2   S    
C33   H23   S    
C6    O3    S    
C21   C22   S    
C21   O2    S    
O5    Zn1   S    
O4    Zn2   S    
C25   O3    S    
N2    Zn1   S    
C2    H26   S    
C18   H29   S    
C2    H15   S    
C25   C26   S    
C1    O4    A    
C5    N1    A    
C29   C30   A    
C3    C9    S    
C26   H19   S    
C8    H24   S    
C7    N2    A    
C20   H5    S    
C31   C32   A    
C21   H6    S    
C30   C31   A    
C1    O1    A    
C23   C28   A    
C2    C33   S    
C9    H14   S    
C9    H1    S    
C24   H11   S    
C22   C24   S    
O1    Zn1   S    
C18   O11   S    
C5    H27   S    
N1    Zn2   S    
C11   O9    A    
C11   C12   S    
C27   H20   S    
C18   H28   S    
C24   H13   S    
C32   C33   S    
C11   O10   A    
C26   H18   S    
C23   C32   A    
C20   H4    S    
C22   H9    S    
C21   H7    S    
C4    O6    A    
O10   Zn2   S    
C25   H16   S    
C20   H3    S    
C8    O2    S    
C2    C23   S    
C24   H10   S    
C14   C15   S    
C19   H2    S    
C13   C14   T    
O6    Zn2   S    
C10   O7    A    
