data_mof_unit_21888.cif
_audit_creation_date              2012-12-11T16:26:10-0500
_audit_creation_method            fapswitch 2.2
_symmetry_space_group_name_H-M    P1
_symmetry_Int_Tables_number       1
_space_group_crystal_system       triclinic
_cell_length_a                    14.044967
_cell_length_b                    14.051859
_cell_length_c                    31.600127
_cell_angle_alpha                 89.935596
_cell_angle_beta                  89.969225
_cell_angle_gamma                 120.203226
_cell_volume                      5389.89525329

loop_
_atom_site_label
_atom_site_type_symbol
_atom_type_description
_atom_site_fract_x
_atom_site_fract_y
_atom_site_fract_z
_atom_type_partial_charge
C1    C     C_R   0.564644 0.446559 0.809315 0.579610
C2    C     C_R   0.877172 0.432871 0.689310 0.576249
C3    C     C_R   0.555053 0.121580 0.810363 0.571303
C4    C     C_R   0.565657 0.446468 0.690169 0.578572
C5    C     C_R   0.877079 0.432836 0.810767 0.576062
C6    C     C_R   0.554813 0.121222 0.689782 0.570180
C7    C     C_R   0.447197 0.564467 0.309149 0.599059
C8    C     C_R   0.432280 0.876639 0.189287 0.586988
C9    C     C_R   0.123127 0.555877 0.310606 0.576854
C10   C     C_R   0.446349 0.566872 0.189719 0.592948
C11   C     C_R   0.432319 0.876368 0.310840 0.582241
C12   C     C_R   0.123079 0.555578 0.189521 0.583989
C13   C     C_1   0.964965 0.551334 0.022326 0.076743
C14   C     C_1   0.548614 0.956898 0.484487 0.098887
C15   C     C_1   0.471106 0.460807 0.018472 0.069771
C16   C     C_1   0.974481 0.560606 0.478862 0.085265
C17   C     C_1   0.566766 0.984864 0.017992 0.097018
C18   C     C_1   0.472679 0.467496 0.479691 0.067254
C19   C     C_1   0.557355 0.976161 0.521720 0.093381
C20   C     C_1   0.944887 0.539382 0.985122 0.094410
C21   C     C_1   0.472867 0.467540 0.517916 0.066151
C22   C     C_1   0.575954 0.003748 0.980716 0.100350
C23   C     C_1   0.954691 0.550266 0.516071 0.098558
C24   C     C_1   0.470336 0.461514 0.980262 0.063305
C25   C     C_R   0.928771 0.471275 0.853399 -0.036815
C26   C     C_R   0.535371 0.058237 0.649475 -0.040490
C27   C     C_R   0.519072 0.471749 0.847912 -0.017799
C28   C     C_R   0.929572 0.471531 0.646871 -0.038837
C29   C     C_R   0.538091 0.062303 0.851505 -0.041488
C30   C     C_R   0.523707 0.472097 0.650458 -0.019436
C31   C     C_R   0.468324 0.925236 0.353827 -0.036103
C32   C     C_R   0.070328 0.540071 0.147423 -0.030621
C33   C     C_R   0.474947 0.519332 0.347450 -0.005537
C34   C     C_R   0.469557 0.929529 0.147043 -0.031441
C35   C     C_R   0.069088 0.541452 0.352580 -0.044380
C36   C     C_R   0.473079 0.527664 0.149483 -0.011086
C37   C     C_R   0.954167 0.577301 0.867973 0.022413
C38   C     C_R   0.600922 0.010699 0.638782 0.051150
C39   C     C_R   0.413998 0.394900 0.864666 0.008641
C40   C     C_R   0.963735 0.580868 0.633555 0.025020
C41   C     C_R   0.607345 0.019537 0.862999 0.042498
C42   C     C_R   0.417781 0.398019 0.633696 0.007739
C43   C     C_R   0.578955 0.965549 0.366953 0.028613
C44   C     C_R   0.981005 0.558487 0.140994 0.039405
C45   C     C_R   0.400453 0.413776 0.364364 0.067065
C46   C     C_R   0.583011 0.983671 0.136028 0.050803
C47   C     C_R   0.999819 0.586123 0.360833 0.063478
C48   C     C_R   0.407112 0.417552 0.134915 0.067616
C49   C     C_R   0.952464 0.595545 0.911477 -0.095505
C50   C     C_R   0.607701 0.984553 0.596473 -0.076356
C51   C     C_R   0.397693 0.394705 0.908726 -0.108207
C52   C     C_R   0.965916 0.603652 0.590262 -0.088510
C53   C     C_R   0.620569 0.002750 0.905837 -0.078715
C54   C     C_R   0.401054 0.399555 0.589703 -0.107258
C55   C     C_R   0.603056 0.971468 0.410226 -0.095667
C56   C     C_R   0.949056 0.565947 0.099488 -0.086810
C57   C     C_R   0.401304 0.396961 0.408263 -0.075721
C58   C     C_R   0.613408 0.998755 0.093207 -0.075184
C59   C     C_R   0.969150 0.592102 0.402602 -0.072970
C60   C     C_R   0.407094 0.395273 0.091434 -0.078385
C61   C     C_R   0.933477 0.513587 0.940717 -0.018566
C62   C     C_R   0.549804 0.003209 0.564912 -0.020702
C63   C     C_R   0.480481 0.473162 0.934699 -0.013550
C64   C     C_R   0.939958 0.521780 0.560184 -0.014821
C65   C     C_R   0.565196 0.025632 0.937148 -0.019816
C66   C     C_R   0.484588 0.476782 0.563499 -0.009645
C67   C     C_R   0.520003 0.938109 0.440465 -0.011283
C68   C     C_R   0.003491 0.553854 0.064649 -0.004104
C69   C     C_R   0.481638 0.478573 0.434084 -0.015892
C70   C     C_R   0.533748 0.961229 0.061503 -0.008751
C71   C     C_R   0.008172 0.557254 0.436287 -0.008064
C72   C     C_R   0.482354 0.475913 0.063855 -0.014030
C73   C     C_R   0.925617 0.414245 0.927105 0.039879
C74   C     C_R   0.476485 0.040429 0.575369 0.042824
C75   C     C_R   0.572419 0.564715 0.916238 0.038235
C76   C     C_R   0.920336 0.416940 0.572603 0.040440
C77   C     C_R   0.487488 0.056864 0.926154 0.042340
C78   C     C_R   0.579640 0.564684 0.581641 0.039847
C79   C     C_R   0.411000 0.904441 0.428247 0.044288
C80   C     C_R   0.089557 0.531199 0.070561 0.062336
C81   C     C_R   0.571535 0.571568 0.415450 0.045290
C82   C     C_R   0.421212 0.914607 0.071796 0.044984
C83   C     C_R   0.076486 0.512337 0.428907 0.051719
C84   C     C_R   0.565954 0.576464 0.080082 0.050670
C85   C     C_R   0.926569 0.394175 0.883245 -0.002516
C86   C     C_R   0.465328 0.062635 0.618029 0.013451
C87   C     C_R   0.588489 0.567000 0.872019 0.002102
C88   C     C_R   0.919671 0.393133 0.616111 -0.002133
C89   C     C_R   0.469894 0.069522 0.883046 0.010577
C90   C     C_R   0.596853 0.565381 0.625690 0.002309
C91   C     C_R   0.386999 0.905603 0.384905 0.003581
C92   C     C_R   0.121728 0.523375 0.111956 -0.024888
C93   C     C_R   0.570538 0.589962 0.371483 0.003332
C94   C     C_R   0.389807 0.904677 0.114735 0.012379
C95   C     C_R   0.105206 0.503089 0.387056 -0.044510
C96   C     C_R   0.559037 0.604886 0.122282 0.025076
Cr1   Cr    Cr6+3 0.504240 0.249200 0.750000 1.156612
Cr2   Cr    Cr6+3 0.744960 0.495760 0.750000 1.131587
Cr3   Cr    Cr6+3 0.750800 0.255040 0.750000 1.135724
Cr4   Cr    Cr6+3 0.249200 0.504240 0.250000 1.153629
Cr5   Cr    Cr6+3 0.495760 0.744960 0.250000 1.136931
Cr6   Cr    Cr6+3 0.255040 0.750800 0.250000 1.129723
H1    H     H_    0.879854 0.578462 0.094186 0.188176
H2    H     H_    0.687369 0.003748 0.420616 0.188907
H3    H     H_    0.348981 0.314761 0.078932 0.187345
H4    H     H_    0.916018 0.625762 0.408996 0.188778
H5    H     H_    0.699721 0.040547 0.084350 0.184855
H6    H     H_    0.339069 0.320572 0.422550 0.190327
H7    H     H_    0.658522 0.949582 0.587954 0.196347
H8    H     H_    0.969663 0.675400 0.922901 0.200262
H9    H     H_    0.323242 0.342038 0.575275 0.139524
H10   H     H_    0.673727 0.970935 0.914966 0.200829
H11   H     H_    0.990765 0.686384 0.579680 0.199191
H12   H     H_    0.321298 0.334659 0.923445 0.141691
O1    O     O_R   0.480350 0.140770 0.796330 -0.464799
O2    O     O_R   0.660420 0.519650 0.703670 -0.479266
O3    O     O_R   0.859230 0.339580 0.796330 -0.469165
O4    O     O_R   0.480350 0.140770 0.703670 -0.465827
O5    O     O_R   0.660420 0.519650 0.796330 -0.479954
O6    O     O_R   0.859230 0.339580 0.703670 -0.467235
O7    O     O_R   0.140770 0.480350 0.296330 -0.486227
O8    O     O_R   0.519650 0.660420 0.203670 -0.489264
O9    O     O_R   0.339580 0.859230 0.296330 -0.473469
O10   O     O_R   0.140770 0.480350 0.203670 -0.490611
O11   O     O_R   0.519650 0.660420 0.296330 -0.487593
O12   O     O_R   0.339580 0.859230 0.203670 -0.473013
O13   O     O_R   0.514930 0.348530 0.793250 -0.469245
O14   O     O_R   0.833600 0.485070 0.706750 -0.474731
O15   O     O_R   0.651470 0.166400 0.793250 -0.476615
O16   O     O_R   0.514930 0.348530 0.706750 -0.466283
O17   O     O_R   0.833600 0.485070 0.793250 -0.474622
O18   O     O_R   0.651470 0.166400 0.706750 -0.473758
O19   O     O_R   0.348530 0.514930 0.293250 -0.445769
O20   O     O_R   0.485070 0.833600 0.206750 -0.460689
O21   O     O_R   0.166400 0.651470 0.293250 -0.469293
O22   O     O_R   0.348530 0.514930 0.206750 -0.441766
O23   O     O_R   0.485070 0.833600 0.293250 -0.470645
O24   O     O_R   0.166400 0.651470 0.206750 -0.469741
O25   O     O_3   0.666667 0.333333 0.750000 -0.305856
O26   O     O_3   0.333333 0.666667 0.250000 -0.302453
C97   C     C_2   0.988240 0.672295 0.838774 0.625926
O27   O     O_2   0.028352 0.673725 0.804241 -0.436985
O28   O     O_R   0.979194 0.762704 0.851523 -0.637296
H13   H     H_    0.006398 0.822612 0.829176 0.360250
C98   C     C_2   0.661610 0.984885 0.670947 0.626951
O29   O     O_2   0.624991 0.958628 0.706813 -0.437471
O30   O     O_R   0.759168 0.987206 0.659846 -0.659969
H14   H     H_    0.794391 0.970981 0.684703 0.337289
C99   C     C_2   0.319369 0.325094 0.835828 0.655429
O31   O     O_2   0.323480 0.353324 0.798996 -0.385086
O32   O     O_R   0.222720 0.231365 0.849494 -0.645541
H15   H     H_    0.224137 0.207197 0.879438 0.330367
C100  C     C_2   0.002801 0.674136 0.663899 0.629194
O33   O     O_2   0.036926 0.668093 0.698827 -0.438713
O34   O     O_R   0.005256 0.771169 0.651860 -0.635340
H16   H     H_    0.034827 0.828983 0.674972 0.362064
C101  C     C_2   0.664045 0.987784 0.831111 0.623695
O35   O     O_2   0.624482 0.957913 0.795860 -0.439319
O36   O     O_R   0.760786 0.988078 0.841871 -0.647408
H17   H     H_    0.792510 0.966523 0.817337 0.341195
C102  C     C_2   0.322384 0.329203 0.662395 0.652758
O37   O     O_2   0.325668 0.357941 0.699075 -0.385022
O38   O     O_R   0.225868 0.235799 0.648600 -0.641985
H18   H     H_    0.229095 0.210609 0.619011 0.328025
C103  C     C_2   0.672024 0.006163 0.336419 0.609454
O39   O     O_2   0.665728 0.041836 0.301849 -0.451074
O40   O     O_R   0.768737 0.007095 0.347771 -0.651457
H19   H     H_    0.826360 0.037373 0.324521 0.350018
C104  C     C_2   0.916477 0.564897 0.176870 0.592056
O41   O     O_2   0.909400 0.516680 0.209965 -0.444272
O42   O     O_R   0.860259 0.622791 0.172411 -0.657965
H20   H     H_    0.818576 0.620062 0.199026 0.379759
C105  C     C_2   0.326743 0.318543 0.337066 0.648671
O43   O     O_2   0.342652 0.322065 0.298906 -0.451838
O44   O     O_R   0.242813 0.221688 0.355328 -0.639672
H21   H     H_    0.199726 0.162177 0.333632 0.355454
C106  C     C_2   0.671947 0.027915 0.168385 0.615932
O45   O     O_2   0.655451 0.052805 0.203589 -0.451665
O46   O     O_R   0.776112 0.044402 0.158145 -0.675159
H22   H     H_    0.829808 0.075534 0.182626 0.347294
C107  C     C_2   0.964744 0.634961 0.327117 0.615935
O47   O     O_2   0.938820 0.591903 0.292281 -0.451420
O48   O     O_R   0.962652 0.731650 0.335248 -0.664567
H23   H     H_    0.947346 0.762864 0.308907 0.335086
C108  C     C_2   0.339611 0.324050 0.164017 0.637543
O49   O     O_2   0.363275 0.330371 0.201537 -0.454170
O50   O     O_R   0.251861 0.226273 0.148121 -0.653339
H24   H     H_    0.213370 0.168243 0.170856 0.357214
C109  C     C_2   0.212981 0.501559 0.117892 0.615655
O51   O     O_2   0.307221 0.573874 0.110264 -0.480792
O52   O     O_R   0.191304 0.397346 0.130435 -0.631213
H25   H     H_    0.109817 0.343319 0.134397 0.327926
C110  C     C_2   0.276426 0.884448 0.372330 0.659457
O53   O     O_2   0.194535 0.797606 0.381801 -0.496522
O54   O     O_R   0.266553 0.964582 0.349688 -0.630157
H26   H     H_    0.187126 0.940833 0.342880 0.358664
C111  C     C_2   0.642140 0.716261 0.136975 0.651253
O55   O     O_2   0.632312 0.795239 0.127631 -0.454039
O56   O     O_R   0.729873 0.730109 0.162116 -0.659074
H27   H     H_    0.780476 0.809772 0.170447 0.354161
C112  C     C_2   0.185366 0.466202 0.380313 0.627287
O57   O     O_2   0.282291 0.529133 0.388186 -0.495302
O58   O     O_R   0.150848 0.359569 0.366338 -0.611811
H28   H     H_    0.068317 0.314612 0.361764 0.325396
C113  C     C_2   0.273045 0.865704 0.125435 0.650817
O59   O     O_2   0.200911 0.774502 0.114232 -0.510950
O60   O     O_R   0.245908 0.934885 0.147590 -0.634010
H29   H     H_    0.163790 0.899491 0.152888 0.350224
C114  C     C_2   0.672031 0.674525 0.349472 0.621206
O61   O     O_2   0.726143 0.767902 0.363450 -0.429428
O62   O     O_R   0.702844 0.646938 0.311371 -0.651517
H30   H     H_    0.766067 0.712878 0.296953 0.341729
C115  C     C_2   0.383253 0.094928 0.628867 0.647244
O63   O     O_2   0.392770 0.179714 0.614304 -0.544667
O64   O     O_R   0.294360 0.026982 0.655089 -0.622640
H31   H     H_    0.243047 0.056886 0.660080 0.364078
C116  C     C_2   0.925757 0.293145 0.868939 0.647800
O65   O     O_2   0.857014 0.203134 0.882764 -0.480957
O66   O     O_R   0.004880 0.301674 0.839910 -0.609303
H32   H     H_    0.996236 0.227473 0.832627 0.374417
C117  C     C_2   0.682605 0.667707 0.646682 0.622420
O67   O     O_2   0.777257 0.716507 0.633512 -0.439077
O68   O     O_R   0.654180 0.706637 0.682443 -0.632552
H33   H     H_    0.719572 0.773913 0.695168 0.346326
C118  C     C_2   0.382837 0.094406 0.871578 0.648385
O69   O     O_2   0.386509 0.177083 0.885474 -0.545381
O70   O     O_R   0.296166 0.022260 0.845406 -0.619915
H34   H     H_    0.241223 0.047531 0.839994 0.363581
C119  C     C_2   0.907842 0.286170 0.629063 0.651182
O71   O     O_2   0.830661 0.200062 0.616008 -0.489613
O72   O     O_R   0.986257 0.284573 0.655839 -0.607192
H35   H     H_    0.969755 0.207048 0.662329 0.372387
C120  C     C_2   0.666731 0.671471 0.849838 0.621846
O73   O     O_2   0.758433 0.733308 0.864071 -0.435930
O74   O     O_R   0.634166 0.698193 0.811925 -0.630165
H36   H     H_    0.694308 0.769118 0.798939 0.349473
C121  C     C_2   0.145881 0.514522 0.033520 0.616068
O75   O     O_2   0.177002 0.579196 0.003831 -0.452171
O76   O     O_R   0.163823 0.425228 0.032877 -0.666528
H37   H     H_    0.203794 0.423618 0.006397 0.355320
C122  C     C_2   0.322045 0.866772 0.460844 0.622857
O77   O     O_2   0.315098 0.802949 0.488654 -0.462600
O78   O     O_R   0.245809 0.902969 0.459503 -0.644997
H38   H     H_    0.186459 0.866712 0.481932 0.353789
C123  C     C_2   0.662331 0.650191 0.053147 0.611287
O79   O     O_2   0.712228 0.612347 0.034534 -0.508075
O80   O     O_R   0.696945 0.762171 0.049573 -0.619265
H39   H     H_    0.766049 0.804107 0.031845 0.346542
C124  C     C_2   0.121165 0.477487 0.464912 0.614533
O81   O     O_2   0.161789 0.537691 0.495557 -0.459883
O82   O     O_R   0.118904 0.376923 0.463165 -0.664593
H40   H     H_    0.154385 0.364084 0.488807 0.356053
C125  C     C_2   0.336226 0.875422 0.037616 0.627576
O83   O     O_2   0.340092 0.820594 0.008348 -0.447470
O84   O     O_R   0.251421 0.900051 0.039137 -0.652012
H41   H     H_    0.196553 0.864478 0.015237 0.360223
C126  C     C_2   0.667157 0.647141 0.441775 0.622455
O85   O     O_2   0.722647 0.613398 0.458824 -0.510661
O86   O     O_R   0.693028 0.756308 0.447167 -0.611181
H42   H     H_    0.761945 0.800789 0.464691 0.353536
C127  C     C_2   0.412585 0.058450 0.541705 0.620889
O87   O     O_2   0.459493 0.111727 0.510058 -0.486740
O88   O     O_R   0.299557 0.017121 0.546868 -0.652052
H43   H     H_    0.267117 0.041133 0.523369 0.358417
C128  C     C_2   0.920523 0.333381 0.958914 0.614294
O89   O     O_2   0.852252 0.301713 0.987390 -0.503515
O90   O     O_R   0.994322 0.294301 0.956342 -0.649026
H44   H     H_    0.982770 0.240059 0.979733 0.359193
C129  C     C_2   0.658571 0.657410 0.554749 0.623956
O91   O     O_2   0.629356 0.716110 0.537256 -0.492189
O92   O     O_R   0.765897 0.677208 0.549561 -0.629941
H45   H     H_    0.813199 0.744665 0.531601 0.352195
C130  C     C_2   0.424929 0.077205 0.959728 0.618990
O93   O     O_2   0.473717 0.136005 0.989934 -0.497304
O94   O     O_R   0.310787 0.030820 0.956306 -0.650282
H46   H     H_    0.278835 0.055058 0.979908 0.358220
C131  C     C_2   0.902922 0.333091 0.539931 0.616242
O95   O     O_2   0.835814 0.311845 0.511622 -0.494568
O96   O     O_R   0.963198 0.278686 0.541643 -0.647252
H47   H     H_    0.942936 0.222890 0.518066 0.360188
C132  C     C_2   0.649196 0.658698 0.942878 0.632526
O97   O     O_2   0.616148 0.712608 0.961606 -0.480764
O98   O     O_R   0.759232 0.685600 0.946202 -0.626578
H48   H     H_    0.805051 0.754082 0.963749 0.351574

loop_
_geom_bond_atom_site_label_1
_geom_bond_atom_site_label_2
_ccdc_geom_bond_type
C68   C80   A    
C39   C51   A    
O58   H28   S    
C123  O80   S    
C101  O35   D    
C82   C94   A    
C21   C66   S    
C18   C21   T    
C33   C45   A    
C112  O57   D    
O94   H46   S    
C60   H3    S    
C47   C107  S    
C4    C30   S    
C35   C47   A    
C29   C89   A    
C98   O29   D    
C112  O58   S    
C42   C102  S    
C99   O31   D    
O88   H43   S    
C38   C98   S    
C32   C92   A    
Cr5   O20   S    
C78   C90   A    
O62   H30   S    
C15   C72   S    
C94   C113  S    
C77   C89   A    
C124  O81   D    
C103  O39   D    
C37   C97   S    
C76   C131  S    
C6    O4    A    
C130  O93   D    
C10   O22   A    
Cr1   O16   S    
C126  O85   D    
C99   O32   S    
O36   H17   S    
C1    O5    A    
C127  O87   D    
C91   C110  S    
C9    C35   S    
C108  O50   S    
C60   C72   A    
C19   C62   S    
C131  O96   S    
O78   H38   S    
O84   H41   S    
Cr1   O4    S    
C81   C93   A    
C55   C67   A    
C111  O56   S    
C122  O77   D    
Cr6   O24   S    
C78   C129  S    
C20   C61   S    
C3    C29   S    
C85   C116  S    
C44   C104  S    
C73   C128  S    
Cr4   O26   S    
O30   H14   S    
C25   C37   A    
Cr3   O6    S    
Cr6   O21   S    
Cr2   O25   S    
Cr2   O2    S    
C15   C24   T    
O76   H37   S    
C27   C39   A    
C110  O54   S    
C130  O94   S    
Cr2   O17   S    
C28   C88   A    
C9    O7    A    
O74   H36   S    
C82   C125  S    
C48   C60   A    
C125  O83   D    
C34   C46   A    
Cr1   O1    S    
C53   C65   A    
C128  O89   D    
C76   C88   A    
C79   C91   A    
C110  O53   D    
C51   C63   A    
C30   C90   A    
C16   C23   T    
C18   C69   S    
C115  O64   S    
C88   C119  S    
C41   C53   A    
O32   H15   S    
C11   C31   S    
O56   H27   S    
C101  O36   S    
C105  O43   D    
C131  O95   D    
C46   C58   A    
Cr6   O9    S    
C7    C33   S    
C46   C106  S    
Cr3   O25   S    
C57   C69   A    
C109  O51   D    
C16   C71   S    
C98   O30   S    
Cr5   O26   S    
C102  O37   D    
C36   C48   A    
C71   C83   A    
C43   C103  S    
C32   C44   A    
C96   C111  S    
C66   C78   A    
C11   O9    A    
C124  O82   S    
C59   H4    S    
C49   C61   A    
Cr3   O15   S    
Cr4   O10   S    
C8    O20   A    
O60   H29   S    
C51   H12   S    
C104  O41   D    
C77   C130  S    
Cr2   O5    S    
C67   C79   A    
O68   H33   S    
O82   H40   S    
C52   C64   A    
C107  O48   S    
O40   H19   S    
C127  O88   S    
C123  O79   D    
C2    O6    A    
C132  O98   S    
C58   C70   A    
C75   C132  S    
C102  O38   S    
C26   C86   A    
C61   C73   A    
C116  O65   D    
C107  O47   D    
C55   H2    S    
C50   H7    S    
C7    O11   A    
O52   H25   S    
C5    O3    A    
C84   C123  S    
C122  O78   S    
C97   O28   S    
C80   C121  S    
C80   C92   A    
O64   H31   S    
C3    O1    A    
C22   C65   S    
C43   C55   A    
C119  O71   D    
O44   H21   S    
C114  O62   S    
C45   C105  S    
C54   C66   A    
Cr3   O3    S    
C117  O67   D    
C37   C49   A    
C9    O21   A    
C44   C56   A    
Cr5   O11   S    
O70   H34   S    
C12   O10   A    
C119  O72   S    
C115  O63   D    
C14   C67   S    
C62   C74   A    
C45   C57   A    
C25   C85   A    
C114  O61   D    
C64   C76   A    
O48   H23   S    
C8    C34   S    
C83   C95   A    
C74   C86   A    
C27   C87   A    
C120  O74   S    
O42   H20   S    
C73   C85   A    
C100  O34   S    
C72   C84   A    
C105  O44   S    
C31   C43   A    
C90   C117  S    
C5    C25   S    
Cr3   O18   S    
C53   H10   S    
C6    O18   A    
C23   C64   S    
O72   H35   S    
Cr6   O26   S    
C24   C63   S    
C31   C91   A    
C121  O76   S    
C93   C114  S    
C50   C62   A    
C12   O24   A    
C40   C100  S    
C95   C112  S    
O86   H42   S    
C84   C96   A    
C58   H5    S    
Cr4   O19   S    
Cr5   O8    S    
C125  O84   S    
C104  O42   S    
C8    O12   A    
Cr1   O13   S    
O66   H32   S    
C113  O59   D    
Cr4   O7    S    
Cr5   O23   S    
C65   C77   A    
C13   C20   T    
C29   C41   A    
C3    O15   A    
C14   C19   T    
C4    O2    A    
C26   C38   A    
C34   C94   A    
C56   H1    S    
C89   C118  S    
Cr6   O12   S    
C33   C93   A    
C4    O16   A    
O80   H39   S    
C7    O19   A    
C38   C50   A    
C35   C95   A    
O46   H22   S    
C116  O66   S    
C39   C99   S    
C81   C126  S    
C17   C22   T    
C87   C120  S    
C92   C109  S    
C83   C124  S    
O90   H44   S    
C56   C68   A    
O98   H48   S    
C129  O92   S    
O28   H13   S    
C132  O97   D    
O96   H47   S    
C48   C108  S    
C117  O68   S    
C128  O90   S    
C40   C52   A    
C97   O27   D    
C42   C54   A    
C108  O49   D    
C6    C26   S    
C63   C75   A    
C52   H11   S    
Cr2   O14   S    
C36   C96   A    
C118  O70   S    
C106  O46   S    
C54   H9    S    
C41   C101  S    
C79   C122  S    
C11   O23   A    
C111  O55   D    
C70   C82   A    
C121  O75   D    
C86   C115  S    
O38   H18   S    
C69   C81   A    
C1    O13   A    
C47   C59   A    
O54   H26   S    
C74   C127  S    
Cr4   O22   S    
C10   O8    A    
C5    O17   A    
C57   H6    S    
O50   H24   S    
C103  O40   S    
C106  O45   D    
C126  O86   S    
O34   H16   S    
C1    C27   S    
C28   C40   A    
C30   C42   A    
C2    C28   S    
C10   C36   S    
C109  O52   S    
C100  O33   D    
C129  O91   D    
C113  O60   S    
C17   C70   S    
Cr1   O25   S    
C12   C32   S    
C75   C87   A    
O92   H45   S    
C120  O73   D    
C59   C71   A    
C49   H8    S    
C118  O69   D    
C13   C68   S    
C2    O14   A    
