data_mof_unit_42352.cif
_audit_creation_date              2012-12-11T14:27:08-0500
_audit_creation_method            fapswitch 2.2
_symmetry_space_group_name_H-M    P1
_symmetry_Int_Tables_number       1
_space_group_crystal_system       triclinic
_cell_length_a                    15.040285
_cell_length_b                    15.072257
_cell_length_c                    14.931865
_cell_angle_alpha                 109.889587
_cell_angle_beta                  109.131803
_cell_angle_gamma                 109.590405
_cell_volume                      2599.2351775

loop_
_atom_site_label
_atom_site_type_symbol
_atom_type_description
_atom_site_fract_x
_atom_site_fract_y
_atom_site_fract_z
_atom_type_partial_charge
C1    C     C_R   0.939764 0.756171 0.036158 -0.081861
C2    C     C_R   0.205902 0.804557 0.296322 -0.119678
C3    C     C_R   0.986401 0.413478 0.222643 -0.030124
C4    C     C_R   0.780556 0.227091 0.685111 0.459860
C5    C     C_R   0.314045 0.593124 0.066165 -0.075425
C6    C     C_R   0.061993 0.506071 0.324653 0.054734
C7    C     C_R   0.326299 0.502687 0.049151 -0.001907
C8    C     C_R   0.296949 0.866967 0.295356 0.137892
C9    C     C_R   0.942062 0.134451 0.926278 0.011707
C10   C     C_3   0.513845 0.387095 0.030242 -0.337571
C11   C     C_3   0.408812 0.386273 0.015000 -0.479007
C12   C     C_R   0.677355 0.195687 0.670220 -0.217890
C13   C     C_3   0.629476 0.579893 0.185123 -0.471905
C14   C     C_3   0.559352 0.544429 0.989818 0.432723
C15   C     C_3   0.602887 0.502349 0.067966 0.080464
C16   C     C_R   0.081870 0.591232 0.785953 0.486168
C17   C     C_3   0.428612 0.504516 0.062181 0.177604
C18   C     C_3   0.523948 0.574217 0.183760 0.402997
C19   C     C_3   0.461447 0.551889 0.993228 -0.475108
C20   C     C_2   0.381211 0.043888 0.458076 -0.075331
C21   C     C_2   0.373027 0.983632 0.363500 -0.193836
C22   C     C_2   0.488142 0.134786 0.549754 -0.071878
C23   C     C_R   0.036182 0.500783 0.685178 -0.269186
C24   C     C_2   0.576919 0.125130 0.564857 -0.007584
C25   C     C_2   0.079722 0.435271 0.541436 -0.161756
C26   C     C_2   0.048396 0.501216 0.592026 0.621300
C27   C     C_2   0.079393 0.423717 0.439601 -0.087998
C28   C     C_R   0.707868 0.412490 0.016006 0.697558
C29   C     C_2   0.116231 0.511626 0.429079 -0.074710
C30   C     C_2   0.963633 0.973117 0.857602 0.580338
C31   C     C_2   0.901732 0.017640 0.872515 -0.189398
C32   C     C_2   0.932608 0.868354 0.852133 -0.344940
C33   C     C_2   0.931092 0.862857 0.939507 0.521019
C34   C     C_R   0.701676 0.503094 0.069588 -0.158422
C35   C     C_R   0.987870 0.410225 0.692709 -0.152683
C36   C     C_R   0.790779 0.592356 0.094449 -0.173527
C37   C     C_R   0.685613 0.229561 0.772868 0.474311
C38   C     C_R   0.031012 0.756958 0.943789 -0.067397
C39   C     C_R   0.960890 0.789418 0.966745 -0.063264
C40   C     C_R   0.068961 0.594431 0.312866 -0.094649
C41   C     C_R   0.223727 0.410106 0.975665 -0.100711
C42   C     C_R   0.296929 0.801742 0.205578 -0.101384
C43   C     C_R   0.908901 0.193131 0.989195 0.470878
C44   C     C_R   0.000924 0.200980 0.900826 -0.076475
H1    H     H_    0.890411 0.769817 0.071839 0.111804
H2    H     H_    0.348710 0.336380 0.925406 0.239478
H3    H     H_    0.376053 0.346253 0.056335 0.205752
H4    H     H_    0.667383 0.556586 0.244083 0.165077
H5    H     H_    0.504073 0.532795 0.229675 0.059873
H6    H     H_    0.624141 0.628670 0.022106 0.062922
H7    H     H_    0.390306 0.508214 0.909123 0.204003
H8    H     H_    0.483325 0.639126 0.029344 0.189499
H9    H     H_    0.689839 0.665102 0.214658 0.208485
H10   H     H_    0.316644 0.015551 0.476472 0.158026
H11   H     H_    0.436656 0.016348 0.345059 0.155303
H12   H     H_    0.202165 0.325509 0.940983 0.161109
H13   H     H_    0.491417 0.199094 0.614616 0.209875
H14   H     H_    0.574398 0.060043 0.501719 0.193315
H15   H     H_    0.093345 0.379818 0.567736 0.126089
H16   H     H_    0.030721 0.341800 0.368847 0.159930
H17   H     H_    0.168726 0.592392 0.502151 0.193291
H18   H     H_    0.822402 0.965557 0.858038 0.213120
H19   H     H_    0.942589 0.810052 0.795264 0.147257
H20   H     H_    0.961070 0.328888 0.633752 0.225075
H21   H     H_    0.818042 0.677020 0.146733 0.122850
H22   H     H_    0.065659 0.773493 0.894851 0.192804
H23   H     H_    0.347412 0.829342 0.172413 0.154215
H24   H     H_    0.121743 0.679505 0.375930 0.128250
H25   H     H_    0.670752 0.983290 0.958160 0.393562
H26   H     H_    0.743670 0.967905 0.506162 0.390895
H27   H     H_    0.415468 0.507385 0.755510 0.358969
H28   H     H_    0.502278 0.682061 0.276749 0.319079
H29   H     H_    0.354737 0.751696 0.840588 0.390752
H30   H     H_    0.993072 0.601187 0.595333 0.334350
H31   H     H_    0.232942 0.013043 0.909650 0.400836
H32   H     H_    0.683469 0.350508 0.104845 0.308067
H33   H     H_    0.939810 0.935873 0.081191 0.336606
H34   H     H_    0.018759 0.176419 0.835362 0.218517
H35   H     H_    0.435695 0.149601 0.785114 0.382440
H36   H     H_    0.173068 0.835065 0.346147 0.108536
H37   H     H_    0.971398 0.333024 0.203586 0.156072
H38   H     H_    0.376933 0.677889 0.112615 0.153164
H39   H     H_    0.539750 0.363933 0.093317 0.173846
H40   H     H_    0.497254 0.324089 0.952287 0.266015
N1    N     N_R   0.993980 0.704500 0.053430 -0.048950
N2    N     N_R   0.053690 0.556380 0.849240 -0.104148
N3    N     N_R   0.790390 0.443640 0.997160 -0.082215
N4    N     N_R   0.998260 0.443670 0.792970 -0.071027
N5    N     N_R   0.845830 0.556350 0.053430 -0.068081
N6    N     N_R   0.792820 0.295510 0.849240 -0.143395
N7    N     N_R   0.051260 0.704510 0.997160 -0.040864
N8    N     N_R   0.001740 0.556330 0.207030 -0.067710
N9    N     N_R   0.154170 0.443650 0.946570 -0.043238
N10   N     N_R   0.207180 0.704490 0.150760 -0.052618
N11   N     N_R   0.948740 0.295490 0.002840 -0.131358
N12   N     N_R   0.006020 0.295500 0.946570 -0.101719
N13   N     N_R   0.149890 0.704480 0.207030 -0.060736
N14   N     N_R   0.946310 0.443620 0.150760 -0.049864
N15   N     N_R   0.209610 0.556360 0.002840 -0.040471
N16   N     N_R   0.850110 0.295520 0.792970 -0.139573
Ni1   Ni    Ni4+2 0.997880 0.629240 0.129060 0.208761
Ni2   Ni    Ni4+2 0.002120 0.370760 0.870940 0.272008
Ni3   Ni    Ni4+2 0.129260 0.629260 0.000000 0.303353
Ni4   Ni    Ni4+2 0.870740 0.370740 0.000000 0.337046
O1    O     O_2   0.878889 0.114337 0.117732 -0.284319
O2    O     O_3   0.542029 0.680886 0.235179 -0.750056
O3    O     O_2   0.175807 0.776252 0.785789 -0.260662
O4    O     O_2   0.253399 0.781024 0.961271 -0.327597
O5    O     O_3   0.289602 0.680700 0.809483 -0.538189
O6    O     O_3   0.021635 0.565054 0.552876 -0.729280
O7    O     O_2   0.096493 0.061523 0.789908 -0.292405
O8    O     O_2   0.165150 0.151974 0.989112 -0.324509
O9    O     O_3   0.158691 0.968985 0.895144 -0.484300
O10   O     O_3   0.678122 0.325050 0.031738 -0.680798
O11   O     O_3   0.920437 0.939076 0.012775 -0.704786
O12   O     O_2   0.780936 0.209422 0.079961 -0.251049
O13   O     O_2   0.510467 0.036866 0.690554 -0.282365
O14   O     O_2   0.624958 0.140720 0.887677 -0.143245
O15   O     O_3   0.502392 0.206771 0.796891 -0.520496
O16   O     O_3   0.710080 0.015247 0.925357 -0.480177
O17   O     O_2   0.782118 0.152099 0.495891 -0.302410
O18   O     O_2   0.925072 0.171432 0.654175 -0.322314
O19   O     O_3   0.728489 0.011836 0.559195 -0.519596
O20   O     O_2   0.618036 0.457282 0.840232 -0.275489
O21   O     O_2   0.427514 0.355466 0.790093 -0.287736
O22   O     O_3   0.494439 0.534915 0.784206 -0.487821
S1    S     S_3+6 0.818998 0.135078 0.031845 -0.003187
S2    S     S_3+6 0.808048 0.141951 0.596852 -0.058149
S3    S     S_3+6 0.524659 0.467577 0.848165 -0.026123
S4    S     S_3+6 0.201997 0.712928 0.838883 -0.049619
S5    S     S_3+6 0.098924 0.043984 0.883732 -0.039133
S6    S     S_3+6 0.580545 0.150516 0.788701 0.017559

loop_
_geom_bond_atom_site_label_1
_geom_bond_atom_site_label_2
_ccdc_geom_bond_type
C36   N5    A    
N15   Ni3   S    
N12   Ni2   S    
C27   C29   D    
C11   H3    S    
N11   N12   A    
C3    C6    A    
C22   H13   S    
N1    N7    A    
O16   S1    S    
N8    N14   A    
C14   H6    S    
C33   C39   S    
C13   C18   S    
C8    C42   A    
C27   H16   S    
C30   C31   D    
N2    N4    A    
C30   S5    S    
C10   H39   S    
C23   C26   S    
C10   H40   S    
C12   C37   A    
O13   S6    D    
H26   O19   S    
C41   N9    A    
C38   H22   S    
C2    N13   A    
C7    C17   S    
O12   S1    D    
H35   O15   S    
C3    H37   S    
C43   N11   A    
H27   O22   S    
C35   H20   S    
H31   O9    S    
C4    C12   A    
C16   S4    S    
N7    Ni3   S    
N9    N15   A    
C15   C34   S    
O4    S4    D    
C28   C34   A    
C16   N2    A    
C31   H18   S    
O3    S4    D    
N2    Ni3   S    
C19   H8    S    
N6    N16   A    
O15   S6    S    
C9    C31   S    
C13   H9    S    
C1    N1    A    
C29   H17   S    
C33   O11   S    
C9    C43   A    
O1    S1    D    
C5    N15   A    
C2    H36   S    
O17   S2    D    
C20   H10   S    
C43   S1    S    
C5    C7    A    
C4    S2    S    
C36   H21   S    
N10   N13   A    
C25   C26   D    
C38   N7    A    
C18   O2    S    
C41   H12   S    
C44   N12   A    
O21   S3    D    
C35   N4    A    
H32   O10   S    
C28   N3    A    
N16   Ni2   S    
C17   C18   S    
C40   N8    A    
N6    Ni4   S    
C28   O10   S    
N8    Ni1   S    
C37   N6    A    
O7    S5    D    
H28   O2    S    
N10   Ni3   S    
C16   C23   A    
C23   C35   A    
C13   C15   S    
C42   H23   S    
C22   C24   D    
N1    Ni1   S    
N11   Ni4   S    
C21   H11   S    
C26   O6    S    
C11   C17   S    
C9    C44   A    
O9    S5    S    
N5    Ni1   S    
C42   N10   A    
C14   C19   S    
C2    C8    A    
C32   H19   S    
C20   C22   S    
C8    C21   S    
N9    Ni2   S    
H30   O6    S    
C13   H4    S    
N4    Ni2   S    
H29   O5    S    
C25   C27   S    
C12   C24   S    
H25   O16   S    
O22   S3    S    
C37   S6    S    
C10   C15   S    
C32   C33   D    
C4    N16   A    
C30   C32   S    
C5    H38   S    
C3    N14   A    
C1    H1    S    
O19   S2    S    
C38   C39   A    
N14   Ni4   S    
C44   H34   S    
C17   C19   S    
C34   C36   A    
O20   S3    D    
C6    C40   A    
C7    C41   A    
O8    S5    D    
O18   S2    D    
O14   S6    D    
C10   C11   S    
C1    C39   A    
N3    Ni4   S    
C19   H7    S    
C6    C29   S    
C20   C21   D    
C24   H14   S    
C40   H24   S    
O5    S4    S    
N3    N5    A    
C14   C15   S    
C11   H2    S    
C25   H15   S    
H33   O11   S    
N13   Ni1   S    
C18   H5    S    
C14   S3    S    
