data_mof_unit_40924.cif
_audit_creation_date              2012-12-10T17:01:03-0500
_audit_creation_method            fapswitch 2.2
_symmetry_space_group_name_H-M    P1
_symmetry_Int_Tables_number       1
_space_group_crystal_system       triclinic
_cell_length_a                    21.79794
_cell_length_b                    21.797956
_cell_length_c                    30.258352
_cell_angle_alpha                 90.002383
_cell_angle_beta                  90.00238
_cell_angle_gamma                 90.002328
_cell_volume                      14377.2721651

loop_
_atom_site_label
_atom_site_type_symbol
_atom_type_description
_atom_site_fract_x
_atom_site_fract_y
_atom_site_fract_z
_atom_type_partial_charge
C1    C     C_R   0.500000 0.118894 0.499998 0.786040
C2    C     C_R   0.118894 0.500000 0.500001 0.786042
C3    C     C_R   0.499999 0.881105 0.499999 0.786043
C4    C     C_R   0.881106 0.499999 0.500002 0.786039
C5    C     C_R   0.000002 0.618892 1.000000 0.786137
C6    C     C_R   0.618892 0.000002 0.999999 0.786142
C7    C     C_R   0.999998 0.381108 0.000000 0.786143
C8    C     C_R   0.381108 0.999998 0.000000 0.786136
C9    C     C_R   0.646147 0.284047 0.561293 0.026844
C10   C     C_R   0.284033 0.353810 0.561229 0.026785
C11   C     C_R   0.353843 0.715962 0.561274 0.026863
C12   C     C_R   0.715975 0.646173 0.561262 0.026783
C13   C     C_R   0.646200 0.715966 0.438782 0.026786
C14   C     C_R   0.284037 0.646147 0.438713 0.026861
C15   C     C_R   0.353818 0.284026 0.438750 0.026785
C16   C     C_R   0.715954 0.353862 0.438695 0.026843
C17   C     C_R   0.145937 0.784035 0.061558 0.026909
C18   C     C_R   0.784011 0.854129 0.061633 0.026904
C19   C     C_R   0.854060 0.215977 0.061548 0.026925
C20   C     C_R   0.215995 0.145895 0.061614 0.026885
C21   C     C_R   0.145878 0.215988 0.938376 0.026904
C22   C     C_R   0.784022 0.145933 0.938442 0.026924
C23   C     C_R   0.854097 0.784006 0.938395 0.026885
C24   C     C_R   0.215966 0.854071 0.938432 0.026909
C25   C     C_R   0.599196 0.315115 0.539226 -0.190585
C26   C     C_R   0.315109 0.400791 0.539201 -0.190555
C27   C     C_R   0.400803 0.684888 0.539220 -0.190594
C28   C     C_R   0.684897 0.599197 0.539224 -0.190587
C29   C     C_R   0.599214 0.684890 0.460806 -0.190549
C30   C     C_R   0.315111 0.599192 0.460772 -0.190601
C31   C     C_R   0.400797 0.315104 0.460783 -0.190580
C32   C     C_R   0.684886 0.400809 0.460767 -0.190590
C33   C     C_R   0.099116 0.815097 0.039336 -0.190037
C34   C     C_R   0.815076 0.900904 0.039362 -0.189834
C35   C     C_R   0.900885 0.184910 0.039338 -0.190104
C36   C     C_R   0.184926 0.099105 0.039357 -0.189807
C37   C     C_R   0.099100 0.184923 0.960643 -0.189830
C38   C     C_R   0.815089 0.099110 0.960656 -0.190109
C39   C     C_R   0.900890 0.815074 0.960648 -0.189802
C40   C     C_R   0.184904 0.900888 0.960658 -0.190043
C41   C     C_R   0.548201 0.283466 0.521124 0.075835
C42   C     C_R   0.283464 0.451797 0.521118 0.075916
C43   C     C_R   0.451800 0.716535 0.521123 0.075835
C44   C     C_R   0.716539 0.548196 0.521132 0.075918
C45   C     C_R   0.548206 0.716535 0.478885 0.075914
C46   C     C_R   0.283464 0.548197 0.478873 0.075836
C47   C     C_R   0.451801 0.283461 0.478872 0.075916
C48   C     C_R   0.716534 0.451801 0.478873 0.075837
C49   C     C_R   0.048151 0.783457 0.021182 0.076009
C50   C     C_R   0.783447 0.951861 0.021193 0.076125
C51   C     C_R   0.951851 0.216546 0.021186 0.075950
C52   C     C_R   0.216554 0.048144 0.021194 0.076139
C53   C     C_R   0.048141 0.216552 0.978810 0.076123
C54   C     C_R   0.783453 0.048147 0.978811 0.075952
C55   C     C_R   0.951854 0.783446 0.978809 0.076138
C56   C     C_R   0.216543 0.951851 0.978815 0.076010
C57   C     C_R   0.545752 0.219025 0.524185 0.077717
C58   C     C_R   0.219023 0.454242 0.524178 0.077658
C59   C     C_R   0.454247 0.780977 0.524182 0.077712
C60   C     C_R   0.780981 0.545752 0.524189 0.077662
C61   C     C_R   0.545762 0.780976 0.475824 0.077660
C62   C     C_R   0.219022 0.545750 0.475814 0.077711
C63   C     C_R   0.454245 0.219019 0.475814 0.077663
C64   C     C_R   0.780975 0.454251 0.475812 0.077716
C65   C     C_R   0.045676 0.719018 0.024257 0.077963
C66   C     C_R   0.719010 0.954352 0.024275 0.078002
C67   C     C_R   0.954326 0.280986 0.024258 0.077946
C68   C     C_R   0.280992 0.045656 0.024273 0.077999
C69   C     C_R   0.045651 0.280989 0.975728 0.078003
C70   C     C_R   0.719014 0.045671 0.975739 0.077944
C71   C     C_R   0.954341 0.719009 0.975730 0.078000
C72   C     C_R   0.280982 0.954327 0.975740 0.077961
C73   C     C_R   0.500004 0.315138 0.499995 -0.097741
C74   C     C_R   0.315138 0.500000 0.499998 -0.097741
C75   C     C_R   0.500000 0.684861 0.500001 -0.097747
C76   C     C_R   0.684862 0.499996 0.500004 -0.097735
C77   C     C_R   0.999999 0.815132 0.999998 -0.097936
C78   C     C_R   0.815131 0.999998 0.999997 -0.097944
C79   C     C_R   0.000002 0.184869 0.000003 -0.097950
C80   C     C_R   0.184869 0.000001 0.000001 -0.097930
C81   C     C_R   0.500001 0.186405 0.499997 -0.189053
C82   C     C_R   0.186405 0.500000 0.500001 -0.189061
C83   C     C_R   0.500000 0.813594 0.499999 -0.189058
C84   C     C_R   0.813595 0.499999 0.500003 -0.189055
C85   C     C_R   0.000006 0.686399 0.999996 -0.188875
C86   C     C_R   0.686398 0.000007 0.000002 -0.188872
C87   C     C_R   0.999993 0.313601 0.999998 -0.188870
C88   C     C_R   0.313601 0.999994 0.000004 -0.188877
C89   C     C_R   0.381665 0.500001 0.499999 0.764006
C90   C     C_R   0.499999 0.618335 0.500001 0.764009
C91   C     C_R   0.618335 0.499998 0.500001 0.763999
C92   C     C_R   0.500002 0.381665 0.499999 0.764003
C93   C     C_R   0.881662 0.999997 0.999999 0.763971
C94   C     C_R   0.000003 0.118338 0.000001 0.763973
C95   C     C_R   0.118338 0.000004 0.000001 0.763968
C96   C     C_R   0.999996 0.881662 0.999999 0.763970
C97   C     C_R   0.500001 0.000001 0.585591 0.789038
C98   C     C_R   0.000002 0.500001 0.585591 0.789018
C99   C     C_R   0.499999 0.999998 0.414409 0.789023
C100  C     C_R   0.999999 0.499999 0.414408 0.789033
C101  C     C_R   0.000001 0.499999 0.085594 0.789169
C102  C     C_R   0.499999 0.000001 0.085594 0.789179
C103  C     C_R   0.999999 0.500001 0.914406 0.789183
C104  C     C_R   0.500001 0.999999 0.914406 0.789165
C105  C     C_R   0.536329 0.041903 0.843106 -0.224130
C106  C     C_R   0.041966 0.463752 0.843102 -0.224131
C107  C     C_R   0.463676 0.958093 0.843100 -0.224101
C108  C     C_R   0.958034 0.536255 0.843101 -0.224109
C109  C     C_R   0.536239 0.958026 0.156898 -0.224133
C110  C     C_R   0.041899 0.536332 0.156900 -0.224100
C111  C     C_R   0.463753 0.041973 0.156899 -0.224111
C112  C     C_R   0.958105 0.463662 0.156894 -0.224129
C113  C     C_R   0.036680 0.541595 0.343116 -0.224015
C114  C     C_R   0.541507 0.963218 0.343116 -0.223987
C115  C     C_R   0.963317 0.458399 0.343111 -0.224006
C116  C     C_R   0.458476 0.036763 0.343116 -0.223988
C117  C     C_R   0.036773 0.458484 0.656885 -0.223988
C118  C     C_R   0.541593 0.036692 0.656888 -0.224005
C119  C     C_R   0.963246 0.541531 0.656884 -0.223989
C120  C     C_R   0.458413 0.963311 0.656883 -0.224014
C121  C     C_R   0.500003 0.999997 0.866077 -0.059272
C122  C     C_R   0.999998 0.500001 0.866076 -0.059330
C123  C     C_R   0.499999 0.000002 0.133924 -0.059337
C124  C     C_R   0.000003 0.499997 0.133923 -0.059264
C125  C     C_R   0.999999 0.499997 0.366084 -0.058933
C126  C     C_R   0.499995 0.999994 0.366086 -0.058839
C127  C     C_R   0.000006 0.500005 0.633914 -0.058847
C128  C     C_R   0.500003 0.000001 0.633915 -0.058925
C129  C     C_R   0.462111 0.958187 0.796660 0.055503
C130  C     C_R   0.958125 0.537818 0.796661 0.055473
C131  C     C_R   0.537889 0.041817 0.796666 0.055494
C132  C     C_R   0.041890 0.462200 0.796662 0.055464
C133  C     C_R   0.462191 0.041883 0.203339 0.055471
C134  C     C_R   0.958191 0.462102 0.203334 0.055496
C135  C     C_R   0.537791 0.958102 0.203338 0.055462
C136  C     C_R   0.041804 0.537898 0.203340 0.055505
C137  C     C_R   0.961734 0.458524 0.296672 0.055564
C138  C     C_R   0.458605 0.038346 0.296677 0.055561
C139  C     C_R   0.038258 0.541476 0.296677 0.055552
C140  C     C_R   0.541372 0.961629 0.296677 0.055577
C141  C     C_R   0.961664 0.541404 0.703323 0.055558
C142  C     C_R   0.458533 0.961732 0.703322 0.055554
C143  C     C_R   0.038362 0.458619 0.703324 0.055574
C144  C     C_R   0.541468 0.038275 0.703328 0.055566
C145  C     C_R   0.500000 0.000003 0.773295 0.027405
C146  C     C_R   0.000008 0.500009 0.773294 0.027421
C147  C     C_R   0.499991 0.999992 0.226706 0.027422
C148  C     C_R   0.999997 0.500000 0.226705 0.027403
C149  C     C_R   0.999996 0.500000 0.273307 0.027308
C150  C     C_R   0.499990 0.999989 0.273310 0.027294
C151  C     C_R   0.000011 0.500010 0.726690 0.027295
C152  C     C_R   0.500000 0.000003 0.726692 0.027307
C153  C     C_R   0.422689 0.918219 0.773258 -0.057852
C154  C     C_R   0.918086 0.577164 0.773262 -0.057840
C155  C     C_R   0.577305 0.081794 0.773270 -0.057836
C156  C     C_R   0.081945 0.422868 0.773265 -0.057819
C157  C     C_R   0.422854 0.081931 0.226738 -0.057839
C158  C     C_R   0.918224 0.422676 0.226729 -0.057837
C159  C     C_R   0.577114 0.918038 0.226735 -0.057818
C160  C     C_R   0.081763 0.577329 0.226741 -0.057853
C161  C     C_R   0.921940 0.418927 0.273269 -0.057888
C162  C     C_R   0.419099 0.078225 0.273276 -0.057908
C163  C     C_R   0.078046 0.581079 0.273280 -0.057901
C164  C     C_R   0.580866 0.921738 0.273275 -0.057906
C165  C     C_R   0.921794 0.580919 0.726724 -0.057905
C166  C     C_R   0.418940 0.921934 0.726719 -0.057904
C167  C     C_R   0.078243 0.419116 0.726725 -0.057903
C168  C     C_R   0.581055 0.078079 0.726731 -0.057890
C169  C     C_R   0.589571 0.189450 0.551533 -0.162891
C170  C     C_R   0.189445 0.410403 0.551509 -0.162888
C171  C     C_R   0.410422 0.810557 0.551522 -0.162881
C172  C     C_R   0.810564 0.589586 0.551525 -0.162895
C173  C     C_R   0.589604 0.810554 0.448497 -0.162891
C174  C     C_R   0.189442 0.589570 0.448472 -0.162877
C175  C     C_R   0.410407 0.189437 0.448481 -0.162898
C176  C     C_R   0.810551 0.410436 0.448461 -0.162887
C177  C     C_R   0.089386 0.689437 0.051686 -0.163161
C178  C     C_R   0.689423 0.910679 0.051730 -0.163197
C179  C     C_R   0.910614 0.310571 0.051683 -0.163138
C180  C     C_R   0.310583 0.089342 0.051721 -0.163212
C181  C     C_R   0.089327 0.310576 0.948275 -0.163199
C182  C     C_R   0.689427 0.089380 0.948312 -0.163135
C183  C     C_R   0.910652 0.689418 0.948284 -0.163215
C184  C     C_R   0.310564 0.910620 0.948309 -0.163159
C185  C     C_R   0.639949 0.221073 0.568333 -0.191631
C186  C     C_R   0.221061 0.360001 0.568273 -0.191410
C187  C     C_R   0.360038 0.778936 0.568310 -0.191608
C188  C     C_R   0.778949 0.639981 0.568301 -0.191437
C189  C     C_R   0.640010 0.778938 0.431737 -0.191398
C190  C     C_R   0.221063 0.639951 0.431679 -0.191620
C191  C     C_R   0.360008 0.221052 0.431709 -0.191425
C192  C     C_R   0.778928 0.360061 0.431657 -0.191642
C193  C     C_R   0.139680 0.721067 0.068609 -0.192782
C194  C     C_R   0.721047 0.860411 0.068692 -0.193057
C195  C     C_R   0.860315 0.278946 0.068598 -0.192717
C196  C     C_R   0.278961 0.139619 0.068672 -0.193055
C197  C     C_R   0.139597 0.278952 0.931316 -0.193047
C198  C     C_R   0.721053 0.139676 0.931392 -0.192728
C199  C     C_R   0.860372 0.721040 0.931337 -0.193045
C200  C     C_R   0.278934 0.860329 0.931381 -0.192793
Cu1   Cu    Cu3+1 0.438180 1.000000 0.500000 0.963466
Cu2   Cu    Cu3+1 0.000000 0.561820 0.500000 0.963476
Cu3   Cu    Cu3+1 0.561820 1.000000 0.500000 0.963460
Cu4   Cu    Cu3+1 0.000000 0.438180 0.500000 0.963469
Cu5   Cu    Cu3+1 0.938180 0.500000 0.000000 0.962769
Cu6   Cu    Cu3+1 0.500000 0.061820 0.000000 0.962776
Cu7   Cu    Cu3+1 0.061820 0.500000 0.000000 0.962776
Cu8   Cu    Cu3+1 0.500000 0.938180 0.000000 0.962783
Cu9   Cu    Cu3+1 0.500000 0.500000 0.455560 0.991951
Cu10  Cu    Cu3+1 0.500000 0.500000 0.544440 0.991951
Cu11  Cu    Cu3+1 0.000000 1.000000 0.955560 0.991927
Cu12  Cu    Cu3+1 0.000000 1.000000 0.044440 0.991927
H1    H     H_    0.564789 0.073138 0.861949 0.149705
H2    H     H_    0.073250 0.435345 0.861942 0.149775
H3    H     H_    0.435221 0.926851 0.861937 0.149703
H4    H     H_    0.926745 0.564658 0.861939 0.149763
H5    H     H_    0.564640 0.926737 0.138058 0.149784
H6    H     H_    0.073136 0.564795 0.138062 0.149694
H7    H     H_    0.435357 0.073268 0.138061 0.149771
H8    H     H_    0.926875 0.435196 0.138051 0.149697
H9    H     H_    0.065392 0.572601 0.361960 0.149352
H10   H     H_    0.572454 0.934443 0.361957 0.149244
H11   H     H_    0.934608 0.427390 0.361951 0.149351
H12   H     H_    0.427531 0.065539 0.361957 0.149239
H13   H     H_    0.065541 0.427532 0.638044 0.149253
H14   H     H_    0.572596 0.065408 0.638049 0.149342
H15   H     H_    0.934476 0.572483 0.638043 0.149248
H16   H     H_    0.427413 0.934592 0.638040 0.149342
H17   H     H_    0.325734 0.195867 0.413332 0.179743
H18   H     H_    0.195881 0.674207 0.413289 0.179731
H19   H     H_    0.674288 0.804119 0.413365 0.179735
H20   H     H_    0.804105 0.325812 0.413256 0.179750
H21   H     H_    0.325778 0.804118 0.586697 0.179727
H22   H     H_    0.195879 0.325726 0.586648 0.179739
H23   H     H_    0.674201 0.195896 0.586730 0.179746
H24   H     H_    0.804134 0.674253 0.586681 0.179748
H25   H     H_    0.826232 0.695853 0.912838 0.179889
H26   H     H_    0.695868 0.173839 0.912920 0.179829
H27   H     H_    0.173726 0.304136 0.912810 0.179895
H28   H     H_    0.304114 0.826170 0.912900 0.179845
H29   H     H_    0.826149 0.304131 0.087069 0.179826
H30   H     H_    0.695862 0.826285 0.087201 0.179897
H31   H     H_    0.173842 0.695887 0.087088 0.179843
H32   H     H_    0.304148 0.173757 0.087172 0.179891
H33   H     H_    0.586008 0.141828 0.560791 0.161890
H34   H     H_    0.141825 0.413960 0.560773 0.161897
H35   H     H_    0.413982 0.858179 0.560782 0.161903
H36   H     H_    0.858187 0.586029 0.560784 0.161891
H37   H     H_    0.586048 0.858173 0.439231 0.161901
H38   H     H_    0.141819 0.586010 0.439214 0.161899
H39   H     H_    0.413963 0.141815 0.439220 0.161895
H40   H     H_    0.858174 0.413999 0.439204 0.161886
H41   H     H_    0.085792 0.641805 0.060914 0.161845
H42   H     H_    0.641790 0.914291 0.060955 0.161821
H43   H     H_    0.914207 0.358205 0.060911 0.161845
H44   H     H_    0.358216 0.085734 0.060947 0.161835
H45   H     H_    0.085716 0.358209 0.939049 0.161824
H46   H     H_    0.641793 0.085786 0.939085 0.161842
H47   H     H_    0.914259 0.641785 0.939057 0.161838
H48   H     H_    0.358197 0.914215 0.939082 0.161842
H49   H     H_    0.603751 0.364133 0.535461 0.167749
H50   H     H_    0.364127 0.396245 0.535441 0.167733
H51   H     H_    0.396251 0.635870 0.535459 0.167745
H52   H     H_    0.635878 0.603744 0.535467 0.167755
H53   H     H_    0.603759 0.635872 0.464566 0.167724
H54   H     H_    0.364129 0.603744 0.464533 0.167754
H55   H     H_    0.396252 0.364123 0.464540 0.167746
H56   H     H_    0.635868 0.396253 0.464532 0.167757
H57   H     H_    0.103723 0.864103 0.035524 0.167823
H58   H     H_    0.864080 0.896280 0.035539 0.167812
H59   H     H_    0.896278 0.135902 0.035527 0.167824
H60   H     H_    0.135921 0.103725 0.035536 0.167796
H61   H     H_    0.103723 0.135919 0.964467 0.167806
H62   H     H_    0.864097 0.103719 0.964467 0.167831
H63   H     H_    0.896272 0.864079 0.964470 0.167790
H64   H     H_    0.135897 0.896280 0.964470 0.167830
O1    O     O_R   0.447800 0.090110 0.500010 -0.584401
O2    O     O_R   0.090110 0.552200 0.500010 -0.584400
O3    O     O_R   0.552200 0.909890 0.500010 -0.584409
O4    O     O_R   0.909890 0.447800 0.500010 -0.584394
O5    O     O_R   0.447800 0.909890 0.499990 -0.584404
O6    O     O_R   0.090110 0.447800 0.499990 -0.584406
O7    O     O_R   0.552200 0.090110 0.499990 -0.584398
O8    O     O_R   0.909890 0.552200 0.499990 -0.584397
O9    O     O_R   0.947800 0.590110 0.000010 -0.584434
O10   O     O_R   0.590110 0.052200 0.000010 -0.584418
O11   O     O_R   0.052200 0.409890 0.000010 -0.584422
O12   O     O_R   0.409890 0.947800 0.000010 -0.584418
O13   O     O_R   0.947800 0.409890 0.999990 -0.584421
O14   O     O_R   0.590110 0.947800 0.999990 -0.584418
O15   O     O_R   0.052200 0.590110 0.999990 -0.584422
O16   O     O_R   0.409890 0.052200 0.999990 -0.584431
O17   O     O_R   0.447790 0.999910 0.564880 -0.586540
O18   O     O_R   0.999910 0.552210 0.564880 -0.586526
O19   O     O_R   0.552210 0.000090 0.564880 -0.586538
O20   O     O_R   0.000090 0.447790 0.564880 -0.586522
O21   O     O_R   0.447790 0.000090 0.435120 -0.586524
O22   O     O_R   0.999910 0.447790 0.435120 -0.586539
O23   O     O_R   0.552210 0.999910 0.435120 -0.586520
O24   O     O_R   0.000090 0.552210 0.435120 -0.586541
O25   O     O_R   0.947790 0.499910 0.064880 -0.586705
O26   O     O_R   0.499910 0.052210 0.064880 -0.586703
O27   O     O_R   0.052210 0.500090 0.064880 -0.586692
O28   O     O_R   0.500090 0.947790 0.064880 -0.586711
O29   O     O_R   0.947790 0.500090 0.935120 -0.586701
O30   O     O_R   0.499910 0.947790 0.935120 -0.586693
O31   O     O_R   0.052210 0.499910 0.935120 -0.586710
O32   O     O_R   0.500090 0.052210 0.935120 -0.586707
O33   O     O_R   0.409850 0.499950 0.462440 -0.576622
O34   O     O_R   0.499950 0.590150 0.462440 -0.576612
O35   O     O_R   0.590150 0.500050 0.462440 -0.576611
O36   O     O_R   0.500050 0.409850 0.462440 -0.576623
O37   O     O_R   0.409850 0.500050 0.537560 -0.576614
O38   O     O_R   0.499950 0.409850 0.537560 -0.576609
O39   O     O_R   0.590150 0.499950 0.537560 -0.576624
O40   O     O_R   0.500050 0.590150 0.537560 -0.576621
O41   O     O_R   0.909850 0.999950 0.962440 -0.576653
O42   O     O_R   0.999950 0.090150 0.962440 -0.576660
O43   O     O_R   0.090150 0.000050 0.962440 -0.576674
O44   O     O_R   0.000050 0.909850 0.962440 -0.576668
O45   O     O_R   0.909850 0.000050 0.037560 -0.576661
O46   O     O_R   0.999950 0.909850 0.037560 -0.576673
O47   O     O_R   0.090150 0.999950 0.037560 -0.576669
O48   O     O_R   0.000050 0.090150 0.037560 -0.576652
C201  C     C_R   0.386188 0.870759 0.796665 0.112913
C202  C     C_R   0.322359 0.876963 0.801031 -0.129601
C203  C     C_R   0.287370 0.828244 0.817377 -0.124997
C204  C     C_R   0.315975 0.773479 0.829816 -0.104163
C205  C     C_R   0.379681 0.767826 0.826884 -0.152897
C206  C     C_R   0.414772 0.816262 0.810298 -0.161532
H65   H     H_    0.299688 0.918664 0.790464 0.131759
H66   H     H_    0.238057 0.832703 0.820025 0.147354
H67   H     H_    0.288871 0.735453 0.841880 0.179135
H68   H     H_    0.401756 0.725514 0.836747 0.140162
H69   H     H_    0.463904 0.810701 0.806762 0.136516
C207  C     C_R   0.870561 0.613580 0.796672 0.112973
C208  C     C_R   0.876653 0.677419 0.801040 -0.129868
C209  C     C_R   0.827873 0.712319 0.817392 -0.124844
C210  C     C_R   0.773166 0.683612 0.829843 -0.103853
C211  C     C_R   0.767622 0.619896 0.826905 -0.153039
C212  C     C_R   0.816116 0.584895 0.810305 -0.161398
H70   H     H_    0.918312 0.700167 0.790473 0.131781
H71   H     H_    0.832245 0.761641 0.820037 0.147600
H72   H     H_    0.735099 0.710646 0.841922 0.179033
H73   H     H_    0.725354 0.597744 0.836772 0.140137
H74   H     H_    0.810640 0.535754 0.806765 0.136520
C213  C     C_R   0.613789 0.129270 0.796686 0.112877
C214  C     C_R   0.677634 0.123145 0.800994 -0.129465
C215  C     C_R   0.712585 0.171882 0.817362 -0.125008
C216  C     C_R   0.683927 0.226581 0.829885 -0.104262
C217  C     C_R   0.620208 0.232152 0.827014 -0.152912
C218  C     C_R   0.585155 0.183702 0.810399 -0.161571
H75   H     H_    0.700345 0.081495 0.790369 0.131765
H76   H     H_    0.761909 0.167487 0.819962 0.147346
H77   H     H_    0.711000 0.264618 0.841973 0.179100
H78   H     H_    0.598091 0.274409 0.836948 0.140193
H79   H     H_    0.536009 0.189201 0.806914 0.136570
C219  C     C_R   0.129491 0.386481 0.796679 0.112946
C220  C     C_R   0.123486 0.322625 0.800988 -0.129865
C221  C     C_R   0.172288 0.287773 0.817360 -0.124767
C222  C     C_R   0.226926 0.316543 0.829896 -0.103837
C223  C     C_R   0.232379 0.380271 0.827020 -0.153130
C224  C     C_R   0.183867 0.415225 0.810395 -0.161432
H80   H     H_    0.081880 0.299830 0.790362 0.131799
H81   H     H_    0.167986 0.238441 0.819957 0.147691
H82   H     H_    0.265009 0.289548 0.841995 0.179034
H83   H     H_    0.274592 0.402473 0.836957 0.140154
H84   H     H_    0.189273 0.464381 0.806908 0.136571
C225  C     C_R   0.386448 0.129464 0.203328 0.112977
C226  C     C_R   0.322607 0.123387 0.198962 -0.129894
C227  C     C_R   0.287718 0.172172 0.182607 -0.124833
C228  C     C_R   0.316438 0.226870 0.170151 -0.103826
C229  C     C_R   0.380155 0.232399 0.173087 -0.153050
C230  C     C_R   0.415145 0.183900 0.189691 -0.161389
H85   H     H_    0.299849 0.081735 0.209532 0.131784
H86   H     H_    0.238395 0.167812 0.179964 0.147628
H87   H     H_    0.289413 0.264941 0.158068 0.179022
H88   H     H_    0.402317 0.274661 0.163216 0.140135
H89   H     H_    0.464288 0.189364 0.193229 0.136521
C231  C     C_R   0.870756 0.386182 0.203314 0.112873
C232  C     C_R   0.876896 0.322338 0.199003 -0.129439
C233  C     C_R   0.828165 0.287376 0.182638 -0.125020
C234  C     C_R   0.773457 0.316021 0.170121 -0.104290
C235  C     C_R   0.767870 0.379739 0.172993 -0.152900
C236  C     C_R   0.816315 0.414803 0.189605 -0.161579
H90   H     H_    0.918553 0.299638 0.209626 0.131762
H91   H     H_    0.832572 0.238053 0.180037 0.147317
H92   H     H_    0.735424 0.288939 0.158037 0.179111
H93   H     H_    0.725606 0.401845 0.163064 0.140195
H94   H     H_    0.810804 0.463948 0.193091 0.136568
C237  C     C_R   0.613491 0.870485 0.203321 0.112950
C238  C     C_R   0.677349 0.876474 0.199014 -0.129891
C239  C     C_R   0.712190 0.827666 0.182640 -0.124755
C240  C     C_R   0.683407 0.773037 0.170098 -0.103810
C241  C     C_R   0.619677 0.767599 0.172972 -0.153139
C242  C     C_R   0.584734 0.816117 0.189600 -0.161423
H95   H     H_    0.700153 0.918073 0.209643 0.131801
H96   H     H_    0.761523 0.831957 0.180044 0.147720
H97   H     H_    0.710393 0.734950 0.157996 0.179023
H98   H     H_    0.597465 0.725394 0.163031 0.140151
H99   H     H_    0.535577 0.810722 0.193085 0.136573
C243  C     C_R   0.129215 0.613842 0.203335 0.112909
C244  C     C_R   0.122995 0.677669 0.198967 -0.129572
C245  C     C_R   0.171708 0.712669 0.182624 -0.125010
C246  C     C_R   0.226482 0.684078 0.170190 -0.104192
C247  C     C_R   0.232151 0.620374 0.173123 -0.152885
C248  C     C_R   0.183721 0.585271 0.189706 -0.161542
H100  H     H_    0.081287 0.700330 0.209531 0.131756
H101  H     H_    0.167236 0.761981 0.179974 0.147324
H102  H     H_    0.264503 0.711191 0.158130 0.179146
H103  H     H_    0.274470 0.598309 0.163264 0.140164
H104  H     H_    0.189294 0.536140 0.193244 0.136515
C249  C     C_R   0.884985 0.371813 0.296664 0.112699
C250  C     C_R   0.821232 0.378681 0.301084 -0.128542
C251  C     C_R   0.785734 0.330237 0.317289 -0.125741
C252  C     C_R   0.813754 0.275068 0.329484 -0.105026
C253  C     C_R   0.877396 0.268759 0.326531 -0.152122
C254  C     C_R   0.912997 0.316937 0.310120 -0.161969
H105  H     H_    0.798999 0.420675 0.290637 0.131598
H106  H     H_    0.736473 0.335200 0.319970 0.146144
H107  H     H_    0.786248 0.237226 0.341367 0.179640
H108  H     H_    0.899017 0.226136 0.336217 0.140561
H109  H     H_    0.962061 0.310864 0.306530 0.136545
C255  C     C_R   0.372056 0.115271 0.296667 0.112743
C256  C     C_R   0.379077 0.179005 0.301118 -0.128421
C257  C     C_R   0.330684 0.214613 0.317276 -0.125814
C258  C     C_R   0.275411 0.186723 0.329383 -0.105093
C259  C     C_R   0.268950 0.123099 0.326408 -0.152023
C260  C     C_R   0.317079 0.087386 0.310050 -0.161906
H110  H     H_    0.421148 0.201139 0.290723 0.131532
H111  H     H_    0.335762 0.263861 0.319973 0.145914
H112  H     H_    0.237603 0.214318 0.341211 0.179699
H113  H     H_    0.226247 0.101578 0.336028 0.140573
H114  H     H_    0.310888 0.038341 0.306432 0.136494
C261  C     C_R   0.114989 0.628204 0.296681 0.112735
C262  C     C_R   0.178747 0.621365 0.301092 -0.128509
C263  C     C_R   0.214224 0.669810 0.317324 -0.125746
C264  C     C_R   0.186179 0.724950 0.329557 -0.105126
C265  C     C_R   0.122534 0.731229 0.326614 -0.152102
C266  C     C_R   0.086953 0.683053 0.310171 -0.161872
H115  H     H_    0.200997 0.579391 0.290624 0.131568
H116  H     H_    0.263489 0.664870 0.319998 0.146138
H117  H     H_    0.213669 0.762791 0.341467 0.179655
H118  H     H_    0.100893 0.773826 0.336336 0.140566
H119  H     H_    0.037884 0.689103 0.306594 0.136544
C267  C     C_R   0.627880 0.884657 0.296668 0.112705
C268  C     C_R   0.620814 0.820928 0.301110 -0.128306
C269  C     C_R   0.669181 0.785284 0.317267 -0.125863
C270  C     C_R   0.724474 0.813134 0.329381 -0.105200
C271  C     C_R   0.730978 0.876754 0.326417 -0.151989
C272  C     C_R   0.682874 0.912503 0.310062 -0.162031
H120  H     H_    0.578729 0.798824 0.290705 0.131537
H121  H     H_    0.664068 0.736039 0.319959 0.145846
H122  H     H_    0.762264 0.785510 0.341205 0.179726
H123  H     H_    0.773696 0.898244 0.336043 0.140589
H124  H     H_    0.689098 0.961545 0.306452 0.136506
C273  C     C_R   0.884760 0.627972 0.703333 0.112744
C274  C     C_R   0.821024 0.620970 0.698883 -0.128452
C275  C     C_R   0.785430 0.669372 0.682724 -0.125799
C276  C     C_R   0.813336 0.724634 0.670611 -0.105058
C277  C     C_R   0.876963 0.731076 0.673585 -0.152042
C278  C     C_R   0.912661 0.682939 0.689947 -0.161897
H125  H     H_    0.798878 0.578906 0.709281 0.131538
H126  H     H_    0.736180 0.664308 0.680027 0.145944
H127  H     H_    0.785752 0.762449 0.658779 0.179691
H128  H     H_    0.898496 0.773771 0.663961 0.140571
H129  H     H_    0.961709 0.689116 0.693563 0.136498
C279  C     C_R   0.371825 0.884979 0.703318 0.112735
C280  C     C_R   0.378684 0.821223 0.698905 -0.128478
C281  C     C_R   0.330248 0.785731 0.682676 -0.125762
C282  C     C_R   0.275096 0.813759 0.670449 -0.105161
C283  C     C_R   0.268798 0.877402 0.673393 -0.152083
C284  C     C_R   0.316966 0.912998 0.689833 -0.161881
H130  H     H_    0.420667 0.798986 0.709370 0.131562
H131  H     H_    0.335204 0.736468 0.680000 0.146105
H132  H     H_    0.237263 0.786257 0.658542 0.179663
H133  H     H_    0.226192 0.899029 0.663675 0.140569
H134  H     H_    0.310900 0.962064 0.693411 0.136540
C285  C     C_R   0.115311 0.372092 0.703332 0.112706
C286  C     C_R   0.179043 0.379138 0.698892 -0.128337
C287  C     C_R   0.214673 0.330763 0.682732 -0.125848
C288  C     C_R   0.186806 0.275481 0.670613 -0.105167
C289  C     C_R   0.123184 0.268995 0.673576 -0.152006
C290  C     C_R   0.087449 0.317108 0.689934 -0.162022
H135  H     H_    0.201159 0.421216 0.709300 0.131544
H136  H     H_    0.263919 0.335861 0.680042 0.145877
H137  H     H_    0.214418 0.237684 0.658786 0.179719
H138  H     H_    0.101681 0.226285 0.663946 0.140587
H139  H     H_    0.038405 0.310898 0.693543 0.136510
C291  C     C_R   0.628159 0.115046 0.703336 0.112698
C292  C     C_R   0.621273 0.178797 0.698914 -0.128512
C293  C     C_R   0.669708 0.214308 0.682711 -0.125756
C294  C     C_R   0.724888 0.186304 0.670521 -0.105059
C295  C     C_R   0.731215 0.122665 0.673476 -0.152105
C296  C     C_R   0.683045 0.087050 0.689883 -0.161979
H140  H     H_    0.579271 0.201017 0.709359 0.131592
H141  H     H_    0.664731 0.263568 0.680029 0.146113
H142  H     H_    0.762724 0.213822 0.658642 0.179648
H143  H     H_    0.773845 0.101056 0.663793 0.140564
H144  H     H_    0.689132 0.037988 0.693474 0.136542
C297  C     C_2   0.701061 0.317815 0.577119 0.825707
O49   O     O_2   0.745188 0.289808 0.591771 -0.622476
O50   O     O_R   0.702915 0.381887 0.574752 -0.774494
H145  H     H_    0.743127 0.399513 0.585820 0.337314
C298  C     C_2   0.317790 0.298864 0.576999 0.825680
O51   O     O_2   0.289771 0.254698 0.591583 -0.622364
O52   O     O_R   0.381863 0.297018 0.574651 -0.774513
H146  H     H_    0.399480 0.256774 0.585668 0.337309
C299  C     C_2   0.298920 0.682198 0.577088 0.825711
O53   O     O_2   0.254784 0.710210 0.591707 -0.622493
O54   O     O_R   0.297074 0.618124 0.574737 -0.774504
H147  H     H_    0.256853 0.600506 0.585785 0.337327
C300  C     C_2   0.682219 0.701113 0.577047 0.825691
O55   O     O_2   0.710237 0.745260 0.591661 -0.622407
O56   O     O_R   0.618147 0.702972 0.574678 -0.774514
H148  H     H_    0.600532 0.743208 0.585710 0.337317
C301  C     C_2   0.701149 0.682209 0.423018 0.825672
O57   O     O_2   0.745323 0.710229 0.408448 -0.622346
O58   O     O_R   0.702988 0.618136 0.425357 -0.774516
H149  H     H_    0.743235 0.600519 0.414345 0.337309
C302  C     C_2   0.317801 0.701067 0.422893 0.825720
O59   O     O_2   0.289790 0.745194 0.408260 -0.622511
O60   O     O_R   0.381875 0.702920 0.425255 -0.774502
H150  H     H_    0.399493 0.743137 0.414201 0.337328
C303  C     C_2   0.298874 0.317781 0.422970 0.825683
O61   O     O_2   0.254719 0.289762 0.408370 -0.622390
O62   O     O_R   0.297022 0.381854 0.425330 -0.774516
H151  H     H_    0.256782 0.399470 0.414303 0.337316
C304  C     C_2   0.682185 0.298951 0.422864 0.825714
O63   O     O_2   0.710192 0.254833 0.408198 -0.622493
O64   O     O_R   0.618115 0.297091 0.425240 -0.774492
H152  H     H_    0.600489 0.256881 0.414166 0.337314
C305  C     C_2   0.200764 0.817807 0.077551 0.826007
O65   O     O_2   0.244550 0.789838 0.092751 -0.623416
O66   O     O_R   0.202912 0.881836 0.074734 -0.774420
H153  H     H_    0.243027 0.899456 0.085983 0.337390
C306  C     C_2   0.817778 0.799332 0.077678 0.826140
O67   O     O_2   0.789820 0.755682 0.093099 -0.623685
O68   O     O_R   0.881785 0.797054 0.074673 -0.774416
H154  H     H_    0.899400 0.756971 0.085987 0.337392
C307  C     C_2   0.799227 0.182212 0.077527 0.825973
O69   O     O_2   0.755403 0.210194 0.092673 -0.623302
O70   O     O_R   0.797109 0.118179 0.074767 -0.774381
H155  H     H_    0.756979 0.100560 0.085999 0.337369
C308  C     C_2   0.182231 0.200701 0.077644 0.826071
O71   O     O_2   0.210195 0.244387 0.093014 -0.623594
O72   O     O_R   0.118218 0.202950 0.074683 -0.774407
H156  H     H_    0.100603 0.243042 0.085983 0.337393
C309  C     C_2   0.200678 0.182221 0.922336 0.826134
O73   O     O_2   0.244335 0.210180 0.906926 -0.623671
O74   O     O_R   0.202950 0.118213 0.925333 -0.774418
H157  H     H_    0.243036 0.100598 0.914023 0.337392
C310  C     C_2   0.817787 0.200763 0.922459 0.825979
O75   O     O_2   0.789806 0.244580 0.907301 -0.623316
O76   O     O_R   0.881819 0.202886 0.925226 -0.774379
H158  H     H_    0.899438 0.243013 0.913990 0.337369
C311  C     C_2   0.799288 0.817770 0.922370 0.826065
O77   O     O_2   0.755596 0.789805 0.907010 -0.623581
O78   O     O_R   0.797046 0.881783 0.925323 -0.774409
H159  H     H_    0.756951 0.899398 0.914027 0.337393
C312  C     C_2   0.182194 0.799246 0.922434 0.826014
O79   O     O_2   0.210162 0.755468 0.907222 -0.623431
O80   O     O_R   0.118166 0.797092 0.925259 -0.774419
H160  H     H_    0.100546 0.756980 0.914005 0.337391

loop_
_geom_bond_atom_site_label_1
_geom_bond_atom_site_label_2
_ccdc_geom_bond_type
C275  C276  A    
C93   O41   A    
C153  C166  A    
C130  C146  A    
C256  C257  A    
O64   H152  S    
C95   O43   A    
C258  C259  A    
C53   C69   A    
C286  C287  A    
C42   C58   A    
C208  C209  A    
Cu2   O8    S    
C105  C131  A    
C179  C195  A    
C263  C264  A    
C106  C132  A    
C233  C234  A    
C177  C193  A    
C46   C62   A    
C162  C255  S    
C161  C249  S    
C112  C124  A    
C58   C82   A    
C221  H81   S    
C181  H45   S    
C40   H64   S    
C288  H137  S    
C22   C38   A    
C153  C201  S    
C284  H134  S    
C228  C229  A    
C310  O75   D    
Cu3   O23   S    
C283  H133  S    
C64   C84   A    
C75   C90   S    
O72   H156  S    
C103  O29   A    
C205  H68   S    
C202  C203  A    
C129  C145  A    
C253  H108  S    
C180  C196  A    
C107  C129  A    
C143  C151  A    
C289  H138  S    
C108  C122  A    
C59   C171  A    
C5    O15   A    
C11   C299  S    
C43   C75   A    
C255  C260  A    
C135  C159  A    
O80   H160  S    
C160  C163  A    
C71   C183  A    
C147  C150  A    
C211  C212  A    
C72   C184  A    
C228  H87   S    
C25   C41   A    
C299  O54   S    
C282  C283  A    
C217  H78   S    
C38   H62   S    
C280  C281  A    
C28   C44   A    
C171  H35   S    
C190  H18   S    
C246  H102  S    
C1    O1    A    
C204  H67   S    
C102  O26   A    
Cu11  O42   S    
C3    O3    A    
C271  H123  S    
C4    C84   S    
C11   C27   A    
Cu12  O45   S    
C212  H74   S    
Cu1   O21   S    
C120  C142  A    
C138  C162  A    
C283  C284  A    
C113  H9    S    
C187  H21   S    
Cu6   O32   S    
C280  H130  S    
C98   C127  S    
C185  H23   S    
C9    C297  S    
C305  O66   S    
C35   C51   A    
C232  C233  A    
C119  C141  A    
Cu7   O31   S    
C291  C292  A    
C234  C235  A    
C262  C263  A    
C272  H124  S    
C275  H126  S    
C115  H11   S    
C24   C312  S    
C15   C191  A    
C188  H24   S    
C281  C282  A    
C154  C207  S    
C21   C197  A    
C207  C208  A    
C176  H40   S    
C248  H104  S    
C239  C240  A    
C173  H37   S    
C269  C270  A    
C309  O74   S    
C19   C35   A    
C246  C247  A    
C252  C253  A    
C47   C63   A    
C197  H27   S    
C312  O80   S    
C301  O57   D    
C94   O48   A    
C214  C215  A    
C230  H89   S    
Cu5   O13   S    
C216  C217  A    
C99   O23   A    
C240  C241  A    
C254  H109  S    
C8    O12   A    
C303  O62   S    
C107  H3    S    
C24   C200  A    
Cu1   O17   S    
C227  H86   S    
C257  C258  A    
C220  C221  A    
C266  H119  S    
C170  H34   S    
C182  H46   S    
Cu3   O19   S    
C300  O56   S    
C265  H118  S    
C89   O37   A    
C157  C162  A    
C93   O45   A    
C6    O14   A    
Cu10  O40   S    
C231  C232  A    
C137  C161  A    
C222  H82   S    
C215  C216  A    
C23   C311  S    
C109  C135  A    
C224  H84   S    
C48   C76   A    
C110  C136  A    
C217  C218  A    
C251  C252  A    
C181  C197  A    
C96   O44   A    
C226  C227  A    
C277  C278  A    
C118  H14   S    
C167  C285  S    
C238  H95   S    
C294  H142  S    
Cu12  O48   S    
C281  H131  S    
C114  C126  A    
C223  C224  A    
Cu12  O47   S    
C209  H71   S    
Cu4   O6    S    
C168  C291  S    
C45   C61   A    
C44   C76   A    
C234  H92   S    
Cu5   O25   S    
C213  C218  A    
C268  H120  S    
C278  H129  S    
C115  C137  A    
C16   C304  S    
C184  C200  A    
C273  C278  A    
C113  C139  A    
C154  C165  A    
C296  H144  S    
C133  C147  A    
C114  C140  A    
C64   C176  A    
C108  C130  A    
C208  H70   S    
C36   C52   A    
C43   C59   A    
C10   C298  S    
Cu1   O1    S    
C210  H72   S    
C297  O49   D    
Cu1   Cu3   S    
C111  H7    S    
Cu9   O34   S    
C97   C128  S    
C221  C222  A    
C70   C182  A    
Cu9   Cu10  S    
C99   C126  S    
Cu5   Cu7   S    
C36   H60   S    
C106  H2    S    
C39   C55   A    
C298  O52   S    
C101  C124  S    
C274  C275  A    
C31   H55   S    
C160  C243  S    
C245  C246  A    
C79   C94   S    
Cu3   O3    S    
C1    O7    A    
C285  C290  A    
C109  C123  A    
C56   C72   A    
C269  H121  S    
C17   C305  S    
C225  C230  A    
C8    C88   S    
Cu6   O16   S    
C307  O69   D    
C99   O21   A    
C142  C166  A    
C18   C34   A    
C241  H98   S    
C175  H39   S    
C289  C290  A    
C191  H17   S    
C143  C167  A    
C106  C122  A    
C96   O46   A    
C287  C288  A    
C112  H8    S    
C130  C154  A    
C51   C67   A    
C80   C95   S    
Cu4   O22   S    
C302  O60   S    
Cu8   O14   S    
C136  C148  A    
C90   O40   A    
Cu10  O38   S    
C20   C308  S    
C267  C272  A    
Cu11  O43   S    
C255  C256  A    
C134  C158  A    
C135  C147  A    
C206  H69   S    
C211  H73   S    
O56   H148  S    
C259  C260  A    
C26   C42   A    
C243  C244  A    
C39   H63   S    
C273  C274  A    
C166  C279  S    
C251  H106  S    
C30   C46   A    
C34   H58   S    
C73   C92   S    
C204  C205  A    
C2    O2    A    
O60   H150  S    
C15   C31   A    
C178  H42   S    
C140  C164  A    
C77   C96   S    
C141  C165  A    
C56   C80   A    
C139  C163  A    
C244  H100  S    
C144  C152  A    
C235  H93   S    
C129  C153  A    
C65   C177  A    
C233  H91   S    
C308  O72   S    
C49   C77   A    
Cu4   O20   S    
C133  C157  A    
C291  C296  A    
C195  H29   S    
C132  C156  A    
C51   C79   A    
C145  C152  A    
C109  H5    S    
C262  H115  S    
C76   C91   S    
C41   C73   A    
C146  C151  A    
C14   C190  A    
Cu3   O7    S    
C21   C309  S    
C279  C280  A    
C6    O10   A    
C312  O79   D    
C69   C181  A    
O68   H154  S    
C159  C164  A    
C144  C168  A    
Cu9   O36   S    
C311  O77   D    
C305  O65   D    
C215  H76   S    
O54   H147  S    
C186  H22   S    
C119  C127  A    
C259  H113  S    
C239  H96   S    
C249  C250  A    
C29   H53   S    
C292  H140  S    
C285  C286  A    
C9    C25   A    
C2    O6    A    
C178  C194  A    
C184  H48   S    
Cu2   Cu4   S    
C12   C28   A    
O70   H155  S    
C97   O17   A    
C13   C29   A    
C59   C83   A    
C240  H97   S    
Cu7   O11   S    
C299  O53   D    
Cu6   Cu8   S    
Cu8   O12   S    
C18   C194  A    
C12   C300  S    
C33   C49   A    
C227  C228  A    
C50   C78   A    
Cu2   O18   S    
C293  C294  A    
C53   C79   A    
C142  C152  A    
C304  O63   D    
C264  C265  A    
C198  H26   S    
C158  C161  A    
C110  C124  A    
Cu11  O41   S    
C7    C87   S    
Cu12  O46   S    
C40   C56   A    
C117  C143  A    
C90   O34   A    
C120  H16   S    
C226  H85   S    
C69   C87   A    
C8    O16   A    
C62   C82   A    
C31   C47   A    
C294  C295  A    
C310  O76   S    
O52   H146  S    
C17   C33   A    
C199  H25   S    
C223  H83   S    
C311  O78   S    
C42   C74   A    
C111  C123  A    
C268  C269  A    
C237  C238  A    
C277  H128  S    
C47   C73   A    
C61   C83   A    
C35   H59   S    
C213  C214  A    
Cu6   O26   S    
C15   C303  S    
C13   C301  S    
C295  H143  S    
C139  C149  A    
C104  O30   A    
Cu5   O9    S    
Cu8   O30   S    
C293  H141  S    
C116  H12   S    
C265  C266  A    
C200  H28   S    
C66   C86   A    
C309  O73   D    
C10   C186  A    
C174  H38   S    
C25   H49   S    
C210  C211  A    
C38   C54   A    
C155  C168  A    
O50   H145  S    
C27   H51   S    
C170  C186  A    
C1    C81   S    
C201  C206  A    
C114  H10   S    
C63   C175  A    
C117  C127  A    
C290  H139  S    
C108  H4    S    
C174  C190  A    
C63   C81   A    
C183  H47   S    
C274  H125  S    
C250  C251  A    
C2    C82   S    
C16   C32   A    
C245  H101  S    
C107  C121  A    
C100  O22   A    
C177  H41   S    
C301  O58   S    
C261  C266  A    
C192  H20   S    
C24   C40   A    
C189  H19   S    
C97   O19   A    
C22   C198  A    
C98   O20   A    
C238  C239  A    
C6    C86   S    
C242  H99   S    
C241  C242  A    
C120  C128  A    
C258  H112  S    
Cu2   O24   S    
C287  H136  S    
C14   C302  S    
C45   C75   A    
C132  C146  A    
C131  C155  A    
C41   C57   A    
C203  C204  A    
C67   C179  A    
C286  H135  S    
C175  C191  A    
C7    O13   A    
C32   C48   A    
C44   C60   A    
C164  C267  S    
C112  C134  A    
C158  C231  S    
C179  H43   S    
C201  C202  A    
C169  C185  A    
C243  C248  A    
C20   C36   A    
C27   C43   A    
C21   C37   A    
C276  C277  A    
C288  C289  A    
C29   C45   A    
Cu4   O4    S    
C247  C248  A    
C169  H33   S    
C52   C80   A    
C103  C122  S    
C249  C254  A    
O62   H151  S    
C54   C78   A    
C62   C174  A    
C19   C195  A    
C267  C268  A    
C23   C199  A    
C205  C206  A    
C17   C193  A    
C244  C245  A    
C182  C198  A    
C57   C169  A    
Cu9   O33   S    
O76   H158  S    
C235  C236  A    
C253  C254  A    
C180  H44   S    
C119  H15   S    
O58   H149  S    
C138  C150  A    
C155  C213  S    
C66   C178  A    
C117  H13   S    
C298  O51   D    
C104  O32   A    
O66   H153  S    
C49   C65   A    
C196  H32   S    
C11   C187  A    
C216  H77   S    
C74   C89   S    
C159  C237  S    
C58   C170  A    
C9    C185  A    
C163  C261  S    
C203  H66   S    
C55   C77   A    
C23   C39   A    
C176  C192  A    
C22   C310  S    
C113  C125  A    
C279  C284  A    
C172  H36   S    
C78   C93   S    
C270  H122  S    
C12   C188  A    
C156  C219  S    
C13   C189  A    
C300  O55   D    
C16   C192  A    
C48   C64   A    
C4    O8    A    
C71   C85   A    
Cu11  Cu12  S    
C54   C70   A    
C276  H127  S    
C292  C293  A    
C55   C71   A    
C30   H54   S    
C100  O24   A    
C302  O59   D    
C5    O9    A    
C52   C68   A    
Cu10  O39   S    
C264  H117  S    
C37   H61   S    
C10   C26   A    
C271  C272  A    
C306  O68   S    
C116  C126  A    
C218  H79   S    
C137  C149  A    
C98   O18   A    
C18   C306  S    
C118  C128  A    
C14   C30   A    
C232  H90   S    
C72   C88   A    
C214  H75   S    
C116  C138  A    
C257  H111  S    
C237  C242  A    
C282  H132  S    
C92   O38   A    
C34   C50   A    
C105  H1    S    
C100  C125  S    
C60   C172  A    
Cu7   O27   S    
C61   C173  A    
C148  C149  A    
Cu8   O28   S    
C5    C85   S    
Cu1   O5    S    
O74   H157  S    
C91   O39   A    
Cu2   O2    S    
C95   O47   A    
C104  C121  S    
C156  C167  A    
C306  O67   D    
C28   H52   S    
C68   C180  A    
C183  C199  A    
C236  H94   S    
C136  C160  A    
C131  C145  A    
C229  H88   S    
C207  C212  A    
O78   H159  S    
C256  H110  S    
C94   O42   A    
C308  O71   D    
C105  C121  A    
C219  C224  A    
C7    O11   A    
C252  H107  S    
C50   C66   A    
C220  H80   S    
C250  H105  S    
C270  C271  A    
C103  O31   A    
C297  O50   S    
C68   C88   A    
C57   C81   A    
Cu9   O35   S    
C118  C144  A    
C70   C86   A    
C140  C150  A    
C46   C74   A    
C141  C151  A    
C225  C226  A    
C92   O36   A    
C165  C273  S    
C295  C296  A    
C194  H30   S    
C33   H57   S    
C101  O25   A    
Cu6   O10   S    
C19   C307  S    
C111  C133  A    
Cu7   O15   S    
C193  H31   S    
C89   O33   A    
C263  H116  S    
C65   C85   A    
C26   H50   S    
C91   O35   A    
C134  C148  A    
C222  C223  A    
C67   C87   A    
C115  C125  A    
C171  C187  A    
C247  H103  S    
C37   C53   A    
C307  O70   S    
C229  C230  A    
C3    C83   S    
C60   C84   A    
C260  H114  S    
C172  C188  A    
C4    O4    A    
C173  C189  A    
C304  O64   S    
C231  C236  A    
C32   H56   S    
C219  C220  A    
C110  H6    S    
C101  O27   A    
Cu10  O37   S    
C102  O28   A    
C261  C262  A    
Cu11  O44   S    
C3    O5    A    
C209  C210  A    
C202  H65   S    
C157  C225  S    
C303  O61   D    
C20   C196  A    
Cu5   O29   S    
C102  C123  S    
