data_mof_unit_66665.cif
_audit_creation_date              2013-03-05T16:47:31-0500
_audit_creation_method            fapswitch 2.2
_symmetry_space_group_name_H-M    P1
_symmetry_Int_Tables_number       1
_space_group_crystal_system       triclinic
_cell_length_a                    11.138095
_cell_length_b                    11.049053
_cell_length_c                    10.032855
_cell_angle_alpha                 98.395518
_cell_angle_beta                  97.428571
_cell_angle_gamma                 93.530763
_cell_volume                      1207.13290988

loop_
_atom_site_label
_atom_site_type_symbol
_atom_site_description
_atom_site_fract_x
_atom_site_fract_y
_atom_site_fract_z
_atom_type_partial_charge
O1    O     O_R   0.517830 0.337490 0.617920 -0.587021
O2    O     O_R   0.482170 0.662510 0.382080 -0.543650
O3    O     O_R   0.482150 0.301790 0.382070 -0.566747
O4    O     O_R   0.517850 0.698210 0.617930 -0.564236
C1    C     C_R   0.497071 0.262280 0.499418 0.781305
C2    C     C_R   0.500919 0.737305 0.500220 0.792259
O5    O     O_R   0.337480 0.517860 0.617920 -0.527069
O6    O     O_R   0.662520 0.482140 0.382080 -0.536867
O7    O     O_R   0.301810 0.482160 0.382070 -0.580588
O8    O     O_R   0.698190 0.517840 0.617930 -0.589118
C3    C     C_R   0.262835 0.500734 0.500388 0.755401
C4    C     C_R   0.737668 0.503694 0.499377 0.809709
Cu1   Cu    Cu3+1 0.521120 0.521140 0.639640 0.993368
Cu2   Cu    Cu3+1 0.478880 0.478860 0.360360 1.002675
H1    H     H_    0.031540 0.183760 0.903168 0.178119
H2    H     H_    0.911322 0.617228 0.146522 0.177518
C5    C     C_R   0.091597 0.360912 0.019626 -0.142235
C6    C     C_R   0.868399 0.493372 0.958007 -0.158896
H3    H     H_    0.103392 0.401848 0.930754 0.196705
H4    H     H_    0.835733 0.417925 0.005104 0.165288
C7    C     C_R   0.104852 0.434023 0.147179 -0.140480
C8    C     C_R   0.879029 0.475017 0.819945 -0.152616
H5    H     H_    0.128413 0.531705 0.156060 0.179883
H6    H     H_    0.857334 0.384050 0.761434 0.167621
C9    C     C_R   0.075800 0.383138 0.259809 0.074973
C10   C     C_R   0.921970 0.572526 0.758793 0.065758
C11   C     C_R   0.046550 0.255371 0.246600 0.304391
C12   C     C_R   0.952541 0.689757 0.836586 0.303986
C13   C     C_R   0.029373 0.184707 0.116947 -0.171302
C14   C     C_R   0.949427 0.704305 0.977638 -0.127377
H7    H     H_    0.997229 0.089138 0.103807 0.153416
H8    H     H_    0.978557 0.790659 0.042376 0.170727
C15   C     C_R   0.049023 0.237936 0.003563 -0.206042
C16   C     C_R   0.909323 0.606129 0.037494 -0.153581
C17   C     C_R   0.920758 0.479772 0.379041 -0.234701
C18   C     C_R   0.082199 0.552259 0.615052 -0.208804
H9    H     H_    0.860425 0.456446 0.284260 0.171102
H10   H     H_    0.143351 0.591045 0.704771 0.218848
C19   C     C_R   0.872783 0.510801 0.500498 -0.082709
C20   C     C_R   0.128865 0.505347 0.497679 -0.082003
C21   C     C_R   0.956862 0.545797 0.621256 0.008751
C22   C     C_R   0.044935 0.463863 0.378878 0.053499
C23   C     C_R   0.306873 0.094245 0.031342 -0.164624
C24   C     C_R   0.718718 0.935605 0.949467 -0.175455
H11   H     H_    0.218303 0.079797 0.972665 0.175819
H12   H     H_    0.810760 0.966203 0.991679 0.150427
C25   C     C_R   0.324724 0.052880 0.157268 0.193801
C26   C     C_R   0.678904 0.952170 0.816663 0.169936
C27   C     C_R   0.439212 0.074934 0.237798 -0.010059
C28   C     C_R   0.555799 0.923820 0.760320 0.043637
C29   C     C_R   0.538303 0.126642 0.184585 0.314451
C30   C     C_R   0.472216 0.874862 0.839792 0.303859
C31   C     C_R   0.518789 0.163962 0.056557 -0.247668
C32   C     C_R   0.517839 0.854741 0.971679 -0.265298
H13   H     H_    0.593967 0.200933 0.012304 0.148932
H14   H     H_    0.455657 0.820807 0.034909 0.162355
C33   C     C_R   0.403461 0.153159 0.982035 0.235094
C34   C     C_R   0.639113 0.887407 0.028820 0.302180
C35   C     C_R   0.456846 0.914310 0.381470 -0.199628
C36   C     C_R   0.519650 0.082855 0.618627 -0.156468
H15   H     H_    0.430278 0.849645 0.288671 0.184390
H16   H     H_    0.551064 0.146817 0.710387 0.185860
C37   C     C_R   0.493755 0.871210 0.502901 -0.103274
C38   C     C_R   0.490285 0.126845 0.496525 -0.121954
C39   C     C_R   0.519084 0.957398 0.624656 0.096669
C40   C     C_R   0.457640 0.039923 0.375377 0.072635
N1    N     N_2   0.447120 0.447110 0.150550 -0.295144
N2    N     N_2   0.552880 0.552890 0.849450 -0.291468
C41   C     C_2   0.514739 0.506632 0.078417 0.278084
C42   C     C_2   0.476975 0.520015 0.931071 0.267745
H17   H     H_    0.643325 0.556685 0.887267 0.229036
H18   H     H_    0.367935 0.399502 0.100415 0.224127
N3    N     N_2   0.657772 0.137262 0.258314 -0.411872
H19   H     H_    0.674004 0.103075 0.348525 0.277385
C43   C     C_3   0.744598 0.231883 0.237705 -0.690343
H20   H     H_    0.805741 0.261460 0.334230 0.243252
H21   H     H_    0.699215 0.312284 0.208121 0.259947
H22   H     H_    0.796404 0.195146 0.156048 0.227968
N4    N     N_2   0.342351 0.855577 0.801930 -0.422967
H23   H     H_    0.298943 0.803479 0.861452 0.283503
C44   C     C_3   0.280554 0.841501 0.663702 -0.628594
H24   H     H_    0.293208 0.925847 0.618252 0.238291
H25   H     H_    0.181898 0.825277 0.662524 0.238053
H26   H     H_    0.305397 0.758823 0.601757 0.230190
Br1   Br    Br    0.307977 0.529316 0.889849 -0.636269
Br2   Br    Br    0.657734 0.602579 0.162781 -0.621098
N5    N     N_2   0.021808 0.200137 0.360863 -0.439663
H27   H     H_    0.971125 0.117104 0.339433 0.268875
C45   C     C_3   0.121424 0.203793 0.469058 -0.617823
H28   H     H_    0.136038 0.109351 0.490010 0.244376
H29   H     H_    0.098130 0.258975 0.562346 0.231419
H30   H     H_    0.207764 0.243856 0.442916 0.219526
N6    N     N_2   0.989019 0.789035 0.770540 -0.446333
H31   H     H_    0.937465 0.796040 0.679316 0.286855
C46   C     C_3   0.045166 0.902199 0.850389 -0.674177
H32   H     H_    0.073321 0.965585 0.782120 0.238826
H33   H     H_    0.125394 0.883073 0.918795 0.259894
H34   H     H_    0.980813 0.947530 0.911054 0.245308
N7    N     N_2   0.391137 0.199586 0.856477 -0.429059
H35   H     H_    0.449670 0.274597 0.852994 0.263556
C47   C     C_3   0.275697 0.194275 0.772446 -0.667484
H36   H     H_    0.215373 0.255802 0.822668 0.243931
H37   H     H_    0.233435 0.099130 0.747931 0.230076
H38   H     H_    0.291878 0.226499 0.676647 0.236309
N8    N     N_2   0.673004 0.886077 0.170961 -0.409498
H39   H     H_    0.612947 0.840973 0.219712 0.283082
C48   C     C_3   0.798653 0.895129 0.232474 -0.594779
H40   H     H_    0.842065 0.811846 0.196907 0.245601
H41   H     H_    0.803244 0.904415 0.344804 0.243208
H42   H     H_    0.848385 0.976902 0.209369 0.209082
Br3   Br    Br    0.193436 0.961578 0.214567 -0.673998
Br4   Br    Br    0.794712 0.025401 0.718613 -0.661818

loop_
_geom_bond_atom_site_label_1
_geom_bond_atom_site_label_2
_geom_bond_distance
_ccdc_geom_bond_type
N5    H27   1.026554 S    
C37   C39   1.420118 A    
C47   H36   1.100565 S    
C11   C13   1.399620 A    
C48   H41   1.110825 S    
N3    H19   1.029787 S    
C46   H32   1.107481 S    
O7    Cu2   2.013965 S    
C44   H24   1.104919 S    
C46   H34   1.096852 S    
C25   C27   1.405726 A    
O5    C3    1.333964 A    
N8    C48   1.445975 S    
N6    H31   1.031335 S    
O1    C1    1.332020 A    
C17   H9    1.078944 S    
C35   C40   1.397672 A    
Cu2   N1    2.062943 S    
C33   N7    1.421798 S    
C13   C15   1.389872 A    
C36   H16   1.079664 S    
N1    H18   1.028813 S    
O4    Cu1   2.001911 S    
C43   H21   1.107372 S    
C17   C22   1.405095 A    
H2    C16   1.079936 S    
C24   H12   1.071388 S    
C27   C29   1.411856 A    
C28   C30   1.432087 A    
C48   H40   1.100652 S    
C45   H29   1.109365 S    
C30   N4    1.441613 S    
C20   C22   1.415700 A    
N6    C46   1.441494 S    
Cu1   Cu2   2.745991 S    
N3    C43   1.435725 S    
C18   C21   1.403323 A    
O2    C2    1.326712 A    
C5    C15   1.390684 A    
C44   H25   1.100675 S    
C30   C32   1.408704 A    
C31   H13   1.082637 S    
C32   H14   1.083415 S    
C35   H15   1.083220 S    
C27   C40   1.479683 S    
C14   C16   1.391673 A    
C3    C20   1.493053 S    
C18   C20   1.392391 A    
O4    C2    1.310815 A    
C24   C34   1.397055 A    
N4    C44   1.448518 S    
C31   C33   1.389235 A    
C43   H22   1.105840 S    
C5    C7    1.395215 A    
C1    C38   1.489521 S    
C12   N6    1.426310 S    
N1    C41   1.320000 D    
C38   C40   1.426108 A    
C2    C37   1.483098 S    
C17   C19   1.398888 A    
C43   H20   1.103652 S    
C6    C16   1.393494 A    
N7    H35   1.030031 S    
O6    C4    1.334587 A    
C45   H30   1.111855 S    
C11   N5    1.424034 S    
C23   H11   1.071554 S    
O7    C3    1.308731 A    
O3    Cu2   2.001911 S    
O8    C4    1.312221 A    
N2    C42   1.321108 D    
C26   Br4   1.928255 S    
C36   C39   1.395963 A    
C47   H38   1.104480 S    
C7    H5    1.082905 S    
C48   H42   1.099828 S    
C8    H6    1.083666 S    
O1    Cu1   2.006483 S    
C18   H10   1.072705 S    
C44   H26   1.098691 S    
C32   C34   1.400992 A    
C7    C9    1.398343 A    
O6    Cu2   2.026269 S    
N7    C47   1.436455 S    
C6    C8    1.391819 A    
C10   C12   1.408774 A    
C29   N3    1.425650 S    
O3    C1    1.308720 A    
O8    Cu1   2.013965 S    
C9    C22   1.474331 S    
C46   H33   1.105083 S    
C9    C11   1.412142 A    
N8    H39   1.024580 S    
C35   C37   1.394292 A    
C36   C38   1.390590 A    
C34   N8    1.429691 S    
C4    C19   1.500632 S    
C12   C14   1.405934 A    
C13   H7    1.077577 S    
C14   H8    1.078847 S    
N2    H17   1.025604 S    
C25   Br3   1.921320 S    
C26   C28   1.411631 A    
C5    H3    1.075925 S    
C6    H4    1.082906 S    
C41   C42   1.514888 S    
O2    Cu2   2.006483 S    
C28   C39   1.476377 S    
C23   C33   1.404003 A    
N4    H23   1.030770 S    
O5    Cu1   2.026270 S    
C19   C21   1.421116 A    
C47   H37   1.104906 S    
C8    C10   1.404040 A    
N5    C45   1.442656 S    
C29   C31   1.400245 A    
C45   H28   1.111607 S    
C42   Br1   1.886706 S    
C23   C25   1.399797 A    
H1    C15   1.081503 S    
C41   Br2   1.886361 S    
C24   C26   1.390633 A    
C10   C21   1.475182 S    
Cu1   N2    2.062942 S    
