data_mof_unit_55009.cif
_audit_creation_date              2012-12-11T17:00:15-0500
_audit_creation_method            fapswitch 2.2
_symmetry_space_group_name_H-M    P1
_symmetry_Int_Tables_number       1
_space_group_crystal_system       triclinic
_cell_length_a                    6.970727
_cell_length_b                    13.576306
_cell_length_c                    20.260862
_cell_angle_alpha                 103.011951
_cell_angle_beta                  89.683946
_cell_angle_gamma                 90.673797
_cell_volume                      1868.05090385

loop_
_atom_site_label
_atom_site_type_symbol
_atom_type_description
_atom_site_fract_x
_atom_site_fract_y
_atom_site_fract_z
_atom_type_partial_charge
O1    O     O_R   0.506770 0.599700 0.449550 -0.533659
O2    O     O_R   0.179980 0.595740 0.587960 -0.551588
O3    O     O_R   0.004580 0.400300 0.550450 -0.541451
C1    C     C_R   0.348203 0.617611 0.615080 0.742134
O4    O     O_R   0.177380 0.611700 0.452380 -0.539727
O5    O     O_R   0.001970 0.416370 0.413900 -0.534731
C2    C     C_R   0.347255 0.638230 0.435625 0.758813
O6    O     O_R   0.509390 0.583630 0.586100 -0.522194
O7    O     O_3   0.337530 0.435890 0.487530 -0.361513
V1    V     V_3+5 0.064660 0.511890 0.502310 1.519242
O8    O     O_R   0.671950 0.404260 0.412040 -0.538759
C3    C     C_R   0.840636 0.383295 0.384646 0.701687
O9    O     O_R   0.674540 0.388300 0.547620 -0.541442
C4    C     C_R   0.842647 0.361650 0.564214 0.694064
V2    V     V_3+5 0.564030 0.488110 0.497690 1.535159
O10   O     O_3   0.841030 0.564110 0.512470 -0.352997
C5    C     C_R   0.892078 0.110701 0.610416 -0.092725
H1    H     H_    0.883183 0.160417 0.517191 0.135376
H2    H     H_    0.926119 0.986637 0.693459 0.188048
H3    H     H_    0.911386 0.032347 0.584603 0.168600
C6    C     C_R   0.850803 0.284511 0.603996 -0.039445
C7    C     C_R   0.839471 0.316431 0.930785 -0.170260
C8    C     C_R   0.825041 0.392491 0.895358 -0.121029
C9    C     C_R   0.831674 0.369502 0.824798 -0.157593
C10   C     C_R   0.854222 0.268585 0.787518 0.081517
C11   C     C_R   0.871397 0.191085 0.824323 0.065703
C12   C     C_R   0.860046 0.241942 0.715116 0.070747
C13   C     C_R   0.885270 0.138985 0.681457 0.116677
C14   C     C_R   0.904484 0.064929 0.718772 -0.140045
C15   C     C_R   0.896792 0.090273 0.788975 -0.198532
C16   C     C_R   0.842496 0.313797 0.674681 -0.218888
C17   C     C_R   0.875498 0.183177 0.571937 -0.143387
C18   C     C_R   0.862471 0.216053 0.896038 -0.069710
H4    H     H_    0.824017 0.393236 0.696233 0.086684
H5    H     H_    0.832044 0.335834 0.985628 0.098197
H6    H     H_    0.818834 0.432663 0.801202 0.102048
H7    H     H_    0.807513 0.470087 0.922812 0.117157
H8    H     H_    0.911883 0.029888 0.815419 0.111389
C19   C     C_R   0.711552 0.180018 0.228424 0.054297
C20   C     C_R   0.865178 0.184300 0.184101 -0.103041
C21   C     C_R   0.018781 0.250427 0.209074 -0.165412
H9    H     H_    0.140349 0.256457 0.176845 0.122812
C22   C     C_R   0.011652 0.314308 0.274344 -0.114223
H10   H     H_    0.127683 0.367799 0.290306 0.123266
C23   C     C_R   0.851638 0.313264 0.316995 -0.124172
C24   C     C_R   0.705730 0.242596 0.293318 0.120413
C25   C     C_3   0.496231 0.259777 0.289321 0.111258
C26   C     C_3   0.502184 0.193166 0.218213 -0.446881
H11   H     H_    0.462195 0.340028 0.290849 0.086217
H12   H     H_    0.475821 0.235303 0.178083 0.144080
H13   H     H_    0.418233 0.121947 0.212656 0.200593
C27   C     C_R   0.509526 0.686810 0.727131 0.007365
C28   C     C_R   0.352364 0.683712 0.684268 -0.045050
C29   C     C_R   0.195690 0.745051 0.709557 -0.139039
H14   H     H_    0.077399 0.748499 0.676690 0.192642
C30   C     C_R   0.197042 0.807893 0.775068 -0.170653
H15   H     H_    0.078302 0.858135 0.790977 0.132062
C31   C     C_R   0.356712 0.811484 0.817563 -0.073293
C32   C     C_R   0.510772 0.747884 0.792778 0.035818
C33   C     C_3   0.715192 0.777671 0.786639 -0.428244
C34   C     C_3   0.711306 0.714936 0.714547 0.246685
H16   H     H_    0.809226 0.745744 0.820561 0.134615
H17   H     H_    0.733502 0.860308 0.790766 0.197680
H18   H     H_    0.808484 0.648891 0.705252 0.059587
C35   C     C_R   0.462474 0.882844 0.385924 -0.162833
H19   H     H_    0.545325 0.997797 0.299929 0.170964
H20   H     H_    0.511374 0.958508 0.409840 0.166449
C36   C     C_R   0.362581 0.715785 0.395989 -0.097821
C37   C     C_R   0.279297 0.687770 0.070867 -0.166046
C38   C     C_R   0.244962 0.613957 0.107255 -0.122946
C39   C     C_R   0.276639 0.634550 0.176902 -0.160622
C40   C     C_R   0.346874 0.730274 0.212057 0.093325
C41   C     C_R   0.388691 0.804297 0.173822 0.064309
C42   C     C_R   0.373387 0.755836 0.283895 0.078822
C43   C     C_R   0.441080 0.854306 0.315398 0.082598
C44   C     C_R   0.488263 0.923724 0.276417 -0.145695
C45   C     C_R   0.463163 0.899122 0.206821 -0.200045
C46   C     C_R   0.335978 0.687251 0.325775 -0.274749
C47   C     C_R   0.422856 0.814407 0.426216 0.256831
C48   C     C_R   0.351106 0.782753 0.103337 -0.078898
H21   H     H_    0.291188 0.610191 0.305428 0.100334
H22   H     H_    0.248045 0.671108 0.017129 0.102284
H23   H     H_    0.242737 0.574141 0.201648 0.101944
H24   H     H_    0.189738 0.540569 0.081472 0.116588
H25   H     H_    0.502862 0.955320 0.178913 0.126072
O11   O     O_R   0.203450 0.916320 0.913910 -0.545161
O12   O     O_R   0.535520 0.888300 0.047620 -0.542555
O13   O     O_R   0.710860 0.083650 0.086100 -0.540350
C49   C     C_R   0.365659 0.861280 0.064058 0.688218
O14   O     O_R   0.532860 0.904250 0.912040 -0.540659
O15   O     O_R   0.708190 0.099710 0.949550 -0.536180
C50   C     C_R   0.364629 0.882614 0.884848 0.697114
O16   O     O_R   0.206120 0.900260 0.050460 -0.534642
O17   O     O_3   0.375280 0.064080 0.012470 -0.371257
V3    V     V_3+5 0.648180 0.988110 0.997690 1.417812
O18   O     O_R   0.038220 0.111740 0.952370 -0.541939
C51   C     C_R   0.870177 0.138248 0.935682 0.684481
O19   O     O_R   0.040880 0.095790 0.087940 -0.542647
C52   C     C_R   0.872155 0.117806 0.115030 0.700672
V4    V     V_3+5 0.148800 0.011950 0.002300 1.417531
O20   O     O_3   0.871820 0.935920 0.987530 -0.371593
Br1   Br    Br    0.355590 0.199918 0.353846 -0.569931
Cl1   Cl    Cl    0.724662 0.791753 0.653218 -0.625552
Br2   Br    Br    0.452409 0.858668 0.522369 -0.477174

loop_
_geom_bond_atom_site_label_1
_geom_bond_atom_site_label_2
_ccdc_geom_bond_type
C35   C47   A    
C1    C28   S    
C21   H9    S    
C1    O6    A    
C20   C52   S    
O14   V3    S    
C25   H11   S    
C28   C29   A    
C7    H5    S    
C6    C16   A    
C9    H6    S    
C33   H17   S    
C4    C6    S    
C13   C14   A    
C34   Cl1   S    
C27   C34   S    
O5    C3    A    
V2    O10   S    
C5    H3    S    
C30   H15   S    
C15   H8    S    
C33   H16   S    
C48   C49   S    
C37   H22   S    
C2    C36   S    
C29   H14   S    
O8    V2    S    
C26   H13   S    
C35   H20   S    
O12   V3    S    
C8    C9    A    
C38   C39   A    
O1    V2    S    
O11   V4    S    
O7    V1    S    
C36   C47   A    
C26   H12   S    
O13   V3    S    
C45   H25   S    
C32   C33   S    
C25   Br1   S    
O9    C4    A    
C49   O16   A    
C21   C22   A    
O17   V3    S    
C39   H23   S    
C36   C46   A    
C6    C17   A    
C29   C30   A    
C42   C43   A    
C12   C16   A    
C9    C10   A    
C40   C42   A    
C19   C20   A    
O4    C2    A    
C3    C23   S    
C10   C11   A    
C8    H7    S    
O15   C51   A    
C33   C34   S    
C34   H18   S    
O2    C1    A    
C43   C44   A    
C14   C15   A    
C27   C32   A    
C11   C18   A    
O14   C50   A    
C25   C26   S    
O17   V4    S    
H19   C44   S    
O18   C51   A    
C16   H4    S    
C44   C45   A    
C22   C23   A    
O16   V4    S    
O3    C4    A    
C19   C24   A    
C20   C21   A    
C11   C15   A    
O6    V2    S    
O19   V4    S    
O9    V2    S    
C22   H10   S    
C47   Br2   S    
H1    C17   S    
O2    V1    S    
C38   H24   S    
C27   C28   A    
C7    C18   A    
C24   C25   S    
O1    C2    A    
C5    C13   A    
C40   C41   A    
O5    V1    S    
O8    C3    A    
C10   C12   A    
C35   C43   A    
O12   C49   A    
C31   C32   A    
O4    V1    S    
O3    V1    S    
O11   C50   A    
C46   H21   S    
O18   V4    S    
V4    O20   S    
C41   C48   A    
C30   C31   A    
C18   C51   S    
O7    V2    S    
C37   C38   A    
O13   C52   A    
O15   V3    S    
C23   C24   A    
C39   C40   A    
O19   C52   A    
C42   C46   A    
C12   C13   A    
C5    C17   A    
C41   C45   A    
C7    C8    A    
C37   C48   A    
V1    O10   S    
C31   C50   S    
V3    O20   S    
C19   C26   S    
H2    C14   S    
