data_mof_unit_15902.cif
_audit_creation_date              2012-12-10T16:48:44-0500
_audit_creation_method            fapswitch 2.2
_symmetry_space_group_name_H-M    P1
_symmetry_Int_Tables_number       1
_space_group_crystal_system       triclinic
_cell_length_a                    17.339959
_cell_length_b                    8.675917
_cell_length_c                    7.439215
_cell_angle_alpha                 103.078792
_cell_angle_beta                  89.745506
_cell_angle_gamma                 92.875048
_cell_volume                      1088.72510974

loop_
_atom_site_label
_atom_site_type_symbol
_atom_type_description
_atom_site_fract_x
_atom_site_fract_y
_atom_site_fract_z
_atom_type_partial_charge
C1    C     C_R   0.497060 0.199688 0.453673 0.886370
C2    C     C_R   0.502458 0.800294 0.546422 0.872855
C3    C     C_2   0.495259 0.031654 0.427706 -0.380404
C4    C     C_2   0.503345 0.968259 0.572579 -0.385904
C5    C     C_R   0.351761 0.502843 0.527080 0.801239
C6    C     C_R   0.648229 0.495649 0.472723 0.815870
C7    C     C_R   0.268643 0.511145 0.546433 -0.056625
C8    C     C_R   0.731572 0.491059 0.454127 -0.057234
C9    C     C_R   0.220794 0.384015 0.447311 0.129111
C10   C     C_R   0.778020 0.621528 0.551383 0.127925
C11   C     C_R   0.141560 0.401313 0.441579 -0.141710
C12   C     C_R   0.857527 0.608131 0.560275 -0.139729
C13   C     C_R   0.109290 0.541393 0.536481 0.101363
C14   C     C_R   0.891250 0.467663 0.472232 0.100427
C15   C     C_R   0.156491 0.664438 0.639962 -0.197257
C16   C     C_R   0.845465 0.341213 0.370712 -0.190941
C17   C     C_R   0.236319 0.651560 0.646556 0.102696
C18   C     C_R   0.765616 0.350889 0.359212 0.107053
C19   C     C_2   0.026746 0.565935 0.521982 -0.201307
C20   C     C_2   0.973708 0.445247 0.491887 -0.200240
Cu1   Cu    Cu3+1 0.508700 0.517250 0.683000 0.941390
Cu2   Cu    Cu3+1 0.491300 0.482750 0.317000 0.935806
H1    H     H_    0.990773 0.324614 0.479084 0.141308
H2    H     H_    0.009948 0.686841 0.535918 0.140501
H3    H     H_    0.131062 0.772385 0.713152 0.134278
H4    H     H_    0.871969 0.232521 0.303901 0.133488
H5    H     H_    0.892143 0.705135 0.643676 0.130529
H6    H     H_    0.105837 0.307193 0.356484 0.130927
H7    H     H_    0.487833 0.959853 0.288127 0.181059
H8    H     H_    0.510830 0.040071 0.712126 0.182033
H9    H     H_    0.439259 0.379717 0.958400 0.224333
H10   H     H_    0.560687 0.620403 0.041630 0.225915
N1    N     N_2   0.478180 0.456750 0.041980 -0.222472
N2    N     N_2   0.521820 0.543250 0.958020 -0.218591
O1    O     O_R   0.505650 0.286040 0.618880 -0.585573
O2    O     O_R   0.494350 0.713960 0.381120 -0.583112
O3    O     O_R   0.490960 0.256910 0.309800 -0.588340
O4    O     O_R   0.509040 0.743090 0.690200 -0.585471
O5    O     O_R   0.394600 0.516230 0.672450 -0.589771
O6    O     O_R   0.605400 0.483770 0.327550 -0.601730
O7    O     O_R   0.379910 0.487100 0.363380 -0.581519
O8    O     O_R   0.620090 0.512900 0.636620 -0.575466
C21   C     C_3   0.253266 0.230145 0.345637 -0.875487
H11   H     H_    0.206875 0.138877 0.290526 0.223736
H12   H     H_    0.288589 0.249590 0.227282 0.250409
H13   H     H_    0.289633 0.182305 0.440753 0.219778
C22   C     C_3   0.743553 0.773943 0.650349 -0.875480
H14   H     H_    0.788702 0.869683 0.698674 0.221575
H15   H     H_    0.704070 0.815007 0.555885 0.224799
H16   H     H_    0.710812 0.754981 0.772666 0.252079
C23   C     C_3   0.718865 0.204681 0.258999 -0.413284
C24   C     C_3   0.699640 0.094660 0.388136 -0.836483
H17   H     H_    0.665889 0.156412 0.507802 0.258417
H18   H     H_    0.664953 0.988900 0.312705 0.241581
H19   H     H_    0.753593 0.054910 0.439257 0.254177
H20   H     H_    0.664918 0.235192 0.199034 0.226659
H21   H     H_    0.752262 0.139454 0.140349 0.201315
C25   C     C_3   0.284927 0.792723 0.752822 -0.405521
C26   C     C_3   0.292556 0.786545 0.955372 -0.768630
H22   H     H_    0.320213 0.676840 0.968350 0.270081
H23   H     H_    0.328777 0.890421 0.029786 0.233383
H24   H     H_    0.234780 0.789809 0.020881 0.240011
H25   H     H_    0.343143 0.799678 0.692011 0.201106
H26   H     H_    0.257948 0.904608 0.744733 0.192700

loop_
_geom_bond_atom_site_label_1
_geom_bond_atom_site_label_2
_ccdc_geom_bond_type
C2    C4    S    
C21   H11   S    
H9    N1    S    
C15   C17   A    
Cu1   O1    S    
C14   C20   S    
C8    C18   A    
C21   H12   S    
C2    O4    A    
C19   C20   D    
Cu1   O5    S    
C20   H1    S    
C1    O3    A    
C17   C25   S    
Cu2   O6    S    
C13   C15   A    
N1    N2    D    
C3    C4    D    
C26   H22   S    
C22   H15   S    
Cu1   Cu2   S    
C16   H4    S    
C11   C13   A    
C10   C12   A    
C11   H6    S    
Cu2   N1    S    
C23   H21   S    
C16   C18   A    
C24   H19   S    
C12   C14   A    
C18   C23   S    
C19   H2    S    
C22   H16   S    
C6    O6    A    
C9    C11   A    
C25   H26   S    
C21   H13   S    
C14   C16   A    
C9    C21   S    
Cu2   O7    S    
C15   H3    S    
C13   C19   S    
C12   H5    S    
Cu1   O8    S    
C22   H14   S    
C7    C9    A    
C10   C22   S    
Cu2   O2    S    
C24   H17   S    
C1    O1    A    
C3    H7    S    
C23   H20   S    
C6    O8    A    
C26   H23   S    
C2    O2    A    
C25   H25   S    
C5    C7    S    
C5    O5    A    
C5    O7    A    
C26   H24   S    
C6    C8    S    
Cu1   N2    S    
C1    C3    S    
C25   C26   S    
Cu2   O3    S    
C8    C10   A    
C4    H8    S    
Cu1   O4    S    
C23   C24   S    
C24   H18   S    
C7    C17   A    
H10   N2    S    
