data_mof_unit_58310.cif
_audit_creation_date              2012-12-10T16:37:54-0500
_audit_creation_method            fapswitch 2.2
_symmetry_space_group_name_H-M    P1
_symmetry_Int_Tables_number       1
_space_group_crystal_system       triclinic
_cell_length_a                    28.221856
_cell_length_b                    18.471936
_cell_length_c                    16.856726
_cell_angle_alpha                 90.063527
_cell_angle_beta                  61.217891
_cell_angle_gamma                 90.308872
_cell_volume                      7701.84770369

loop_
_atom_site_label
_atom_site_type_symbol
_atom_type_description
_atom_site_fract_x
_atom_site_fract_y
_atom_site_fract_z
_atom_type_partial_charge
C1    C     C_R   0.700796 0.265562 0.677339 0.889273
C2    C     C_R   0.095392 0.501034 0.514305 0.071403
C3    C     C_R   0.201040 0.199203 0.896556 0.076928
C4    C     C_R   0.611004 0.322065 0.054323 -0.286366
C5    C     C_R   0.335401 0.590862 0.011556 -0.279867
C6    C     C_R   0.387100 0.325353 0.947550 -0.289399
C7    C     C_R   0.664698 0.591318 0.986625 -0.280677
C8    C     C_R   0.111004 0.822065 0.054323 -0.286366
C9    C     C_R   0.835401 0.090862 0.011556 -0.279867
C10   C     C_R   0.887100 0.825353 0.947550 -0.289399
C11   C     C_R   0.164698 0.091318 0.986625 -0.280677
C12   C     C_R   0.637561 0.303368 0.103304 -0.027330
C13   C     C_R   0.407382 0.998532 0.477143 0.072055
C14   C     C_R   0.302068 0.599815 0.971777 -0.011629
C15   C     C_R   0.358881 0.310949 0.900320 -0.003461
C16   C     C_R   0.697604 0.601176 0.026971 -0.015031
C17   C     C_R   0.137561 0.803368 0.103304 -0.027330
C18   C     C_R   0.802068 0.099815 0.971777 -0.011629
C19   C     C_R   0.858881 0.810949 0.900320 -0.003461
C20   C     C_R   0.197604 0.101176 0.026971 -0.015031
C21   C     C_R   0.738597 0.185898 0.797459 -0.193193
C22   C     C_R   0.255654 0.798968 0.202242 -0.160497
C23   C     C_R   0.259676 0.187044 0.203391 -0.199593
C24   C     C_R   0.595392 0.001034 0.514305 0.071403
C25   C     C_R   0.741242 0.803494 0.800579 -0.171237
C26   C     C_R   0.238597 0.685898 0.797459 -0.193193
C27   C     C_R   0.755654 0.298968 0.202242 -0.160497
C28   C     C_R   0.759677 0.687044 0.203391 -0.199593
C29   C     C_R   0.241242 0.303494 0.800579 -0.171237
C30   C     C_R   0.763273 0.162687 0.847435 -0.135663
C31   C     C_R   0.223236 0.810058 0.161670 -0.101935
C32   C     C_R   0.234787 0.164398 0.153332 -0.143798
C33   C     C_R   0.772119 0.816808 0.843643 -0.091460
C34   C     C_R   0.263273 0.662687 0.847435 -0.135663
C35   C     C_R   0.118975 0.382689 0.443202 -0.236670
C36   C     C_R   0.723236 0.310058 0.161670 -0.101935
C37   C     C_R   0.734787 0.664398 0.153332 -0.143798
C38   C     C_R   0.272119 0.316808 0.843643 -0.091460
C39   C     C_R   0.079763 0.090768 0.928415 0.950692
C40   C     C_R   0.927473 0.897628 0.064029 0.902192
C41   C     C_R   0.920220 0.090863 0.071466 0.946622
C42   C     C_R   0.072564 0.897654 0.935958 0.897568
C43   C     C_R   0.579763 0.590768 0.928415 0.950692
C44   C     C_R   0.427473 0.397628 0.064029 0.902192
C45   C     C_R   0.420220 0.590863 0.071466 0.946622
C46   C     C_R   0.884860 0.617246 0.546897 -0.223744
C47   C     C_R   0.572564 0.397654 0.935958 0.897569
C48   C     C_R   0.526750 0.121684 0.569037 0.099668
C49   C     C_R   0.476986 0.878704 0.418997 0.113623
C50   C     C_R   0.432323 0.119136 0.552862 0.079447
C51   C     C_R   0.572567 0.881695 0.433195 0.110251
C52   C     C_R   0.026750 0.621684 0.569037 0.099668
C53   C     C_R   0.976986 0.378704 0.418997 0.113623
C54   C     C_R   0.932323 0.619136 0.552862 0.079447
C55   C     C_R   0.072567 0.381695 0.433195 0.110251
C56   C     C_R   0.492149 0.181471 0.596395 -0.164859
C57   C     C_R   0.928584 0.377116 0.414369 -0.238218
C58   C     C_R   0.513390 0.820775 0.386373 -0.201498
C59   C     C_R   0.445557 0.180288 0.587390 -0.136630
C60   C     C_R   0.561034 0.822526 0.392719 -0.199643
C61   C     C_R   0.992149 0.681471 0.596395 -0.164859
C62   C     C_R   0.013390 0.320775 0.386373 -0.201498
C63   C     C_R   0.945557 0.680288 0.587390 -0.136630
C64   C     C_R   0.061034 0.322526 0.392719 -0.199643
C65   C     C_R   0.467313 0.059765 0.522876 0.037828
C66   C     C_R   0.536744 0.940338 0.465144 0.033776
C67   C     C_R   0.514479 0.060818 0.531466 0.035894
C68   C     C_R   0.073653 0.622315 0.577551 -0.223070
C69   C     C_R   0.489301 0.939205 0.457013 0.030570
C70   C     C_R   0.967313 0.559766 0.522876 0.037828
C71   C     C_R   0.036744 0.440338 0.465144 0.033776
C72   C     C_R   0.014479 0.560818 0.531466 0.035894
C73   C     C_R   0.989301 0.439205 0.457013 0.030570
C74   C     C_R   0.954566 0.498984 0.485995 -0.043830
C75   C     C_R   0.048899 0.500750 0.503556 -0.043797
C76   C     C_R   0.454566 0.998984 0.485995 -0.043830
C77   C     C_R   0.548899 0.000750 0.503556 -0.043797
C78   C     C_R   0.892481 0.436109 0.445829 0.063452
C79   C     C_R   0.618975 0.882689 0.443202 -0.236670
C80   C     C_R   0.109442 0.563193 0.547538 0.066085
C81   C     C_R   0.128582 0.439565 0.490409 0.049462
C82   C     C_R   0.874088 0.560026 0.501970 0.048850
C83   C     C_R   0.392481 0.936109 0.445829 0.063452
C84   C     C_R   0.609442 0.063193 0.547538 0.066085
C85   C     C_R   0.628582 0.939565 0.490409 0.049462
C86   C     C_R   0.374088 0.060026 0.501970 0.048850
C87   C     C_R   0.841414 0.435530 0.447926 -0.118754
C88   C     C_R   0.159593 0.563858 0.548252 -0.119547
C89   C     C_R   0.170065 0.437784 0.515438 -0.105950
C90   C     C_R   0.384860 0.117246 0.546897 -0.223744
C91   C     C_R   0.831419 0.561862 0.479975 -0.107766
C92   C     C_R   0.341414 0.935530 0.447926 -0.118754
C93   C     C_R   0.659593 0.063858 0.548252 -0.119548
C94   C     C_R   0.670065 0.937784 0.515438 -0.105950
C95   C     C_R   0.331419 0.061863 0.479975 -0.107766
C96   C     C_R   0.815401 0.499698 0.454236 -0.293335
C97   C     C_R   0.185498 0.499859 0.542382 -0.295382
C98   C     C_R   0.315401 0.999698 0.454236 -0.293335
C99   C     C_R   0.685498 0.999859 0.542382 -0.295382
C100  C     C_2   0.606081 0.310914 0.203217 0.365964
C101  C     C_R   0.428584 0.877116 0.414369 -0.238218
C102  C     C_2   0.294991 0.535151 0.926050 0.355893
C103  C     C_2   0.388773 0.324699 0.801619 0.334829
C104  C     C_2   0.705523 0.536514 0.071437 0.358295
C105  C     C_2   0.106081 0.810914 0.203217 0.365964
C106  C     C_2   0.794991 0.035151 0.926050 0.355893
C107  C     C_2   0.888773 0.824699 0.801619 0.334829
C108  C     C_2   0.205523 0.036514 0.071437 0.358295
C109  C     C_R   0.298951 0.733909 0.322839 0.887475
C110  C     C_R   0.573653 0.122315 0.577551 -0.223070
C111  C     C_R   0.704706 0.239729 0.971551 -0.009712
C112  C     C_R   0.264450 0.707859 0.062500 -0.016318
C113  C     C_R   0.292906 0.243510 0.030450 -0.012886
C114  C     C_R   0.733370 0.711593 0.939228 -0.019617
C115  C     C_R   0.204706 0.739729 0.971551 -0.009712
C116  C     C_R   0.764450 0.207859 0.062500 -0.016318
C117  C     C_R   0.792906 0.743510 0.030450 -0.012886
C118  C     C_R   0.233370 0.211593 0.939228 -0.019617
C119  C     C_R   0.746355 0.187459 0.935893 0.082336
C120  C     C_R   0.299272 0.265347 0.322644 0.897596
C121  C     C_R   0.224229 0.761958 0.095947 0.078008
C122  C     C_R   0.251621 0.190300 0.065290 0.085972
C123  C     C_R   0.772207 0.767934 0.907847 0.075766
C124  C     C_R   0.246355 0.687459 0.935893 0.082336
C125  C     C_R   0.724229 0.261958 0.095947 0.078008
C126  C     C_R   0.751621 0.690300 0.065290 0.085972
C127  C     C_R   0.272207 0.267934 0.907847 0.075766
C128  C     C_R   0.770990 0.164127 0.988671 0.036832
C129  C     C_R   0.188743 0.769259 0.058269 0.037898
C130  C     C_R   0.227440 0.166843 0.011927 0.034844
C131  C     C_R   0.700678 0.734653 0.677272 0.899977
C132  C     C_R   0.807917 0.775461 0.945081 0.034567
C133  C     C_R   0.270990 0.664127 0.988671 0.036832
C134  C     C_R   0.688743 0.269259 0.058269 0.037898
C135  C     C_R   0.727440 0.666843 0.011927 0.034844
C136  C     C_R   0.307917 0.275462 0.945081 0.034567
C137  C     C_R   0.634084 0.309713 0.960203 0.074141
C138  C     C_R   0.336434 0.641496 0.073415 0.068816
C139  C     C_R   0.364770 0.311318 0.041019 0.070257
C140  C     C_R   0.663114 0.642490 0.925976 0.065953
C141  C     C_R   0.134084 0.809713 0.960203 0.074141
C142  C     C_R   0.200796 0.765562 0.677339 0.889273
C143  C     C_R   0.836434 0.141496 0.073415 0.068816
C144  C     C_R   0.864770 0.811318 0.041019 0.070256
C145  C     C_R   0.163114 0.142490 0.925976 0.065953
C146  C     C_R   0.612363 0.339108 0.905542 -0.118747
C147  C     C_R   0.372578 0.636188 0.110487 -0.125725
C148  C     C_R   0.387528 0.339165 0.094768 -0.119548
C149  C     C_R   0.627105 0.636549 0.889068 -0.128940
C150  C     C_R   0.112363 0.839108 0.905542 -0.118747
C151  C     C_R   0.872578 0.136188 0.110487 -0.125725
C152  C     C_R   0.887528 0.839165 0.094768 -0.119548
C153  C     C_R   0.798951 0.233909 0.322839 0.887475
C154  C     C_R   0.127105 0.136549 0.889068 -0.128940
C155  C     C_R   0.632884 0.318314 0.816603 -0.308662
C156  C     C_R   0.363275 0.674826 0.186340 -0.302163
C157  C     C_R   0.367603 0.317512 0.183235 -0.306738
C158  C     C_R   0.636065 0.675299 0.813515 -0.299714
C159  C     C_R   0.132884 0.818314 0.816603 -0.308662
C160  C     C_R   0.863275 0.174826 0.186340 -0.302163
C161  C     C_R   0.867603 0.817512 0.183235 -0.306738
C162  C     C_R   0.136065 0.175299 0.813515 -0.299714
C163  C     C_R   0.676074 0.271607 0.776661 -0.119778
C164  C     C_R   0.799272 0.765347 0.322644 0.897596
C165  C     C_R   0.319861 0.720548 0.225960 -0.122478
C166  C     C_R   0.323718 0.271497 0.223564 -0.118146
C167  C     C_R   0.679162 0.722006 0.774336 -0.124362
C168  C     C_R   0.176074 0.771607 0.776661 -0.119778
C169  C     C_R   0.819861 0.220548 0.225960 -0.122478
C170  C     C_R   0.823718 0.771497 0.223564 -0.118146
C171  C     C_R   0.179162 0.222006 0.774336 -0.124362
C172  C     C_R   0.698203 0.239824 0.830051 0.072688
C173  C     C_R   0.290859 0.739432 0.178473 0.074374
C174  C     C_R   0.300584 0.240854 0.170819 0.072795
C175  C     C_R   0.200678 0.234653 0.677272 0.899977
C176  C     C_R   0.707433 0.742200 0.822666 0.067567
C177  C     C_R   0.198203 0.739824 0.830051 0.072688
C178  C     C_R   0.790859 0.239432 0.178473 0.074374
C179  C     C_R   0.800584 0.740854 0.170819 0.072795
C180  C     C_R   0.207432 0.242200 0.822666 0.067567
C181  C     C_R   0.691365 0.129409 0.535197 0.896389
C182  C     C_R   0.308924 0.870279 0.463606 0.891763
C183  C     C_R   0.303699 0.127699 0.481369 0.912264
C184  C     C_R   0.696965 0.872149 0.516626 0.909512
C185  C     C_R   0.191365 0.629409 0.535197 0.896389
C186  C     C_R   0.907382 0.498532 0.477143 0.072055
C187  C     C_R   0.808925 0.370279 0.463606 0.891763
C188  C     C_R   0.803699 0.627699 0.481369 0.912264
C189  C     C_R   0.196965 0.372149 0.516626 0.909512
C190  C     C_R   0.679015 0.263063 0.920486 0.078894
C191  C     C_R   0.297523 0.696687 0.104207 0.076983
C192  C     C_R   0.319335 0.265259 0.080946 0.078726
C193  C     C_R   0.701040 0.699203 0.896556 0.076928
C194  C     C_R   0.179015 0.763063 0.920486 0.078894
C195  C     C_R   0.797523 0.196687 0.104207 0.076983
C196  C     C_R   0.819335 0.765259 0.080946 0.078726
H1    H     H_    0.088389 0.276994 0.367438 0.139203
H2    H     H_    0.220306 0.499380 0.553464 0.194991
H3    H     H_    0.279854 0.000203 0.445217 0.194614
H4    H     H_    0.720306 0.999380 0.553464 0.194991
H5    H     H_    0.147605 0.339371 0.411927 0.175607
H6    H     H_    0.856190 0.660034 0.580569 0.185691
H7    H     H_    0.920330 0.330889 0.383294 0.161638
H8    H     H_    0.080930 0.668166 0.610352 0.160898
H9    H     H_    0.647605 0.839371 0.411927 0.175607
H10   H     H_    0.356190 0.160033 0.580569 0.185691
H11   H     H_    0.420330 0.830889 0.383294 0.161638
H12   H     H_    0.920446 0.727793 0.604731 0.201462
H13   H     H_    0.580930 0.168166 0.610352 0.160898
H14   H     H_    0.616676 0.342414 0.776122 0.191772
H15   H     H_    0.388149 0.665668 0.218314 0.188045
H16   H     H_    0.384686 0.340620 0.223147 0.193609
H17   H     H_    0.611330 0.665391 0.781341 0.192328
H18   H     H_    0.116676 0.842414 0.776122 0.191772
H19   H     H_    0.888149 0.165668 0.218314 0.188045
H20   H     H_    0.884686 0.840620 0.223147 0.193609
H21   H     H_    0.111330 0.165391 0.781341 0.192328
H22   H     H_    0.570275 0.341860 0.093129 0.171886
H23   H     H_    0.004951 0.274024 0.356229 0.140392
H24   H     H_    0.357040 0.540389 0.999268 0.169790
H25   H     H_    0.428365 0.343527 0.907687 0.170775
H26   H     H_    0.643785 0.540021 0.997479 0.169186
H27   H     H_    0.070274 0.841860 0.093129 0.171886
H28   H     H_    0.857040 0.040389 0.999268 0.169790
H29   H     H_    0.928365 0.843527 0.907687 0.170775
H30   H     H_    0.143785 0.040021 0.997479 0.169186
H31   H     H_    0.751438 0.158340 0.734170 0.178300
H32   H     H_    0.253967 0.839076 0.250273 0.163476
H33   H     H_    0.246817 0.158920 0.266399 0.181451
H34   H     H_    0.001411 0.729356 0.623671 0.151453
H35   H     H_    0.742815 0.843036 0.752081 0.167042
H36   H     H_    0.251438 0.658340 0.734170 0.178300
H37   H     H_    0.753967 0.339076 0.250273 0.163476
H38   H     H_    0.746817 0.658921 0.266399 0.181451
H39   H     H_    0.242815 0.343036 0.752081 0.167042
H40   H     H_    0.797151 0.126515 0.813928 0.144100
H41   H     H_    0.198217 0.857894 0.180827 0.143560
H42   H     H_    0.200905 0.127635 0.186266 0.140719
H43   H     H_    0.795625 0.866324 0.826719 0.155154
H44   H     H_    0.297151 0.626516 0.813928 0.144100
H45   H     H_    0.588389 0.776994 0.367438 0.139203
H46   H     H_    0.698217 0.357894 0.180827 0.143560
H47   H     H_    0.700905 0.627635 0.186266 0.140719
H48   H     H_    0.295625 0.366324 0.826719 0.155154
H49   H     H_    0.575552 0.352687 0.232700 0.045055
H50   H     H_    0.327661 0.496503 0.893580 0.039820
H51   H     H_    0.418955 0.367537 0.774670 0.048508
H52   H     H_    0.673459 0.496423 0.102751 0.042061
H53   H     H_    0.075552 0.852687 0.232700 0.045055
H54   H     H_    0.827661 0.996503 0.893580 0.039820
H55   H     H_    0.918955 0.867537 0.774670 0.048508
H56   H     H_    0.420446 0.227793 0.604731 0.201462
H57   H     H_    0.173459 0.996423 0.102751 0.042061
H58   H     H_    0.504951 0.774024 0.356229 0.140392
H59   H     H_    0.501411 0.229356 0.623671 0.151453
H60   H     H_    0.779854 0.500203 0.445217 0.194614
O1    O     O_R   0.746490 0.236330 0.638080 -0.639157
O2    O     O_R   0.325830 0.813840 0.483730 -0.627421
O3    O     O_R   0.325830 0.186160 0.483730 -0.636721
O4    O     O_R   0.674170 0.813840 0.516270 -0.638717
O5    O     O_R   0.174170 0.686160 0.516270 -0.621392
O6    O     O_R   0.825830 0.313840 0.483730 -0.627421
O7    O     O_R   0.825830 0.686160 0.483730 -0.636721
O8    O     O_R   0.174170 0.313840 0.516270 -0.638717
O9    O     O_R   0.739960 0.127620 0.525000 -0.628769
O10   O     O_R   0.260040 0.872380 0.475000 -0.627642
O11   O     O_R   0.260040 0.127620 0.475000 -0.634034
O12   O     O_R   0.253510 0.763670 0.361920 -0.624860
O13   O     O_R   0.739960 0.872380 0.525000 -0.634404
O14   O     O_R   0.239960 0.627620 0.525000 -0.628769
O15   O     O_R   0.760040 0.372380 0.475000 -0.627642
O16   O     O_R   0.760040 0.627620 0.475000 -0.634034
O17   O     O_R   0.239960 0.372380 0.525000 -0.634404
O18   O     O_R   0.680700 0.294870 0.629350 -0.626603
O19   O     O_R   0.319300 0.705130 0.370650 -0.625500
O20   O     O_R   0.319300 0.294870 0.370650 -0.619474
O21   O     O_R   0.680700 0.705130 0.629350 -0.618268
O22   O     O_R   0.180700 0.794870 0.629350 -0.626603
O23   O     O_R   0.253510 0.236330 0.361920 -0.656641
O24   O     O_R   0.819300 0.205130 0.370650 -0.625500
O25   O     O_R   0.819300 0.794870 0.370650 -0.619474
O26   O     O_R   0.180700 0.205130 0.629350 -0.618268
O27   O     O_R   0.062020 0.072840 0.007170 -0.625389
O28   O     O_R   0.937980 0.927160 0.992830 -0.649317
O29   O     O_R   0.937980 0.072840 0.992830 -0.624645
O30   O     O_R   0.062020 0.927160 0.007170 -0.648787
O31   O     O_R   0.562020 0.572840 0.007170 -0.625389
O32   O     O_R   0.437980 0.427160 0.992830 -0.649317
O33   O     O_R   0.437980 0.572840 0.992830 -0.624645
O34   O     O_R   0.746490 0.763670 0.638080 -0.638837
O35   O     O_R   0.562020 0.427160 0.007170 -0.648787
O36   O     O_R   0.947860 0.073950 0.109290 -0.614134
O37   O     O_R   0.052140 0.926050 0.890710 -0.626945
O38   O     O_R   0.052140 0.073950 0.890710 -0.613887
O39   O     O_R   0.947860 0.926050 0.109290 -0.625956
O40   O     O_R   0.447860 0.573950 0.109290 -0.614134
O41   O     O_R   0.552140 0.426050 0.890710 -0.626945
O42   O     O_R   0.552140 0.573950 0.890710 -0.613887
O43   O     O_R   0.447860 0.426050 0.109290 -0.625956
O44   O     O_2   0.611631 0.268312 0.253451 -0.545441
O45   O     O_R   0.246490 0.736330 0.638080 -0.639157
O46   O     O_2   0.251731 0.522026 0.928932 -0.558756
O47   O     O_2   0.382270 0.285982 0.749131 -0.602068
O48   O     O_2   0.748851 0.525068 0.068746 -0.555483
O49   O     O_2   0.111631 0.768312 0.253451 -0.545441
O50   O     O_2   0.751731 0.022027 0.928932 -0.558756
O51   O     O_2   0.882270 0.785982 0.749131 -0.602068
O52   O     O_2   0.248851 0.025068 0.068746 -0.555483
O53   O     O_R   0.753510 0.263670 0.361920 -0.624860
O54   O     O_R   0.753510 0.736330 0.361920 -0.656641
O55   O     O_R   0.246490 0.263670 0.638080 -0.638837
O56   O     O_R   0.674170 0.186160 0.516270 -0.621392
Zn1   Zn    Zn3+2 0.792340 0.208750 0.507670 0.942997
Zn2   Zn    Zn3+2 0.494040 0.500000 0.919480 0.918357
Zn3   Zn    Zn3+2 0.005960 0.000000 0.080520 0.917953
Zn4   Zn    Zn3+2 0.994040 1.000000 0.919480 0.918357
Zn5   Zn    Zn3+2 0.207660 0.791250 0.492330 0.964703
Zn6   Zn    Zn3+2 0.207660 0.208750 0.492330 0.933662
Zn7   Zn    Zn3+2 0.792340 0.791250 0.507670 0.953345
Zn8   Zn    Zn3+2 0.292340 0.708750 0.507670 0.942997
Zn9   Zn    Zn3+2 0.707660 0.291250 0.492330 0.964703
Zn10  Zn    Zn3+2 0.707660 0.708750 0.492330 0.933662
Zn11  Zn    Zn3+2 0.292340 0.291250 0.507670 0.953345
Zn12  Zn    Zn3+2 0.505960 0.500000 0.080520 0.917953

loop_
_geom_bond_atom_site_label_1
_geom_bond_atom_site_label_2
_ccdc_geom_bond_type
C91   C188  S    
O33   Zn2   S    
C108  H57   S    
O20   Zn11  S    
C102  H50   S    
O36   Zn3   S    
C47   O35   A    
C9    C143  A    
C120  C166  S    
C158  H17   S    
C60   H45   S    
C124  C133  A    
C50   C59   A    
C52   C61   A    
C14   C102  S    
C54   C63   A    
C58   C60   A    
O56   Zn9   S    
C183  O11   A    
C61   C63   A    
C117  C132  A    
C62   C64   A    
C100  H49   S    
C101  H11   S    
C91   C96   A    
C116  C195  A    
C93   C181  S    
C50   C90   A    
C113  C122  A    
O2    Zn8   S    
C70   C74   A    
C78   C186  A    
C4    C12   A    
C34   H44   S    
C24   C85   A    
C88   C97   A    
C119  C128  A    
C143  C151  A    
C162  H21   S    
C104  O48   D    
C159  H18   S    
C49   C69   A    
C142  O22   A    
C109  O12   A    
C41   O29   A    
C153  O53   A    
C158  C167  A    
C21   H31   S    
C11   C20   A    
C166  C174  A    
C150  C159  A    
C39   C154  S    
C137  C146  A    
C127  C136  A    
C31   C121  A    
C139  C192  A    
C86   C90   A    
C71   C73   A    
C35   H5    S    
C172  C190  A    
C160  H19   S    
C35   C55   A    
C173  C191  A    
C103  H51   S    
C82   C91   A    
C51   C66   A    
C52   C72   A    
C3    C118  A    
C102  O46   D    
C54   C70   A    
O19   Zn8   S    
C39   O38   A    
C61   H34   S    
C163  C172  A    
C42   O30   A    
C8    H27   S    
C185  O14   A    
C142  O45   A    
C63   H12   S    
C110  H13   S    
O16   Zn10  S    
C184  O13   A    
C79   C85   A    
C66   C77   A    
C189  O17   A    
C34   C124  A    
C57   C78   A    
O55   Zn11  S    
C41   C151  S    
C21   C172  A    
C8    C17   A    
C56   C59   A    
C155  C163  A    
C62   H23   S    
C106  H54   S    
C80   C88   A    
C92   C182  S    
C112  C191  A    
C95   C183  S    
C11   H30   S    
C58   H58   S    
C84   C93   A    
C48   C67   A    
O37   Zn4   S    
C86   C95   A    
C142  C168  S    
C24   C77   A    
C108  O52   D    
C181  O56   A    
C45   O33   A    
C2    C81   A    
C15   C103  S    
C55   C71   A    
C2    C75   A    
C28   H38   S    
C20   C108  S    
C78   C87   A    
C48   C110  A    
C123  C132  A    
C68   H8    S    
C164  C170  S    
C138  C191  A    
C67   C77   A    
C27   C178  A    
C23   C174  A    
C98   H3    S    
C153  O24   A    
O1    Zn1   S    
C22   H32   S    
C40   C152  S    
C69   C76   A    
C111  C119  A    
O25   Zn7   S    
C6    C139  A    
C29   H39   S    
C18   C128  A    
C4    C137  A    
C46   C82   A    
C106  O50   D    
C29   C38   A    
C13   C76   A    
C8    C141  A    
C176  C193  A    
C149  C158  A    
C152  C161  A    
C131  C167  S    
C12   C134  A    
C188  O16   A    
C156  H15   S    
C72   C75   A    
C16   C104  S    
C141  C150  A    
C120  O20   A    
C55   C64   A    
C182  O2    A    
C139  C148  A    
C12   C100  S    
C162  C171  A    
C96   H60   S    
C87   C187  S    
C15   C136  A    
C104  H52   S    
C79   H9    S    
C189  O8    A    
C3    C180  A    
C18   C106  S    
O13   Zn7   S    
O14   Zn8   S    
C10   C144  A    
C1    O18   A    
C23   H33   S    
C114  C123  A    
C88   C185  S    
C115  C194  A    
C3    C145  A    
C4    H22   S    
C116  C125  A    
C118  C127  A    
C145  C154  A    
C22   C173  A    
C115  C129  A    
C37   C126  A    
C117  C126  A    
C26   C177  A    
C19   C132  A    
C113  C192  A    
C40   O28   A    
C83   C101  A    
C45   C147  S    
C154  C162  A    
O3    Zn11  S    
C111  C134  A    
C144  C196  A    
C14   C133  A    
C170  C179  A    
C36   H46   S    
O26   Zn6   S    
C112  C121  A    
C144  C152  A    
O27   Zn3   S    
O4    Zn10  S    
C9    H28   S    
C28   C37   A    
O34   Zn7   S    
O9    Zn1   S    
C148  C157  A    
C50   C65   A    
C51   C79   A    
C47   C146  S    
C137  C190  A    
C9    C18   A    
C51   C60   A    
C30   H40   S    
C140  C149  A    
C174  C192  A    
C19   C107  S    
C125  C134  A    
C37   H47   S    
O21   Zn10  S    
C73   C74   A    
O11   Zn6   S    
O42   Zn2   S    
O18   Zn9   S    
C188  O7    A    
C184  O4    A    
C65   C76   A    
C82   C186  A    
O41   Zn2   S    
C49   C101  A    
C7    C140  A    
C168  C177  A    
C90   H10   S    
O23   Zn6   S    
C146  C155  A    
O43   Zn12  S    
C65   C67   A    
C10   H29   S    
C160  C169  A    
C175  O26   A    
C93   C99   A    
C81   C89   A    
C187  O15   A    
C64   H1    S    
C94   C184  S    
C1    O1    A    
C179  C196  A    
O17   Zn11  S    
C177  C194  A    
C32   C122  A    
C53   C57   A    
C120  O23   A    
C107  O51   D    
C118  C130  A    
O29   Zn4   S    
C10   C19   A    
C143  C195  A    
O30   Zn3   S    
C57   H7    S    
O5    Zn5   S    
C147  C156  A    
O7    Zn7   S    
C5    C14   A    
C109  C165  S    
O38   Zn4   S    
C7    C16   A    
C161  H20   S    
C126  C135  A    
C183  O3    A    
C45   O40   A    
O10   Zn5   S    
C41   O36   A    
C25   H35   S    
C115  C124  A    
C155  H14   S    
C121  C129  A    
O54   Zn10  S    
C27   C36   A    
C38   H48   S    
C21   C30   A    
C13   C83   A    
C187  O6    A    
C107  H55   S    
C23   C32   A    
C105  H53   S    
O22   Zn5   S    
C32   H42   S    
C156  C165  A    
C164  O25   A    
C28   C179  A    
C131  O21   A    
C5    H24   S    
C46   H6    S    
C164  O54   A    
C1    C163  S    
C111  C190  A    
C153  C169  S    
C89   C189  S    
O8    Zn6   S    
C74   C186  A    
C68   C80   A    
C114  C193  A    
C36   C125  A    
O32   Zn2   S    
C112  C133  A    
C38   C127  A    
C35   C81   A    
C95   C98   A    
C92   C98   A    
C5    C138  A    
C83   C92   A    
O35   Zn12  S    
C47   O41   A    
C66   C69   A    
C30   C119  A    
C165  C173  A    
O15   Zn9   S    
C159  C168  A    
C6    C15   A    
C26   C34   A    
C39   O27   A    
O24   Zn1   S    
C113  C136  A    
C13   C86   A    
C114  C135  A    
C100  O44   D    
O53   Zn9   S    
C52   C68   A    
C6    H25   S    
C103  O47   D    
C31   H41   S    
O6    Zn1   S    
C46   C54   A    
C43   O31   A    
O28   Zn4   S    
O31   Zn12  S    
C44   O32   A    
C22   C31   A    
C17   C129  A    
C7    H26   S    
C11   C145  A    
C26   H36   S    
C171  C175  S    
C29   C180  A    
C84   C110  A    
C49   C58   A    
C89   C97   A    
C99   H4    S    
C33   H43   S    
C17   C105  S    
C85   C94   A    
C42   O37   A    
C138  C147  A    
O39   Zn3   S    
C87   C96   A    
C44   O43   A    
C109  O19   A    
C157  H16   S    
C161  C170  A    
O40   Zn12  S    
C181  O9    A    
C171  C180  A    
C169  C178  A    
C140  C193  A    
C48   C56   A    
C131  O34   A    
C97   H2    S    
C43   O42   A    
C53   C73   A    
C20   C130  A    
C43   C149  S    
C157  C166  A    
C178  C195  A    
O45   Zn8   S    
C151  C160  A    
C24   C84   A    
C117  C196  A    
C71   C75   A    
O12   Zn5   S    
C25   C176  A    
C185  O5    A    
C182  O10   A    
C94   C99   A    
C44   C148  S    
C141  C194  A    
C42   C150  S    
C2    C80   A    
C27   H37   S    
C53   C62   A    
C175  O55   A    
C116  C128  A    
C56   H59   S    
C25   C33   A    
C59   H56   S    
C33   C123  A    
C40   O39   A    
C70   C72   A    
C16   C135  A    
C122  C130  A    
C105  O49   D    
C167  C176  A    
