data_mof_unit_22171.cif
_audit_creation_date              2012-12-10T18:06:42-0500
_audit_creation_method            fapswitch 2.2
_symmetry_space_group_name_H-M    P1
_symmetry_Int_Tables_number       1
_space_group_crystal_system       triclinic
_cell_length_a                    12.652422
_cell_length_b                    13.198239
_cell_length_c                    15.337098
_cell_angle_alpha                 84.113284
_cell_angle_beta                  98.874115
_cell_angle_gamma                 96.465937
_cell_volume                      2504.89893809

loop_
_atom_site_label
_atom_site_type_symbol
_atom_type_description
_atom_site_fract_x
_atom_site_fract_y
_atom_site_fract_z
_atom_type_partial_charge
C1    C     C_R   0.442536 0.308878 0.506645 0.840798
C2    C     C_R   0.407388 0.482635 0.093082 0.093226
C3    C     C_R   0.338338 0.559525 0.058398 0.100234
C4    C     C_R   0.454264 0.430506 0.035202 0.027199
C5    C     C_R   0.461464 0.478337 0.949487 0.045326
C6    C     C_R   0.391250 0.552941 0.914721 -0.155024
C7    C     C_R   0.326828 0.589643 0.967589 -0.179764
C8    C     C_R   0.490840 0.331888 0.057691 0.124281
C9    C     C_R   0.546518 0.290434 0.000346 -0.222324
C10   C     C_R   0.567005 0.345035 0.920932 0.098443
C11   C     C_R   0.529721 0.442717 0.897526 0.042558
C12   C     C_R   0.435416 0.513086 0.335889 0.870682
C13   C     C_R   0.618697 0.300973 0.861802 -0.167519
C14   C     C_R   0.626287 0.350636 0.777994 -0.214701
C15   C     C_R   0.558882 0.499566 0.820901 0.103450
C16   C     C_R   0.649316 0.940455 0.372864 -0.178491
C17   C     C_R   0.582354 0.800081 0.469672 -0.058970
C18   C     C_R   0.330766 0.160583 0.565877 -0.188171
C19   C     C_R   0.309619 0.055720 0.583405 -0.125943
C20   C     C_R   0.368963 0.989617 0.550630 -0.161766
C21   C     C_R   0.448084 0.027903 0.496184 0.080810
C22   C     C_R   0.457406 0.132964 0.467947 0.090290
C23   C     C_R   0.555712 0.691310 0.489066 0.890167
C24   C     C_R   0.517745 0.965327 0.468267 0.073208
C25   C     C_R   0.583339 0.004140 0.402784 0.172341
C26   C     C_R   0.580308 0.105101 0.366967 -0.215530
C27   C     C_R   0.517442 0.168592 0.398647 -0.166623
C28   C     C_R   0.525171 0.865307 0.505016 -0.227533
C29   C     C_R   0.647268 0.837740 0.405099 -0.187480
C30   C     C_R   0.406835 0.199816 0.510375 -0.107230
C31   C     C_R   0.135300 0.641054 0.622600 -0.315478
C32   C     C_R   0.757184 0.380693 0.394419 0.031229
C33   C     C_R   0.851868 0.354162 0.371934 -0.235594
C34   C     C_R   0.563846 0.484534 0.664051 0.905229
C35   C     C_R   0.949635 0.398502 0.412377 -0.178716
C36   C     C_R   0.952340 0.470055 0.475488 0.032113
C37   C     C_R   0.853273 0.493899 0.496212 0.222220
C38   C     C_R   0.048498 0.519311 0.518308 -0.007475
C39   C     C_R   0.042612 0.590802 0.580254 0.131272
C40   C     C_R   0.944262 0.612321 0.599399 -0.244002
C41   C     C_R   0.850742 0.564345 0.557686 -0.191273
C42   C     C_R   0.150848 0.501335 0.502245 -0.104822
C43   C     C_R   0.233502 0.620964 0.603870 0.408598
C44   C     C_R   0.395396 0.523155 0.241388 -0.094383
C45   C     C_R   0.592704 0.448972 0.756687 -0.094503
C46   C     C_R   0.287489 0.607579 0.116357 0.158285
C47   C     C_R   0.315520 0.587887 0.207586 -0.208409
C48   C     C_R   0.439572 0.470047 0.184449 -0.216423
H1    H     H_    0.273901 0.646406 0.937643 0.191420
H2    H     H_    0.645086 0.225067 0.877550 0.156148
H3    H     H_    0.691986 0.787184 0.376840 0.168334
H4    H     H_    0.627157 0.135311 0.314922 0.158686
H5    H     H_    0.698842 0.969003 0.322237 0.147912
H6    H     H_    0.484338 0.835031 0.559950 0.195750
H7    H     H_    0.289754 0.210992 0.597750 0.166633
H8    H     H_    0.349137 0.909046 0.566904 0.172018
H9    H     H_    0.249894 0.025600 0.625326 0.159259
H10   H     H_    0.514416 0.245383 0.366934 0.170488
H11   H     H_    0.939522 0.666870 0.646619 0.169553
H12   H     H_    0.131583 0.695966 0.669778 0.178301
H13   H     H_    0.163166 0.448279 0.456806 0.143068
H14   H     H_    0.680876 0.347459 0.362647 0.131422
H15   H     H_    0.020996 0.375754 0.392667 0.145414
H16   H     H_    0.849480 0.299785 0.323228 0.156760
H17   H     H_    0.777362 0.584236 0.574394 0.218722
H18   H     H_    0.653212 0.310467 0.728589 0.170131
H19   H     H_    0.570399 0.213610 0.016407 0.176059
H20   H     H_    0.279384 0.627893 0.251892 0.183662
H21   H     H_    0.504051 0.423516 0.211459 0.173512
H22   H     H_    0.382281 0.580177 0.845391 0.209502
N1    N     N_R   0.239390 0.551900 0.544730 -0.122150
N2    N     N_R   0.759950 0.448600 0.455730 -0.132960
O1    O     O_R   0.374950 0.371210 0.521360 -0.616341
O2    O     O_R   0.542050 0.338030 0.492790 -0.620568
O3    O     O_R   0.368720 0.526070 0.390200 -0.613886
O4    O     O_R   0.535820 0.492890 0.361630 -0.621102
O5    O     O_R   0.457950 0.661970 0.507210 -0.569220
O6    O     O_R   0.625050 0.628790 0.478640 -0.642007
O7    O     O_R   0.464180 0.507110 0.638370 -0.558709
O8    O     O_R   0.631280 0.473930 0.609800 -0.635914
Zn1   Zn    Zn3+2 0.388420 0.522150 0.519080 0.987942
Zn2   Zn    Zn3+2 0.611580 0.477850 0.480920 0.933761
Br1   Br    Br    0.356362 0.694162 0.663839 -0.549475
I1    I     I_    0.597328 0.661728 0.815807 -0.312655
I2    I     I_    0.173830 0.715686 0.072965 -0.339086
I3    I     I_    0.435132 0.224705 0.158155 -0.424195

loop_
_geom_bond_atom_site_label_1
_geom_bond_atom_site_label_2
_ccdc_geom_bond_type
C17   C29   A    
C19   C20   A    
C48   H21   S    
C4    C8    A    
C32   N2    A    
C19   H9    S    
C26   C27   A    
C17   C23   S    
C31   C43   A    
C1    O2    A    
C36   C37   A    
C38   C42   A    
C3    C7    A    
C5    C6    A    
C43   Br1   S    
C18   C19   A    
C16   H5    S    
C42   N1    A    
C34   O8    A    
C11   C15   A    
C35   C36   A    
C8    C9    A    
C18   C30   A    
C9    C10   A    
C44   C47   A    
C20   H8    S    
C46   I2    S    
C40   H11   S    
C21   C22   A    
C37   N2    A    
O2    Zn2   S    
O1    Zn1   S    
C14   C45   A    
C24   C25   A    
C7    H1    S    
O8    Zn2   S    
O4    Zn2   S    
C39   C40   A    
O7    Zn1   S    
C28   H6    S    
O3    Zn1   S    
C41   H17   S    
C2    C48   A    
C16   C29   A    
C27   H10   S    
C31   H12   S    
C2    C4    A    
C9    H19   S    
C26   H4    S    
C34   O7    A    
O6    Zn2   S    
O5    Zn1   S    
C14   H18   S    
C34   C45   S    
C23   O5    A    
C42   H13   S    
C6    C7    A    
C18   H7    S    
C40   C41   A    
C22   C27   A    
C12   O4    A    
C12   O3    A    
C15   C45   A    
C47   H20   S    
C29   H3    S    
C16   C25   A    
C6    H22   S    
C46   C47   A    
C43   N1    A    
C22   C30   A    
C17   C28   A    
C24   C28   A    
C4    C5    A    
C10   C13   A    
C5    C11   A    
C15   I1    S    
C3    C46   A    
C1    O1    A    
C32   C33   A    
C36   C38   A    
C2    C3    A    
C25   C26   A    
C32   H14   S    
C12   C44   S    
C38   C39   A    
C33   H16   S    
C1    C30   S    
C33   C35   A    
C31   C39   A    
C8    I3    S    
C23   O6    A    
C37   C41   A    
C10   C11   A    
C13   H2    S    
C20   C21   A    
C21   C24   A    
C35   H15   S    
C13   C14   A    
N2    Zn2   S    
C44   C48   A    
N1    Zn1   S    
