data_mof_unit_49616.cif
_audit_creation_date              2012-12-10T17:02:59-0500
_audit_creation_method            fapswitch 2.2
_symmetry_space_group_name_H-M    P1
_symmetry_Int_Tables_number       1
_space_group_crystal_system       triclinic
_cell_length_a                    9.798008
_cell_length_b                    11.045651
_cell_length_c                    13.378814
_cell_angle_alpha                 94.254476
_cell_angle_beta                  81.320881
_cell_angle_gamma                 111.286776
_cell_volume                      1333.39734978

loop_
_atom_site_label
_atom_site_type_symbol
_atom_type_description
_atom_site_fract_x
_atom_site_fract_y
_atom_site_fract_z
_atom_type_partial_charge
C1    C     C_R   0.556527 0.745491 0.507321 0.856095
C2    C     C_R   0.432953 0.522976 0.976759 0.030089
C3    C     C_R   0.475648 0.550240 0.872157 0.067815
C4    C     C_R   0.546171 0.554307 0.040292 0.076404
C5    C     C_R   0.691827 0.637112 0.005122 0.165375
C6    C     C_R   0.724724 0.683658 0.907127 -0.239901
C7    C     C_R   0.618956 0.640155 0.841283 -0.178834
C8    C     C_R   0.520734 0.499887 0.135776 -0.220667
C9    C     C_R   0.769721 0.627500 0.167428 -0.184723
C10   C     C_R   0.372703 0.489987 0.802377 -0.160297
C11   C     C_2   0.588384 0.884641 0.511448 -0.351216
C12   C     C_R   0.422301 0.492184 0.691422 0.782884
C13   C     C_2   0.484052 0.930507 0.498499 -0.148728
C14   C     C_2   0.411426 0.115328 0.489021 -0.354180
C15   C     C_2   0.515630 0.069449 0.502269 -0.148239
C16   C     C_2   0.922403 0.489499 0.491589 -0.052836
C17   C     C_2   0.077118 0.509626 0.509078 -0.039387
C18   C     C_R   0.443399 0.254501 0.492851 0.869950
C19   C     C_R   0.578545 0.514208 0.309327 0.797026
C20   C     C_R   0.802628 0.672597 0.068708 -0.190292
C21   C     C_R   0.627361 0.542420 0.201711 -0.062038
C22   C     C_R   0.222848 0.421292 0.840833 -0.042423
C23   C     C_R   0.177399 0.418030 0.944530 -0.221746
C24   C     C_R   0.279158 0.469661 0.012698 -0.028390
Cu1   Cu    Cu3+1 0.362000 0.479240 0.482530 0.966964
Cu2   Cu    Cu3+1 0.638000 0.520760 0.517470 0.943674
H1    H     H_    0.853691 0.662017 0.217564 0.161871
H2    H     H_    0.374373 0.865354 0.484895 0.182016
H3    H     H_    0.697861 0.950062 0.525080 0.155174
H4    H     H_    0.125732 0.577898 0.567823 0.152249
H5    H     H_    0.873369 0.420390 0.433426 0.161478
H6    H     H_    0.105985 0.383925 0.400844 0.207111
H7    H     H_    0.894739 0.617522 0.598178 0.190170
H8    H     H_    0.913615 0.737619 0.042827 0.138918
H9    H     H_    0.417915 0.423208 0.160643 0.156466
H10   H     H_    0.060612 0.374519 0.972721 0.151473
H11   H     H_    0.650366 0.681871 0.767089 0.166784
H12   H     H_    0.625276 0.134598 0.515950 0.185519
N1    N     N_2   0.845330 0.551960 0.543750 -0.286501
N2    N     N_2   0.154690 0.448120 0.456210 -0.272352
O1    O     O_R   0.426290 0.668220 0.490680 -0.576806
O2    O     O_R   0.659360 0.703290 0.520190 -0.581694
O3    O     O_R   0.326580 0.473880 0.629020 -0.566761
O4    O     O_R   0.559660 0.508940 0.658530 -0.570797
O5    O     O_R   0.340640 0.296710 0.479810 -0.569972
O6    O     O_R   0.573710 0.331780 0.509320 -0.574770
O7    O     O_R   0.440340 0.491060 0.341470 -0.560084
O8    O     O_R   0.673420 0.526120 0.370980 -0.580293
H13   H     H_    0.301982 0.049904 0.475325 0.152376
H14   H     H_    0.833956 0.751158 0.880230 0.142957
C25   C     C_1   0.110687 0.354095 0.776725 0.269744
N3    N     N_1   0.020591 0.300184 0.725689 -0.283883
C26   C     C_1   0.218496 0.483712 0.116515 0.214567
N4    N     N_1   0.169311 0.495263 0.199374 -0.297338

loop_
_geom_bond_atom_site_label_1
_geom_bond_atom_site_label_2
_ccdc_geom_bond_type
C2    C4    A    
C23   C24   A    
C15   H12   S    
C6    C7    A    
C14   C18   S    
C9    C20   A    
C1    C11   S    
Cu2   O8    S    
C4    C8    A    
Cu1   Cu2   S    
C20   H8    S    
Cu1   N2    S    
Cu1   O3    S    
C13   C15   S    
C2    C3    A    
C7    H11   S    
Cu2   O4    S    
C13   H2    S    
C3    C10   A    
C26   N4    T    
C10   C22   A    
C16   H5    S    
C17   H4    S    
C11   C13   D    
C9    C21   A    
H7    N1    S    
C10   C12   S    
C18   O6    A    
C1    O1    A    
C19   C21   S    
C8    C21   A    
C12   O3    A    
C3    C7    A    
H6    N2    S    
Cu2   O2    S    
C2    C24   A    
C5    C6    A    
C19   O7    A    
Cu2   N1    S    
C22   C25   S    
C14   H13   S    
C11   H3    S    
Cu2   O6    S    
C16   N1    D    
C25   N3    T    
C18   O5    A    
Cu1   O5    S    
C1    O2    A    
C9    H1    S    
C12   O4    A    
C23   H10   S    
Cu1   O1    S    
C5    C20   A    
Cu1   O7    S    
C14   C15   D    
C16   C17   S    
C24   C26   S    
C19   O8    A    
C17   N2    D    
C22   C23   A    
C6    H14   S    
C4    C5    A    
C8    H9    S    
