data_mof_unit_44757.cif
_audit_creation_date              2012-10-26T19:42:37-0400
_audit_creation_method            fapswitch 2.2
_symmetry_space_group_name_H-M    P1
_symmetry_Int_Tables_number       1
_space_group_crystal_system       triclinic
_cell_length_a                    19.353751
_cell_length_b                    10.781108
_cell_length_c                    9.596218
_cell_angle_alpha                 90.014535
_cell_angle_beta                  89.126406
_cell_angle_gamma                 92.684497
_cell_volume                      1999.8676665

loop_
_atom_site_label
_atom_site_type_symbol
_atom_type_description
_atom_site_fract_x
_atom_site_fract_y
_atom_site_fract_z
_atom_type_partial_charge
C1    C     C_R   0.497543 0.262538 0.500115 0.544397
C2    C     C_R   0.854101 0.516761 0.486451 0.013766
C3    C     C_R   0.387938 0.119616 0.651405 -0.100420
C4    C     C_R   0.367268 0.499073 0.501543 0.520985
C5    C     C_R   0.336939 0.050170 0.725009 -0.105994
C6    C     C_R   0.337036 0.921219 0.724846 -0.119130
C7    C     C_R   0.388179 0.860823 0.651220 -0.100800
C8    C     C_R   0.441276 0.929257 0.577927 0.028809
C9    C     C_R   0.441130 0.060482 0.577949 0.022913
C10   C     C_R   0.492899 0.128320 0.500204 0.003578
C11   C     C_R   0.541509 0.067573 0.419636 -0.133246
C12   C     C_R   0.290716 0.500621 0.503911 -0.024176
C13   C     C_R   0.541689 0.939615 0.419726 -0.126641
C14   C     C_R   0.493217 0.870461 0.500293 0.015502
C15   C     C_R   0.592225 0.664369 0.141622 -0.097004
C16   C     C_R   0.498024 0.737118 0.500093 0.538565
C17   C     C_R   0.637560 0.744950 0.068773 -0.192551
C18   C     C_R   0.637848 0.746655 0.924589 -0.022358
C19   C     C_R   0.591827 0.666209 0.853781 -0.062828
C20   C     C_R   0.545016 0.581825 0.924115 0.132357
C21   C     C_R   0.545156 0.581295 0.073551 0.155074
C22   C     C_R   0.457516 0.421705 0.075184 0.007883
C23   C     C_R   0.929826 0.511941 0.484647 0.359898
C24   C     C_R   0.457811 0.421274 0.927302 -0.001260
C25   C     C_R   0.632475 0.501558 0.498824 0.551107
C26   C     C_R   0.248826 0.457316 0.618998 0.005706
C27   C     C_R   0.176671 0.455921 0.608263 -0.070227
C28   C     C_R   0.145178 0.500677 0.489237 0.008065
C29   C     C_R   0.186423 0.545349 0.377590 -0.114211
C30   C     C_R   0.258209 0.543946 0.384266 -0.134740
C31   C     C_2   0.276909 0.414466 0.752762 0.198483
C32   C     C_2   0.686941 0.833147 0.849043 0.226493
C33   C     C_2   0.852959 0.582313 0.743615 0.279772
C34   C     C_R   0.069320 0.502847 0.484466 0.344987
C35   C     C_2   0.851522 0.456215 0.230225 0.249137
C36   C     C_R   0.818132 0.542896 0.612628 0.012404
C37   C     C_R   0.745810 0.534760 0.615539 -0.129798
C38   C     C_R   0.708552 0.506521 0.495070 -0.016832
C39   C     C_R   0.744066 0.485468 0.369738 -0.100360
C40   C     C_R   0.816490 0.488338 0.363855 -0.011179
Cu1   Cu    Cu3+1 0.500000 0.499990 0.640660 0.926116
Cu2   Cu    Cu3+1 0.500000 0.500010 0.359340 0.935754
H1    H     H_    0.384222 0.219319 0.650679 0.137124
H2    H     H_    0.144711 0.423673 0.695941 0.185279
H3    H     H_    0.423618 0.356029 0.873207 0.115925
H4    H     H_    0.163189 0.580209 0.284306 0.150822
H5    H     H_    0.288482 0.578245 0.295292 0.144223
H6    H     H_    0.718366 0.553754 0.711958 0.136048
H7    H     H_    0.715035 0.463319 0.276596 0.181435
H8    H     H_    0.580572 0.119753 0.358822 0.137519
H9    H     H_    0.321660 0.460746 0.798790 0.134253
H10   H     H_    0.722220 0.894283 0.906946 0.131789
H11   H     H_    0.824131 0.578017 0.841608 0.141036
H12   H     H_    0.296583 0.096465 0.780881 0.177711
H13   H     H_    0.906465 0.441204 0.225846 0.145532
H14   H     H_    0.296751 0.867629 0.780483 0.128835
H15   H     H_    0.384609 0.760532 0.650463 0.141765
H16   H     H_    0.580895 0.894290 0.359013 0.123461
H17   H     H_    0.422687 0.357480 0.131392 0.129166
H18   H     H_    0.596663 0.671236 0.251337 0.186892
H19   H     H_    0.672752 0.806522 0.126033 0.118189
H20   H     H_    0.595090 0.672966 0.743926 0.218380
N1    N     N_R   0.038039 0.582913 0.399312 -0.209415
N2    N     N_R   0.969427 0.587620 0.399639 -0.209070
N3    N     N_R   0.960929 0.431260 0.568820 -0.168169
N4    N     N_R   0.029447 0.427171 0.569069 -0.202158
N5    N     N_R   0.500660 0.501210 0.147910 -0.242651
N6    N     N_R   0.500680 0.501290 0.852040 -0.248331
O1    O     O_R   0.499990 0.319640 0.618810 -0.495918
O2    O     O_2   0.688747 0.837349 0.721837 -0.513592
O3    O     O_2   0.912588 0.624511 0.743970 -0.448994
O4    O     O_2   0.819074 0.445077 0.122396 -0.512589
O5    O     O_R   0.500000 0.319660 0.381240 -0.496999
O6    O     O_R   0.400140 0.499970 0.618820 -0.537022
O7    O     O_R   0.400150 0.500000 0.381250 -0.493680
O8    O     O_R   0.500000 0.680340 0.618760 -0.523234
O9    O     O_R   0.500010 0.680360 0.381190 -0.518614
O10   O     O_R   0.599850 0.500000 0.618750 -0.510161
O11   O     O_R   0.599860 0.500030 0.381180 -0.524132
O12   O     O_2   0.247723 0.329078 0.817319 -0.528650

loop_
_geom_bond_atom_site_label_1
_geom_bond_atom_site_label_2
_ccdc_geom_bond_type
Cu1   Cu2   S    
C19   C20   A    
C34   N4    A    
C7    C8    A    
C3    H1    S    
C26   C27   A    
C29   C30   A    
C24   H3    S    
C36   C37   A    
C16   O9    A    
C5    C6    A    
C19   H20   S    
C33   C36   S    
C18   C19   A    
C15   H18   S    
C32   H10   S    
C4    O7    A    
C17   H19   S    
Cu1   O6    S    
C27   H2    S    
C8    C9    A    
C4    C12   S    
C9    C10   A    
C4    O6    A    
C28   C34   S    
Cu2   O11   S    
C16   O8    A    
C13   C14   A    
C21   N5    A    
Cu1   N6    S    
C33   H11   S    
C35   H13   S    
C25   O10   A    
C5    H12   S    
C31   O12   D    
C31   H9    S    
Cu1   O10   S    
C24   N6    A    
C32   O2    D    
C13   H16   S    
C1    O1    A    
C12   C26   A    
C37   C38   A    
C3    C9    A    
C25   C38   S    
C30   H5    S    
C15   C21   A    
C17   C18   A    
Cu2   O7    S    
C37   H6    S    
C23   N2    A    
C39   H7    S    
C35   O4    D    
Cu2   N5    S    
C14   C16   S    
C18   C32   S    
C22   H17   S    
Cu1   O1    S    
C2    C36   A    
C15   C17   A    
C28   C29   A    
Cu2   O5    S    
C8    C14   A    
C12   C30   A    
C25   O11   A    
C20   N6    A    
C1    C10   S    
C6    H14   S    
C3    C5    A    
C6    C7    A    
C29   H4    S    
C1    O5    A    
C23   N3    A    
C35   C40   S    
C11   H8    S    
Cu1   O8    S    
C11   C13   A    
C38   C39   A    
C34   N1    A    
C22   C24   A    
C22   N5    A    
C10   C11   A    
C33   O3    D    
N1    N2    A    
C39   C40   A    
C2    C40   A    
C26   C31   S    
C20   C21   A    
Cu2   O9    S    
N3    N4    A    
C2    C23   S    
C7    H15   S    
C27   C28   A    
