data_mof_unit_30371.cif
_audit_creation_date              2012-10-26T18:47:51-0400
_audit_creation_method            fapswitch 2.2
_symmetry_space_group_name_H-M    P1
_symmetry_Int_Tables_number       1
_space_group_crystal_system       triclinic
_cell_length_a                    15.852173
_cell_length_b                    8.686908
_cell_length_c                    7.452348
_cell_angle_alpha                 103.027294
_cell_angle_beta                  94.045423
_cell_angle_gamma                 92.198365
_cell_volume                      995.776424947

loop_
_atom_site_label
_atom_site_type_symbol
_atom_type_description
_atom_site_fract_x
_atom_site_fract_y
_atom_site_fract_z
_atom_type_partial_charge
C1    C     C_R   0.497519 0.199726 0.453240 0.547107
C2    C     C_2   0.503809 0.968211 0.573006 -0.144646
C3    C     C_R   0.340328 0.499825 0.502580 0.547236
C4    C     C_R   0.502556 0.800277 0.546755 0.553056
C5    C     C_R   0.659659 0.500263 0.497419 0.562755
C6    C     C_3   0.052212 0.469520 0.684314 -0.227316
C7    C     C_3   0.041978 0.376212 0.337271 -0.221573
C8    C     C_3   0.944233 0.375226 0.334273 -0.226682
C9    C     C_1   0.749138 0.501298 0.492528 0.030714
C10   C     C_3   0.083039 0.503707 0.503804 0.024660
C11   C     C_3   0.954382 0.467495 0.678021 -0.229932
C12   C     C_3   0.917146 0.505977 0.495536 0.066339
C13   C     C_3   0.955417 0.671329 0.479615 0.190483
C14   C     C_3   0.053749 0.667782 0.484556 -0.172857
C15   C     C_1   0.824750 0.503143 0.492232 0.002455
C16   C     C_1   0.175284 0.502031 0.507661 -0.071662
C17   C     C_1   0.250858 0.500957 0.507604 -0.023933
C18   C     C_2   0.496364 0.031797 0.426985 -0.146843
Cu1   Cu    Cu3+1 0.509300 0.517380 0.684380 0.986098
Cu2   Cu    Cu3+1 0.490700 0.482620 0.315620 0.977183
H1    H     H_    0.929258 0.348570 0.688293 0.144169
H2    H     H_    0.084000 0.760656 0.601665 0.141746
H3    H     H_    0.076774 0.694638 0.356806 0.139127
H4    H     H_    0.934815 0.553167 0.800375 0.182698
H5    H     H_    0.489354 0.960139 0.286295 0.136901
H6    H     H_    0.917214 0.391664 0.198594 0.158459
H7    H     H_    0.079830 0.561638 0.805529 0.142193
H8    H     H_    0.510831 0.039869 0.713696 0.137890
H9    H     H_    0.434900 0.376750 0.948701 0.239053
H10   H     H_    0.565113 0.623231 0.051293 0.250049
H11   H     H_    0.073865 0.353314 0.702983 0.136093
H12   H     H_    0.062304 0.400306 0.205771 0.133076
H13   H     H_    0.063266 0.257299 0.346072 0.145061
H14   H     H_    0.919123 0.257049 0.347184 0.155926
I1    I     I_    0.906955 0.735328 0.228894 -0.397048
I2    I     I_    0.920899 0.862110 0.698970 -0.374831
N1    N     N_2   0.476670 0.456430 0.038530 -0.256940
N2    N     N_2   0.523330 0.543570 0.961470 -0.251354
O1    O     O_R   0.506050 0.286130 0.619770 -0.507687
O2    O     O_R   0.490330 0.256780 0.308370 -0.498018
O3    O     O_R   0.387300 0.514690 0.655770 -0.503439
O4    O     O_R   0.371580 0.485340 0.344370 -0.496333
O5    O     O_R   0.509670 0.743220 0.691630 -0.494445
O6    O     O_R   0.493950 0.713870 0.380230 -0.506954
O7    O     O_R   0.628420 0.514660 0.655630 -0.483329
O8    O     O_R   0.612700 0.485310 0.344230 -0.494707

loop_
_geom_bond_atom_site_label_1
_geom_bond_atom_site_label_2
_ccdc_geom_bond_type
C14   H3    S    
C6    C10   S    
C7    C10   S    
Cu2   O4    S    
C11   C12   S    
Cu1   O7    S    
C3    O4    A    
C5    C9    S    
N1    N2    D    
C4    O5    A    
C2    C18   D    
C8    H6    S    
C5    O8    A    
C2    C4    S    
C6    H7    S    
C12   C15   S    
C8    C12   S    
C14   H2    S    
C6    H11   S    
C9    C15   T    
C7    C8    S    
C8    H14   S    
C13   C14   S    
Cu2   N1    S    
C7    H13   S    
C1    C18   S    
C18   H5    S    
Cu1   O1    S    
Cu1   N2    S    
Cu1   O5    S    
C3    C17   S    
Cu2   O2    S    
C1    O1    A    
Cu1   O3    S    
C11   H4    S    
C12   C13   S    
H10   N2    S    
C13   I2    S    
C10   C14   S    
H9    N1    S    
C6    C11   S    
C10   C16   S    
C3    O3    A    
C2    H8    S    
C7    H12   S    
C4    O6    A    
C1    O2    A    
Cu2   O6    S    
C5    O7    A    
C11   H1    S    
C13   I1    S    
Cu2   O8    S    
Cu1   Cu2   S    
C16   C17   T    
