data_mof_unit_18018.cif
_audit_creation_date              2012-12-11T14:45:54-0500
_audit_creation_method            fapswitch 2.2
_symmetry_space_group_name_H-M    P1
_symmetry_Int_Tables_number       1
_space_group_crystal_system       triclinic
_cell_length_a                    10.926256
_cell_length_b                    10.957538
_cell_length_c                    18.786971
_cell_angle_alpha                 90.17428
_cell_angle_beta                  89.992598
_cell_angle_gamma                 119.690396
_cell_volume                      1953.95997549

loop_
_atom_site_label
_atom_site_type_symbol
_atom_type_description
_atom_site_fract_x
_atom_site_fract_y
_atom_site_fract_z
_atom_type_partial_charge
C1    C     C_R   0.868953 0.635938 0.605201 0.543097
C2    C     C_R   0.269700 0.548516 0.796364 -0.145790
C3    C     C_R   0.254439 0.533703 0.723678 -0.132151
C4    C     C_R   0.297861 0.652267 0.680402 0.027284
C5    C     C_R   0.861364 0.179386 0.826462 -0.044640
C6    C     C_R   0.066785 0.142128 0.815786 -0.083323
C7    C     C_R   0.149158 0.104091 0.774925 -0.128948
C8    C     C_R   0.125000 0.081017 0.702176 -0.121080
C9    C     C_R   0.022347 0.101694 0.669412 -0.085513
C10   C     C_R   0.939380 0.142875 0.709495 -0.000333
C11   C     C_R   0.955642 0.154589 0.784699 0.009271
C12   C     C_R   0.265366 0.628885 0.605345 0.545842
C13   C     C_R   0.738351 0.181948 0.719940 0.026294
C14   C     C_R   0.770614 0.217315 0.791908 0.015231
C15   C     C_R   0.609166 0.165869 0.694053 -0.076767
C16   C     C_R   0.531082 0.210336 0.734099 -0.138218
C17   C     C_R   0.578159 0.268846 0.801073 -0.115589
C18   C     C_R   0.698343 0.274367 0.829653 -0.067492
C19   C     C_R   0.836605 0.166356 0.676400 -0.035452
C20   C     C_R   0.708871 0.589003 0.707377 -0.129555
C21   C     C_R   0.691564 0.594415 0.780336 -0.124422
C22   C     C_R   0.809743 0.650903 0.825684 0.027287
C23   C     C_R   0.859857 0.224646 0.603006 0.530973
C24   C     C_R   0.944297 0.698586 0.798059 -0.129904
C25   C     C_R   0.961700 0.696785 0.725517 -0.114834
C26   C     C_R   0.844642 0.644863 0.679924 0.041603
C27   C     C_R   0.216704 0.541290 0.272399 -0.108862
C28   C     C_R   0.234124 0.562469 0.199445 0.092329
C29   C     C_R   0.336348 0.694963 0.174453 0.053111
C30   C     C_R   0.401401 0.810252 0.222280 0.091550
C31   C     C_R   0.379228 0.787624 0.294936 -0.156274
C32   C     C_R   0.293469 0.652770 0.319851 -0.030555
C33   C     C_R   0.794587 0.262275 0.273865 -0.154338
C34   C     C_R   0.870370 0.635878 0.395382 0.542017
C35   C     C_R   0.796597 0.246683 0.201153 -0.164374
C36   C     C_R   0.858719 0.172792 0.172353 0.050461
C37   C     C_R   0.943101 0.137539 0.216032 0.159438
C38   C     C_R   0.938002 0.152492 0.289875 -0.117563
C39   C     C_R   0.858563 0.207934 0.318468 -0.014598
C40   C     C_R   0.964224 0.693719 0.274942 -0.136060
C41   C     C_R   0.947025 0.697412 0.202337 -0.141226
C42   C     C_R   0.812399 0.649181 0.174575 0.028194
C43   C     C_R   0.693564 0.584784 0.219203 -0.137935
C44   C     C_R   0.711001 0.580817 0.292180 -0.152526
C45   C     C_R   0.263878 0.629175 0.394648 0.546689
C46   C     C_R   0.846955 0.641833 0.320243 0.030878
C47   C     C_R   0.812071 0.109278 0.896730 0.527197
C48   C     C_R   0.393353 0.700739 0.897258 0.538886
C49   C     C_R   0.796444 0.690567 0.897431 0.539133
C50   C     C_R   0.809833 0.108064 0.102340 0.544625
C51   C     C_R   0.396969 0.706677 0.104082 0.563163
C52   C     C_R   0.797496 0.692939 0.104010 0.546251
C53   C     C_R   0.865110 0.237058 0.393677 0.542705
C54   C     C_R   0.349094 0.785229 0.710989 -0.154274
C55   C     C_R   0.367621 0.800759 0.784274 -0.140592
C56   C     C_R   0.333020 0.682560 0.826761 0.020112
Cr1   Cr    Cr6+3 0.791660 0.390250 0.499930 1.013199
Cr2   Cr    Cr6+3 0.098520 0.708290 0.500540 1.002802
Cr3   Cr    Cr6+3 0.109770 0.401430 0.499480 1.007274
Cr4   Cr    Cr6+3 0.874790 0.925890 0.000070 1.008033
Cr5   Cr    Cr6+3 0.574120 0.948670 0.999300 1.011532
Cr6   Cr    Cr6+3 0.551420 0.625320 0.000920 0.992790
H1    H     H_    0.376322 0.876201 0.678229 0.111274
H2    H     H_    0.435296 0.201397 0.712542 0.102899
H3    H     H_    0.565546 0.116106 0.643420 0.130635
H4    H     H_    0.519198 0.305952 0.831793 0.105824
H5    H     H_    0.617835 0.545392 0.672529 0.119425
H6    H     H_    0.586871 0.560370 0.800825 0.138594
H7    H     H_    0.036443 0.743671 0.832219 0.124037
H8    H     H_    0.067108 0.735797 0.704949 0.140622
H9    H     H_    0.141471 0.438407 0.292196 0.157746
H10   H     H_    0.416557 0.905528 0.806910 0.147464
H11   H     H_    0.430853 0.874826 0.331931 0.123726
H12   H     H_    0.742050 0.316191 0.295200 0.152736
H13   H     H_    0.741155 0.283810 0.167758 0.121987
H14   H     H_    0.997111 0.124425 0.325913 0.120437
H15   H     H_    0.069782 0.734104 0.295835 0.140030
H16   H     H_    0.039210 0.744916 0.168397 0.115712
H17   H     H_    0.588166 0.546534 0.198506 0.139290
H18   H     H_    0.619641 0.534732 0.326676 0.121100
H19   H     H_    0.240365 0.455904 0.828300 0.127552
H20   H     H_    0.207328 0.428662 0.701487 0.152418
H21   H     H_    0.231544 0.091740 0.799980 0.103109
H22   H     H_    0.186660 0.047948 0.670862 0.108778
H23   H     H_    0.005094 0.080356 0.612939 0.129271
H24   H     H_    0.730765 0.316619 0.882869 0.117063
O1    O     O_R   0.766500 0.250040 0.579790 -0.520935
O2    O     O_R   0.218690 0.701900 0.425960 -0.504737
O3    O     O_R   0.249490 0.516440 0.419420 -0.520269
O4    O     O_R   0.982880 0.281910 0.424890 -0.512089
O5    O     O_3   0.999980 0.499990 0.499980 -0.249587
O6    O     O_R   0.895110 0.806860 0.920430 -0.518493
O7    O     O_R   0.872260 0.046970 0.925000 -0.506882
O8    O     O_R   0.691430 0.085060 0.918550 -0.520628
O9    O     O_R   0.451490 0.822460 0.925250 -0.507645
O10   O     O_R   0.413330 0.603360 0.920440 -0.531551
O11   O     O_R   0.676110 0.626250 0.926750 -0.513091
O12   O     O_R   0.798570 0.516780 0.574780 -0.494386
O13   O     O_R   0.895350 0.809870 0.080950 -0.504206
O14   O     O_R   0.872490 0.049760 0.073800 -0.494509
O15   O     O_R   0.691680 0.088070 0.079070 -0.514522
O16   O     O_R   0.451720 0.825250 0.074050 -0.475588
O17   O     O_R   0.413580 0.606370 0.080960 -0.533586
O18   O     O_R   0.676340 0.629040 0.075550 -0.513624
O19   O     O_3   0.666780 0.833290 0.000090 -0.236045
O20   O     O_R   0.984000 0.732950 0.581090 -0.529345
O21   O     O_R   0.218600 0.700890 0.574760 -0.509046
O22   O     O_R   0.249390 0.515350 0.579940 -0.522249
O23   O     O_R   0.982790 0.280900 0.573700 -0.505118
O24   O     O_R   0.766600 0.251130 0.419260 -0.523018
O25   O     O_R   0.798660 0.517790 0.425980 -0.507233
O26   O     O_R   0.984100 0.734040 0.420570 -0.525168
N1    N     N_2   0.151652 0.448754 0.152418 -0.517891
H25   H     H_    0.204513 0.400640 0.131885 0.263225
C57   C     C_3   0.068924 0.474101 0.100259 -0.296409
H26   H     H_    0.007952 0.378809 0.067158 0.129911
H27   H     H_    0.136450 0.560842 0.063753 0.136753
H28   H     H_    0.994231 0.499561 0.127448 0.153318
N2    N     N_2   0.495196 0.948200 0.198302 -0.464007
H29   H     H_    0.578934 0.001980 0.232362 0.254321
C58   C     C_3   0.425860 0.027694 0.181524 -0.276961
H30   H     H_    0.386095 0.051314 0.231120 0.110994
H31   H     H_    0.337819 0.968394 0.143535 0.145744
H32   H     H_    0.501188 0.128251 0.156033 0.148266
N3    N     N_2   0.030532 0.088236 0.185066 -0.473276
H33   H     H_    0.085766 0.143941 0.140911 0.253784
C59   C     C_3   0.112544 0.049336 0.230274 -0.313872
H34   H     H_    0.198335 0.143900 0.256749 0.126462
H35   H     H_    0.159121 0.999472 0.197076 0.133152
H36   H     H_    0.044421 0.971256 0.270423 0.168522
H37   H     H_    0.093850 0.165371 0.871402 0.123727

loop_
_geom_bond_atom_site_label_1
_geom_bond_atom_site_label_2
_ccdc_geom_bond_type
C53   O24   A    
C7    H21   S    
C55   C56   A    
C48   O9    A    
Cr6   O10   S    
C34   O26   A    
C41   C42   A    
C14   C18   A    
C20   H5    S    
Cr5   O15   S    
C35   C36   A    
Cr4   O13   S    
C27   H9    S    
C7    C8    A    
Cr6   O19   S    
C38   H14   S    
C51   O16   A    
C40   C46   A    
C5    C47   S    
C35   H13   S    
C17   H4    S    
C29   C30   A    
Cr2   O26   S    
C36   C37   A    
C29   C51   S    
C5    C11   A    
Cr3   O3    S    
C38   C39   A    
C31   H11   S    
C30   N2    S    
C43   H17   S    
C57   H26   S    
C15   H3    S    
C48   O10   A    
Cr2   O21   S    
C32   C45   S    
C39   C53   S    
C58   H32   S    
C9    H23   S    
C31   C32   A    
C8    C9    A    
C57   H27   S    
C34   C46   S    
C4    C12   S    
Cr5   O19   S    
Cr2   O5    S    
Cr6   O18   S    
C55   H10   S    
C1    O20   A    
Cr4   O7    S    
Cr4   O6    S    
N3    H33   S    
C18   H24   S    
C23   O1    A    
C21   C22   A    
C34   O25   A    
C53   O4    A    
Cr3   O23   S    
C44   C46   A    
C24   H7    S    
C37   N3    S    
N2    C58   S    
C23   O23   A    
C15   C16   A    
C13   C19   A    
C44   H18   S    
C45   O2    A    
C24   C25   A    
C10   C11   A    
C6    C11   A    
C12   O22   A    
Cr5   O8    S    
C16   C17   A    
Cr3   O5    S    
C25   C26   A    
C5    C14   A    
Cr1   O1    S    
Cr2   O20   S    
Cr3   O4    S    
C19   C23   S    
C43   C44   A    
C59   H35   S    
C37   C38   A    
Cr6   O11   S    
Cr1   O24   S    
C10   C19   A    
C57   H28   S    
C3    H20   S    
C17   C18   A    
C47   O7    A    
C33   C39   A    
C58   H30   S    
C22   C49   S    
C40   C41   A    
C13   C15   A    
C21   H6    S    
C1    C26   S    
C22   C24   A    
C42   C43   A    
C49   O6    A    
C59   H34   S    
C28   C29   A    
C41   H16   S    
C36   C50   S    
N1    H25   S    
C9    C10   A    
C48   C56   S    
C54   C55   A    
C52   O18   A    
C45   O3    A    
Cr1   O5    S    
C4    C54   A    
C27   C32   A    
C8    H22   S    
C6    H37   S    
Cr4   O14   S    
Cr2   O2    S    
C1    O12   A    
Cr6   O17   S    
C12   O21   A    
N2    H29   S    
Cr5   O9    S    
C6    C7    A    
C52   O13   A    
C50   O14   A    
Cr3   O22   S    
Cr5   O16   S    
C59   H36   S    
C2    C56   A    
C30   C31   A    
Cr1   O25   S    
C20   C26   A    
Cr1   O12   S    
C33   C35   A    
C47   O8    A    
C2    C3    A    
C58   H31   S    
C28   N1    S    
C49   O11   A    
C33   H12   S    
C20   C21   A    
C50   O15   A    
C54   H1    S    
C27   C28   A    
N3    C59   S    
C40   H15   S    
C2    H19   S    
C25   H8    S    
C16   H2    S    
C13   C14   A    
C51   O17   A    
Cr4   O19   S    
C3    C4    A    
C42   C52   S    
N1    C57   S    
