data_mof_unit_17195.cif
_audit_creation_date              2012-12-11T15:22:40-0500
_audit_creation_method            fapswitch 2.2
_symmetry_space_group_name_H-M    P1
_symmetry_Int_Tables_number       1
_space_group_crystal_system       triclinic
_cell_length_a                    22.345082
_cell_length_b                    12.994966
_cell_length_c                    26.907427
_cell_angle_alpha                 89.876331
_cell_angle_beta                  90.236201
_cell_angle_gamma                 90.034416
_cell_volume                      7813.11996936

loop_
_atom_site_label
_atom_site_type_symbol
_atom_type_description
_atom_site_fract_x
_atom_site_fract_y
_atom_site_fract_z
_atom_type_partial_charge
C1    C     C_R   0.720836 0.345780 0.178431 0.528441
C2    C     C_R   0.473687 0.259173 0.896896 -0.113510
C3    C     C_R   0.004804 0.585029 0.553412 -0.120655
C4    C     C_R   0.491192 0.082913 0.389241 -0.125403
C5    C     C_R   0.391359 0.128726 0.585310 -0.138683
C6    C     C_R   0.998349 0.584526 0.393019 -0.126826
C7    C     C_R   0.994469 0.581923 0.604353 -0.128628
C8    C     C_R   0.745545 0.939447 0.367333 0.022320
C9    C     C_R   0.257249 0.949115 0.630216 0.018956
C10   C     C_R   0.241381 0.451148 0.370462 0.024028
C11   C     C_R   0.763101 0.464473 0.625868 0.022110
C12   C     C_R   0.698695 0.897758 0.395572 -0.127930
C13   C     C_R   0.021778 0.759007 0.103694 -0.099361
C14   C     C_R   0.305558 0.902862 0.605793 -0.138285
C15   C     C_R   0.191447 0.413804 0.396290 -0.126681
C16   C     C_R   0.815732 0.442350 0.599539 -0.122966
C17   C     C_R   0.710193 0.856135 0.442385 -0.120365
C18   C     C_R   0.302617 0.885946 0.555058 -0.130063
C19   C     C_R   0.195383 0.395240 0.446768 -0.123279
C20   C     C_R   0.814355 0.433776 0.548365 -0.120395
C21   C     C_R   0.768799 0.854627 0.461396 0.035197
C22   C     C_R   0.250318 0.910453 0.528568 0.034560
C23   C     C_R   0.249732 0.410707 0.471767 0.036150
C24   C     C_R   0.980191 0.754932 0.897648 -0.114513
C25   C     C_R   0.760088 0.443737 0.522728 0.036773
C26   C     C_R   0.816249 0.887031 0.431003 -0.118143
C27   C     C_R   0.199400 0.943781 0.554328 -0.120410
C28   C     C_R   0.301252 0.437229 0.444957 -0.121699
C29   C     C_R   0.706736 0.458821 0.549224 -0.127376
C30   C     C_R   0.804650 0.930085 0.384500 -0.125821
C31   C     C_R   0.202984 0.963909 0.604893 -0.126906
C32   C     C_R   0.297010 0.458165 0.394444 -0.129161
C33   C     C_R   0.708292 0.469927 0.600601 -0.139131
C34   C     C_R   0.818018 0.899168 0.541480 -0.120936
C35   C     C_R   0.506514 0.256943 0.051134 -0.043896
C36   C     C_R   0.216513 0.975480 0.445767 -0.123103
C37   C     C_R   0.286315 0.472978 0.553769 -0.115019
C38   C     C_R   0.719879 0.495387 0.440045 -0.118974
C39   C     C_R   0.721643 0.348525 0.321197 0.545655
C40   C     C_R   0.278888 0.346907 0.678090 0.536197
C41   C     C_R   0.221167 0.846748 0.321949 0.543739
C42   C     C_R   0.795633 0.806093 0.672827 0.561791
C43   C     C_R   0.822937 0.890478 0.592775 -0.126921
C44   C     C_R   0.210760 0.962485 0.394680 -0.129212
C45   C     C_R   0.291475 0.460765 0.604909 -0.120703
C46   C     C_R   0.487247 0.260796 0.947651 -0.048205
C47   C     C_R   0.711346 0.473655 0.389998 -0.124366
C48   C     C_R   0.750411 0.751856 0.592083 -0.127511
C49   C     C_R   0.276888 0.814662 0.399301 -0.125654
C50   C     C_R   0.222526 0.316430 0.601064 -0.130462
C51   C     C_R   0.786404 0.339050 0.395354 -0.128594
C52   C     C_R   0.745787 0.760023 0.540475 -0.113163
C53   C     C_R   0.281038 0.825575 0.450274 -0.124587
C54   C     C_R   0.218678 0.326866 0.550075 -0.126951
C55   C     C_R   0.794152 0.359536 0.445412 -0.123117
C56   C     C_R   0.779023 0.834811 0.514795 0.037772
C57   C     C_R   0.008133 0.760610 0.052859 -0.042673
C58   C     C_R   0.249496 0.904147 0.474161 0.033563
C59   C     C_R   0.251734 0.403402 0.525922 0.037528
C60   C     C_R   0.758961 0.434597 0.468555 0.036692
C61   C     C_R   0.788499 0.817886 0.618729 0.019171
C62   C     C_R   0.239284 0.879724 0.371509 0.025287
C63   C     C_R   0.261193 0.380072 0.628503 0.025380
C64   C     C_R   0.742365 0.391730 0.368145 0.023623
C65   C     C_R   0.553555 0.158785 0.321453 0.544995
C66   C     C_R   0.418204 0.155482 0.673337 0.554619
C67   C     C_R   0.053768 0.658904 0.321349 0.543491
C68   C     C_R   0.989835 0.757920 0.949196 -0.046020
C69   C     C_R   0.945851 0.658940 0.678394 0.535933
C70   C     C_R   0.732100 0.000580 0.322697 0.553965
C71   C     C_R   0.267776 0.000437 0.677619 0.542527
C72   C     C_R   0.231954 0.500906 0.322586 0.554421
C73   C     C_R   0.768791 0.503222 0.676464 0.543338
C74   C     C_R   0.539542 0.070969 0.096653 -0.106912
C75   C     C_R   0.501424 0.078631 0.892354 -0.127846
C76   C     C_R   0.002863 0.574882 0.106650 -0.126027
C77   C     C_R   0.968525 0.569120 0.901818 -0.126219
C78   C     C_R   0.532154 0.074088 0.045578 0.046676
C79   C     C_R   0.515242 0.167012 0.022541 -0.004276
C80   C     C_R   0.515314 0.078882 0.942769 0.030151
C81   C     C_R   0.990344 0.574648 0.056032 0.018166
C82   C     C_R   0.975638 0.571130 0.952978 0.014993
C83   C     C_R   0.534538 0.988336 0.966000 -0.105679
C84   C     C_R   0.542507 0.985701 0.017213 -0.084870
C85   C     C_R   0.970383 0.480083 0.980570 -0.102885
C86   C     C_R   0.977172 0.482026 0.031903 -0.090642
C87   C     C_2   0.670853 0.801990 0.036126 0.540416
C88   C     C_2   0.383331 0.925408 0.979321 0.554414
C89   C     C_2   0.138325 0.338977 0.031252 0.567227
C90   C     C_R   0.506497 0.169291 0.970908 -0.007024
C91   C     C_2   0.831292 0.302457 0.963549 0.546141
C92   C     C_R   0.994444 0.667243 0.028686 -0.015524
C93   C     C_R   0.278811 0.345995 0.821042 0.530586
C94   C     C_R   0.986516 0.665609 0.976944 -0.014971
C95   C     C_R   0.488923 0.348578 0.027443 0.396908
C96   C     C_R   0.478971 0.350344 0.976081 0.393892
C97   C     C_R   0.010989 0.852435 0.025200 0.406199
C98   C     C_R   0.001387 0.851210 0.973774 0.399627
C99   C     C_R   0.722787 0.016876 0.121052 -0.008768
C100  C     C_R   0.279301 0.027693 0.879829 -0.020487
C101  C     C_R   0.227271 0.501061 0.122396 -0.008707
C102  C     C_R   0.778214 0.517600 0.879002 -0.008579
C103  C     C_R   0.748981 0.085987 0.087744 -0.125724
C104  C     C_R   0.221285 0.846364 0.178687 0.534959
C105  C     C_R   0.229606 0.058034 0.907856 -0.111111
C106  C     C_R   0.277954 0.526618 0.094714 -0.130179
C107  C     C_R   0.753350 0.587401 0.912445 -0.129397
C108  C     C_R   0.749430 0.064224 0.037139 -0.128826
C109  C     C_R   0.228237 0.040504 0.958873 -0.116831
C110  C     C_R   0.282009 0.496719 0.045555 -0.136097
C111  C     C_R   0.754339 0.566283 0.963152 -0.132022
C112  C     C_R   0.724196 0.972760 0.019068 -0.011401
C113  C     C_R   0.276855 0.993872 0.983291 -0.004003
C114  C     C_R   0.236196 0.438784 0.023465 -0.006990
C115  C     C_R   0.779118 0.845794 0.821457 0.539936
C116  C     C_R   0.779500 0.474554 0.981291 -0.009784
C117  C     C_R   0.696860 0.902313 0.052286 0.048319
C118  C     C_R   0.328894 0.969030 0.955767 0.056701
C119  C     C_R   0.185427 0.409119 0.051209 0.049156
C120  C     C_R   0.805706 0.403512 0.947840 0.051750
C121  C     C_R   0.555145 0.156862 0.176797 0.535703
C122  C     C_R   0.446835 0.157680 0.822010 0.537776
C123  C     C_R   0.053047 0.657578 0.177989 0.537180
C124  C     C_R   0.945199 0.656845 0.823055 0.537078
C125  C     C_R   0.695984 0.926378 0.103038 -0.126234
C126  C     C_R   0.477576 0.166807 0.869920 -0.023592
C127  C     C_R   0.329214 0.985463 0.904282 -0.130573
C128  C     C_R   0.180917 0.443634 0.100299 -0.130626
C129  C     C_R   0.805248 0.427163 0.896985 -0.119940
C130  C     C_R   0.694337 0.957742 0.929563 -0.055216
C131  C     C_R   0.281740 0.859072 0.049351 -0.066401
C132  C     C_R   0.203291 0.446738 0.935078 -0.065012
C133  C     C_R   0.810531 0.447642 0.070223 -0.051010
C134  C     C_R   0.706849 0.923987 0.881357 -0.110106
C135  C     C_R   0.270013 0.824693 0.097274 -0.112860
C136  C     C_R   0.213675 0.425141 0.885100 -0.121269
C137  C     C_R   0.533319 0.160484 0.125415 -0.016733
C138  C     C_R   0.796649 0.413885 0.118271 -0.114459
C139  C     C_R   0.805980 0.871726 0.908817 -0.114086
C140  C     C_R   0.229401 0.991762 0.118264 -0.103794
C141  C     C_R   0.304745 0.334379 0.908406 -0.089365
C142  C     C_R   0.693555 0.387467 0.092376 -0.114330
C143  C     C_R   0.792904 0.902494 0.956847 -0.102844
C144  C     C_R   0.243250 0.027607 0.070666 -0.091715
C145  C     C_R   0.294059 0.354419 0.957948 -0.074345
C146  C     C_R   0.707774 0.417807 0.044471 -0.113752
C147  C     C_R   0.737009 0.944878 0.967505 0.056166
C148  C     C_R   0.968650 0.660770 0.873993 -0.020547
C149  C     C_R   0.268897 0.961015 0.035584 0.055862
C150  C     C_R   0.243715 0.411404 0.971418 0.066220
C151  C     C_R   0.766325 0.446766 0.032956 0.051652
C152  C     C_R   0.762980 0.881449 0.870947 0.023636
C153  C     C_R   0.242543 0.889831 0.131676 0.025375
C154  C     C_R   0.265164 0.370809 0.871959 0.038097
C155  C     C_R   0.737907 0.384062 0.129419 0.022082
C156  C     C_R   0.519961 0.168742 0.368302 0.020581
C157  C     C_R   0.432778 0.163967 0.620544 0.031432
C158  C     C_R   0.025363 0.669502 0.370047 0.023238
C159  C     C_R   0.022132 0.665375 0.129992 -0.020160
C160  C     C_R   0.972079 0.668907 0.628780 0.023652
C161  C     C_R   0.522398 0.261101 0.395356 -0.127426
C162  C     C_R   0.486370 0.209264 0.604805 -0.108296
C163  C     C_R   0.034582 0.760234 0.397316 -0.126709
C164  C     C_R   0.964046 0.760891 0.602114 -0.125862
C165  C     C_R   0.500094 0.265439 0.443663 -0.123412
C166  C     C_R   0.499091 0.216270 0.554148 -0.120493
C167  C     C_R   0.022055 0.762885 0.447775 -0.124225
C168  C     C_R   0.973069 0.763351 0.551082 -0.117857
C169  C     C_R   0.719660 0.043514 0.173980 0.556033
C170  C     C_R   0.516485 0.253316 0.102656 -0.112717
C171  C     C_R   0.280832 0.046028 0.825721 0.564632
C172  C     C_R   0.221377 0.537619 0.173580 0.553572
C173  C     C_R   0.780547 0.543798 0.825931 0.558731
C174  C     C_R   0.474316 0.177970 0.465510 0.032311
C175  C     C_R   0.458405 0.177899 0.518707 0.026612
C176  C     C_R   0.998865 0.675608 0.471644 0.035960
C177  C     C_R   0.992051 0.674661 0.526060 0.037910
C178  C     C_R   0.468250 0.087694 0.437357 -0.116450
C179  C     C_R   0.404198 0.134697 0.534697 -0.114960
C180  C     C_R   0.984685 0.587899 0.443441 -0.118091
Cr1   Cr    Cr6+3 0.756570 0.170940 0.251190 1.022526
Cr2   Cr    Cr6+3 0.374010 0.036240 0.749520 1.024432
Cr3   Cr    Cr6+3 0.125990 0.536240 0.250480 1.020254
Cr4   Cr    Cr6+3 0.874010 0.536240 0.749520 1.016178
Cr5   Cr    Cr6+3 0.243430 0.170940 0.748810 1.013018
Cr6   Cr    Cr6+3 0.256570 0.670940 0.251190 1.024837
Cr7   Cr    Cr6+3 0.743430 0.670940 0.748810 1.029339
Cr8   Cr    Cr6+3 0.623740 0.299110 0.249580 1.026623
Cr9   Cr    Cr6+3 0.376260 0.299110 0.750420 1.030445
Cr10  Cr    Cr6+3 0.123740 0.799110 0.249580 1.025960
Cr11  Cr    Cr6+3 0.876260 0.799110 0.750420 1.021552
Cr12  Cr    Cr6+3 0.625990 0.036240 0.250480 1.024927
F1    F     F_    0.460313 0.439183 0.954321 -0.598797
F2    F     F_    0.480424 0.436026 0.054047 -0.603527
F3    F     F_    0.004290 0.941019 0.947978 -0.600435
F4    F     F_    0.023780 0.943229 0.047806 -0.591194
H1    H     H_    0.505204 0.007686 0.871439 0.142718
H2    H     H_    0.368927 0.966178 0.883284 0.173430
H3    H     H_    0.141645 0.423595 0.121744 0.170881
H4    H     H_    0.825397 0.373912 0.871059 0.179684
H5    H     H_    0.544357 0.328528 0.380257 0.130990
H6    H     H_    0.518541 0.237806 0.631668 0.127035
H7    H     H_    0.055736 0.826866 0.380660 0.135456
H8    H     H_    0.946791 0.829193 0.619988 0.124533
H9    H     H_    0.371817 0.105908 0.508058 0.119074
H10   H     H_    0.448673 0.019142 0.453518 0.106941
H11   H     H_    0.021511 0.516566 0.535289 0.101628
H12   H     H_    0.553693 0.999075 0.113529 0.141716
H13   H     H_    0.964883 0.520710 0.460680 0.100104
H14   H     H_    0.348835 0.097651 0.597041 0.109574
H15   H     H_    0.488531 0.010844 0.369210 0.128106
H16   H     H_    0.001335 0.510192 0.624141 0.126210
H17   H     H_    0.990417 0.514019 0.372623 0.124174
H18   H     H_    0.504556 0.336237 0.464533 0.102006
H19   H     H_    0.541444 0.249034 0.542694 0.110191
H20   H     H_    0.033793 0.831357 0.468499 0.100198
H21   H     H_    0.962648 0.833456 0.531032 0.096252
H22   H     H_    0.652694 0.903567 0.383020 0.130300
H23   H     H_    0.958960 0.495914 0.884202 0.142621
H24   H     H_    0.347805 0.889674 0.624638 0.136155
H25   H     H_    0.147953 0.407452 0.378616 0.133876
H26   H     H_    0.858930 0.439157 0.617905 0.138933
H27   H     H_    0.843314 0.959014 0.522975 0.100089
H28   H     H_    0.193610 0.039255 0.463179 0.099931
H29   H     H_    0.310572 0.534910 0.535888 0.102704
H30   H     H_    0.693855 0.556159 0.456950 0.097226
H31   H     H_    0.853290 0.941811 0.612058 0.128846
H32   H     H_    0.181862 0.013787 0.373785 0.123717
H33   H     H_    0.321319 0.510810 0.625529 0.130033
H34   H     H_    0.002199 0.502690 0.126951 0.143679
H35   H     H_    0.677876 0.516428 0.369327 0.128649
H36   H     H_    0.541982 0.918860 0.944698 0.142333
H37   H     H_    0.556058 0.914240 0.034723 0.140168
H38   H     H_    0.961028 0.407398 0.962441 0.147962
H39   H     H_    0.973321 0.410751 0.052628 0.172350
H40   H     H_    0.672684 0.832282 0.465010 0.104325
H41   H     H_    0.342653 0.860140 0.536338 0.101770
H42   H     H_    0.154946 0.375098 0.466590 0.100548
H43   H     H_    0.856130 0.422962 0.528785 0.100270
H44   H     H_    0.715797 0.708764 0.520754 0.102315
H45   H     H_    0.849420 0.838190 0.901348 0.134376
H46   H     H_    0.306383 0.768887 0.471044 0.101761
H47   H     H_    0.192006 0.271861 0.529440 0.098577
H48   H     H_    0.824611 0.311510 0.466561 0.102027
H49   H     H_    0.724240 0.694001 0.611123 0.138980
H50   H     H_    0.299181 0.749524 0.382465 0.138196
H51   H     H_    0.198940 0.252846 0.618238 0.136190
H52   H     H_    0.811208 0.275837 0.379257 0.132848
H53   H     H_    0.862048 0.884083 0.444289 0.105496
H54   H     H_    0.157623 0.958583 0.535079 0.100480
H55   H     H_    0.344134 0.445887 0.463393 0.106126
H56   H     H_    0.207591 0.042840 0.144278 0.134968
H57   H     H_    0.664037 0.463634 0.530184 0.101878
H58   H     H_    0.841644 0.959802 0.362888 0.128094
H59   H     H_    0.164653 0.997387 0.623310 0.128311
H60   H     H_    0.336226 0.485601 0.374926 0.127265
H61   H     H_    0.667305 0.487335 0.620215 0.127213
H62   H     H_    0.455828 0.327742 0.879303 0.194298
H63   H     H_    0.512568 0.322467 0.124845 0.185086
H64   H     H_    0.979622 0.825632 0.876217 0.187721
H65   H     H_    0.036127 0.829137 0.121933 0.194653
H66   H     H_    0.768890 0.156983 0.100896 0.152194
H67   H     H_    0.343779 0.289704 0.898380 0.117402
H68   H     H_    0.191155 0.093652 0.890257 0.164489
H69   H     H_    0.314244 0.570812 0.110802 0.155582
H70   H     H_    0.733359 0.658415 0.899326 0.151776
H71   H     H_    0.651452 0.992113 0.937536 0.122567
H72   H     H_    0.299150 0.804818 0.022566 0.133311
H73   H     H_    0.164402 0.491423 0.945468 0.123435
H74   H     H_    0.855709 0.471577 0.061693 0.130388
H75   H     H_    0.673488 0.932315 0.852320 0.114721
H76   H     H_    0.279111 0.745275 0.106562 0.116634
H77   H     H_    0.182633 0.452072 0.856930 0.110660
H78   H     H_    0.648043 0.363654 0.100182 0.141048
H79   H     H_    0.831215 0.411816 0.146584 0.113848
H80   H     H_    0.771256 0.117325 0.012001 0.171969
H81   H     H_    0.187877 0.059599 0.978999 0.168529
H82   H     H_    0.321129 0.519203 0.024434 0.173563
H83   H     H_    0.733368 0.619935 0.988395 0.171646
H84   H     H_    0.826166 0.892483 0.985886 0.134137
H85   H     H_    0.232480 0.106326 0.060776 0.137855
H86   H     H_    0.325284 0.326494 0.985804 0.134285
H87   H     H_    0.673229 0.417445 0.016073 0.133938
H88   H     H_    0.644239 0.659019 0.055756 0.353014
H89   H     H_    0.674910 0.873608 0.128810 0.178950
H90   H     H_    0.450862 0.822992 0.974766 0.352603
H91   H     H_    0.115150 0.228220 0.982273 0.357822
H92   H     H_    0.855439 0.158616 0.943516 0.357490
O1    O     O_R   0.769900 0.064540 0.196060 -0.492252
O2    O     O_R   0.433710 0.069580 0.694600 -0.503551
O3    O     O_R   0.066290 0.569580 0.305400 -0.519930
O4    O     O_R   0.933710 0.569580 0.694600 -0.519993
O5    O     O_R   0.680760 0.993330 0.302620 -0.496334
O6    O     O_R   0.319240 0.993330 0.697380 -0.516354
O7    O     O_R   0.180760 0.493330 0.302620 -0.499903
O8    O     O_R   0.819240 0.493330 0.697380 -0.500165
O9    O     O_3   0.668770 0.168760 0.250420 -0.264566
O10   O     O_3   0.331230 0.168760 0.749580 -0.290343
O11   O     O_3   0.168770 0.668760 0.250420 -0.258093
O12   O     O_R   0.230100 0.064540 0.803940 -0.501451
O13   O     O_3   0.831230 0.668760 0.749580 -0.289558
O14   O     O_R   0.750800 0.274080 0.199250 -0.519301
O15   O     O_R   0.249200 0.274080 0.800750 -0.515120
O16   O     O_R   0.250800 0.774080 0.199250 -0.513541
O17   O     O_R   0.749200 0.774080 0.800750 -0.512502
O18   O     O_R   0.669990 0.371670 0.194150 -0.504454
O19   O     O_R   0.330010 0.371670 0.805850 -0.500752
O20   O     O_R   0.169990 0.871670 0.194150 -0.505609
O21   O     O_R   0.830010 0.871670 0.805850 -0.496241
O22   O     O_R   0.574600 0.238480 0.197800 -0.503426
O23   O     O_R   0.269900 0.564540 0.196060 -0.507078
O24   O     O_R   0.425400 0.238480 0.802200 -0.501944
O25   O     O_R   0.074600 0.738480 0.197800 -0.500926
O26   O     O_R   0.925400 0.738480 0.802200 -0.502222
O27   O     O_R   0.566130 0.068680 0.194240 -0.521765
O28   O     O_R   0.433870 0.068680 0.805760 -0.521867
O29   O     O_R   0.066130 0.568680 0.194240 -0.525148
O30   O     O_R   0.933870 0.568680 0.805760 -0.522005
O31   O     O_R   0.680610 0.992490 0.199570 -0.504512
O32   O     O_R   0.319390 0.992490 0.800430 -0.490401
O33   O     O_R   0.180610 0.492490 0.199570 -0.499440
O34   O     O_R   0.730100 0.564540 0.803940 -0.488683
O35   O     O_R   0.819390 0.492490 0.800430 -0.499677
O36   O     O_R   0.770060 0.065440 0.307230 -0.516577
O37   O     O_R   0.229940 0.065440 0.692770 -0.518204
O38   O     O_R   0.270060 0.565440 0.307230 -0.517955
O39   O     O_R   0.729940 0.565440 0.692770 -0.526156
O40   O     O_R   0.750960 0.274920 0.302300 -0.505115
O41   O     O_R   0.249040 0.274920 0.697700 -0.510089
O42   O     O_R   0.250960 0.774920 0.302300 -0.505278
O43   O     O_R   0.749040 0.774920 0.697700 -0.494538
O44   O     O_R   0.670160 0.372580 0.305320 -0.517608
O45   O     O_R   0.574760 0.239320 0.300850 -0.498099
O46   O     O_R   0.329840 0.372580 0.694680 -0.516893
O47   O     O_R   0.170160 0.872580 0.305320 -0.519575
O48   O     O_R   0.829840 0.872580 0.694680 -0.514546
O49   O     O_2   0.656270 0.787762 0.992859 -0.539445
O50   O     O_R   0.662091 0.723453 0.071011 -0.704350
O51   O     O_2   0.398785 0.953242 0.020826 -0.510099
O52   O     O_R   0.416828 0.851622 0.953923 -0.697016
O53   O     O_2   0.088818 0.336970 0.050426 -0.528214
O54   O     O_R   0.150800 0.272254 0.991929 -0.709498
O55   O     O_2   0.847762 0.287879 0.006325 -0.534215
O56   O     O_R   0.425240 0.239320 0.699150 -0.493390
O57   O     O_R   0.837521 0.223497 0.928665 -0.703463
O58   O     O_R   0.074760 0.739320 0.300850 -0.502105
O59   O     O_R   0.925240 0.739320 0.699150 -0.518141
O60   O     O_R   0.566290 0.069580 0.305400 -0.516986

loop_
_geom_bond_atom_site_label_1
_geom_bond_atom_site_label_2
_ccdc_geom_bond_type
C99   C103  A    
C21   C26   A    
C34   C56   A    
Cr12  O5    S    
C82   C94   A    
C100  C127  A    
C132  C150  A    
C142  C146  A    
C16   H26   S    
C133  C151  A    
C7    H16   S    
C5    H14   S    
C172  O23   A    
C163  H7    S    
C65   C156  S    
C141  C154  A    
C83   H36   S    
Cr4   O35   S    
C29   C33   A    
C139  C152  A    
C101  C128  A    
C88   O52   S    
Cr11  O59   S    
C5    C179  A    
C79   C90   A    
C164  H8    S    
Cr5   O37   S    
Cr7   O39   S    
C121  O22   A    
Cr6   O16   S    
C25   C60   S    
C29   H57   S    
C36   H28   S    
C49   H50   S    
C18   H41   S    
C141  C145  A    
C38   H30   S    
C119  C128  A    
C93   O19   A    
C104  O16   A    
H91   O54   S    
C14   H24   S    
C130  C134  A    
C80   C83   A    
C12   H22   S    
Cr11  O13   S    
Cr7   O34   S    
C25   C29   A    
C74   C137  A    
C125  H89   S    
C55   H48   S    
C27   C31   A    
C9    C71   S    
C28   C32   A    
C19   H42   S    
C47   C64   A    
C17   C21   A    
C111  H83   S    
C19   C23   A    
C42   O48   A    
Cr10  O11   S    
C26   H53   S    
C16   C20   A    
Cr11  O26   S    
C57   C97   A    
C92   C94   A    
C4    H15   S    
C172  O33   A    
C130  H71   S    
C96   F1    S    
Cr11  O48   S    
C76   H34   S    
C131  C149  A    
C114  C150  S    
Cr8   O18   S    
C127  H2    S    
C40   O41   A    
C43   C61   A    
Cr6   O38   S    
C106  H69   S    
C49   C62   A    
Cr5   O15   S    
C77   H23   S    
C51   C64   A    
Cr7   O13   S    
C22   C58   S    
C53   C58   A    
C171  O12   A    
C82   C85   A    
C24   H64   S    
Cr1   O9    S    
C75   C126  A    
C3    H11   S    
C28   H55   S    
Cr3   O3    S    
C6    H17   S    
C123  C159  S    
C77   C82   A    
C49   C53   A    
C178  H10   S    
C51   C55   A    
H90   O52   S    
Cr4   O30   S    
C128  H3    S    
C169  O31   A    
C48   C52   A    
C170  H63   S    
C46   C96   A    
C33   H61   S    
C144  H85   S    
C35   C170  A    
C157  C162  A    
C161  C165  A    
C179  H9    S    
C122  C126  S    
C91   O57   S    
Cr11  O21   S    
C57   C92   A    
C67   O3    A    
C123  O29   A    
C136  H77   S    
C69   C160  S    
C97   C98   A    
C85   C86   A    
C23   C59   S    
Cr2   O32   S    
C162  H6    S    
Cr3   O29   S    
C115  O21   A    
C40   O46   A    
C13   C57   A    
C101  C172  S    
Cr5   O10   S    
C121  C137  S    
C174  C175  S    
C81   C92   A    
C139  C143  A    
Cr9   O24   S    
C104  C153  S    
C110  C114  A    
C145  C150  A    
C132  C136  A    
C166  H19   S    
C50   C63   A    
C141  H67   S    
C6    C158  A    
C68   C98   A    
C54   C59   A    
C120  C129  A    
C11   C33   A    
Cr5   O41   S    
C24   C68   A    
C89   O54   S    
Cr9   O10   S    
C165  C174  A    
C68   C94   A    
C116  C120  A    
Cr6   O23   S    
C173  O35   A    
C65   O60   A    
C123  O25   A    
C169  O1    A    
C83   C84   A    
C131  H72   S    
C8    C12   A    
C137  C170  A    
C102  C107  A    
C23   C28   A    
C87   O49   D    
C42   O43   A    
C37   C59   A    
C158  C163  A    
C38   C60   A    
C73   O39   A    
C156  C161  A    
C26   C30   A    
C95   F2    S    
C1    O14   A    
C118  C127  A    
C88   C118  S    
C34   H27   S    
C17   H40   S    
C101  C106  A    
C105  C109  A    
C6    C180  A    
C130  C147  A    
C18   C22   A    
C107  C111  A    
C34   C43   A    
C81   C86   A    
C4    C178  A    
C109  H81   S    
C39   O40   A    
C140  C153  A    
C8    C70   S    
C112  C147  S    
C31   H59   S    
C138  H79   S    
Cr5   O12   S    
C54   H47   S    
Cr6   O11   S    
C133  H74   S    
C35   C79   A    
C143  H84   S    
Cr1   O14   S    
Cr8   O22   S    
C139  H45   S    
C52   H44   S    
C146  C151  A    
C176  C180  A    
Cr6   O42   S    
C89   O53   D    
C2    H62   S    
C91   O55   D    
C117  C125  A    
C13   C159  A    
C66   C157  S    
C10   C72   S    
C138  C155  A    
C76   C159  A    
Cr2   O10   S    
C140  H56   S    
Cr3   O7    S    
C39   O44   A    
C102  C173  S    
C15   C19   A    
C39   C64   S    
C124  C148  S    
C166  C175  A    
C50   C54   A    
C40   C63   S    
C73   O8    A    
C160  C164  A    
C87   C117  S    
C3    C7    A    
C112  C117  A    
C20   C25   A    
C72   O38   A    
C168  C177  A    
Cr12  O31   S    
C70   O5    A    
C162  C166  A    
Cr1   O40   S    
C89   C119  S    
Cr7   O17   S    
C12   C17   A    
C41   O47   A    
C30   H58   S    
C111  C116  A    
C168  H21   S    
C174  C178  A    
Cr4   O13   S    
C37   H29   S    
C133  C138  A    
Cr2   O28   S    
C55   C60   A    
Cr1   O1    S    
C115  O17   A    
C41   C62   S    
Cr2   O6    S    
Cr3   O11   S    
Cr8   O44   S    
C75   H1    S    
C85   H38   S    
C11   C73   S    
C132  H73   S    
C7    C160  A    
C108  C112  A    
C88   O51   D    
C9    C14   A    
C48   H49   S    
C136  C154  A    
C11   C16   A    
C164  C168  A    
C134  C152  A    
C32   H60   S    
C107  H70   S    
C122  O24   A    
C124  O26   A    
C44   H32   S    
C77   C148  A    
C4    C156  A    
C171  O32   A    
C71   O37   A    
C5    C157  A    
Cr8   O45   S    
C50   H51   S    
Cr10  O47   S    
C70   O36   A    
C41   O42   A    
C140  C144  A    
C108  H80   S    
C21   C56   S    
C46   C90   A    
Cr9   O56   S    
C35   C95   A    
C131  C135  A    
C69   O4    A    
Cr9   O46   S    
C8    C30   A    
C51   H52   S    
C105  H68   S    
C135  H76   S    
C103  H66   S    
C180  H13   S    
C72   O7    A    
C65   O45   A    
Cr12  O60   S    
C74   C78   A    
C67   O58   A    
C110  H82   S    
C37   C45   A    
C14   C18   A    
C95   C96   A    
C102  C129  A    
Cr4   O8    S    
C99   C125  A    
C74   H12   S    
C2    C46   A    
C143  C147  A    
C100  C105  A    
C104  O20   A    
C10   C32   A    
Cr10  O58   S    
C97   F4    S    
C161  H5    S    
C93   C154  S    
C27   H54   S    
Cr9   O19   S    
C36   C58   A    
C10   C15   A    
Cr10  O20   S    
C47   H35   S    
C173  O34   A    
C1    C155  S    
C115  C152  S    
C103  C108  A    
C142  C155  A    
C75   C80   A    
C142  H78   S    
C109  C113  A    
C100  C171  S    
C45   H33   S    
C167  H20   S    
C145  H86   S    
C43   H31   S    
Cr12  O27   S    
H88   O50   S    
C113  C149  S    
C53   H46   S    
C24   C148  A    
Cr1   O36   S    
C78   C79   A    
C175  C179  A    
C44   C62   A    
C134  H75   S    
C69   O59   A    
C45   C63   A    
C71   O6    A    
C15   H25   S    
C163  C167  A    
C144  C149  A    
Cr7   O43   S    
H92   O57   S    
Cr2   O2    S    
C42   C61   S    
C38   C47   A    
Cr10  O25   S    
Cr8   O9    S    
C2    C126  A    
C176  C177  S    
Cr3   O33   S    
C66   O56   A    
C106  C110  A    
Cr12  O9    S    
C93   O15   A    
C114  C119  A    
C76   C81   A    
C99   C169  S    
C121  O27   A    
C20   H43   S    
C1    O18   A    
C122  O28   A    
C86   H39   S    
C135  C153  A    
C22   C27   A    
C124  O30   A    
C84   H37   S    
C3    C177  A    
C48   C61   A    
C98   F3    S    
C67   C158  S    
C116  C151  S    
C80   C90   A    
Cr4   O4    S    
C87   O50   S    
C129  H4    S    
C36   C44   A    
C9    C31   A    
C113  C118  A    
C78   C84   A    
C165  H18   S    
C66   O2    A    
C91   C120  S    
C13   H65   S    
C146  H87   S    
C52   C56   A    
C167  C176  A    
