data_mof_unit_41376.cif
_audit_creation_date              2012-12-10T16:44:13-0500
_audit_creation_method            fapswitch 2.2
_symmetry_space_group_name_H-M    P1
_symmetry_Int_Tables_number       1
_space_group_crystal_system       triclinic
_cell_length_a                    7.43679
_cell_length_b                    8.708847
_cell_length_c                    13.293303
_cell_angle_alpha                 93.967185
_cell_angle_beta                  77.355379
_cell_angle_gamma                 103.01954
_cell_volume                      818.296983088

loop_
_atom_site_label
_atom_site_type_symbol
_atom_type_description
_atom_site_fract_x
_atom_site_fract_y
_atom_site_fract_z
_atom_type_partial_charge
C1    C     C_R   0.543000 0.799866 0.505723 0.876385
C2    C     C_R   0.408846 0.521288 0.979913 0.013964
C3    C     C_R   0.457066 0.562784 0.874561 0.051853
C4    C     C_R   0.553493 0.560299 0.038111 -0.007103
C5    C     C_R   0.716441 0.678733 0.002153 0.083382
C6    C     C_R   0.746605 0.739298 0.904078 -0.198429
C7    C     C_R   0.622294 0.678362 0.839730 -0.169102
C8    C     C_R   0.546775 0.481002 0.128580 0.403197
C9    C     C_R   0.814195 0.677830 0.164146 -0.257059
C10   C     C_R   0.335228 0.491837 0.807963 -0.090384
C11   C     C_2   0.565715 0.967360 0.505490 -0.385308
C12   C     C_R   0.399024 0.495858 0.694860 0.785965
C13   C     C_2   0.416738 0.034609 0.518408 -0.289068
C14   C     C_R   0.452038 0.200283 0.501788 0.813736
C15   C     C_R   0.601858 0.513075 0.305714 0.863344
C16   C     C_R   0.846439 0.735838 0.065270 -0.190502
C17   C     C_R   0.663741 0.550712 0.196336 -0.106803
C18   C     C_R   0.154932 0.404292 0.849923 -0.192304
C19   C     C_R   0.094350 0.388360 0.955927 -0.223672
C20   C     C_R   0.216951 0.449377 0.022426 0.031599
Cu1   Cu    Cu3+1 0.321300 0.483160 0.488710 0.999074
Cu2   Cu    Cu3+1 0.678700 0.516840 0.511290 0.990804
H1    H     H_    0.903625 0.734625 0.216226 0.187243
H2    H     H_    0.008733 0.614091 0.581712 0.266440
H3    H     H_    0.990254 0.383870 0.419350 0.244188
H4    H     H_    0.869690 0.830695 0.875798 0.170778
H5    H     H_    0.967671 0.830370 0.040049 0.156871
H6    H     H_    0.058643 0.350382 0.800637 0.171627
H7    H     H_    0.948933 0.331261 0.986265 0.150566
H8    H     H_    0.652907 0.728698 0.764181 0.177281
H9    H     H_    0.709572 0.036224 0.485402 0.197083
N1    N     N_2   0.947230 0.542220 0.528320 -0.203278
N2    N     N_2   0.052770 0.457780 0.471680 -0.224679
O1    O     O_R   0.383920 0.714220 0.492660 -0.582984
O2    O     O_R   0.685730 0.742660 0.511730 -0.546183
O3    O     O_R   0.275440 0.478800 0.636790 -0.580877
O4    O     O_R   0.577250 0.507240 0.655860 -0.583576
O5    O     O_R   0.314270 0.257340 0.488270 -0.582372
O6    O     O_R   0.616080 0.285780 0.507340 -0.574879
O7    O     O_R   0.422750 0.492760 0.344140 -0.538782
O8    O     O_R   0.724560 0.521200 0.363210 -0.594373
C21   C     C_2   0.217960 0.952053 0.559914 0.914416
O9    O     O_2   0.176528 0.894503 0.645321 -0.595361
O10   O     O_R   0.077271 0.941342 0.503584 -0.727877
H10   H     H_    0.128256 0.984959 0.431753 0.296914
O11   O     O_3   0.424292 0.337238 0.153188 -0.580262
C22   C     C_3   0.509713 0.216554 0.101379 0.012791
H11   H     H_    0.643306 0.216705 0.126374 0.173552
H12   H     H_    0.539765 0.230210 0.016193 0.145045
C23   C     C_3   0.376155 0.057741 0.127368 -0.709853
H13   H     H_    0.345476 0.039371 0.211821 0.245390
H14   H     H_    0.241829 0.053328 0.102518 0.246347
H15   H     H_    0.441794 0.961623 0.086975 0.213797
C24   C     C_2   0.131520 0.459890 0.133982 0.914640
O12   O     O_2   0.000465 0.355725 0.173924 -0.629263
O13   O     O_R   0.198387 0.590981 0.192967 -0.775089
H16   H     H_    0.128747 0.585173 0.267656 0.341146

loop_
_geom_bond_atom_site_label_1
_geom_bond_atom_site_label_2
_ccdc_geom_bond_type
C2    C4    A    
H2    N1    S    
C18   H6    S    
C6    C7    A    
C14   O5    A    
Cu2   N1    S    
C23   H14   S    
C8    C17   A    
C1    C11   S    
C4    C8    A    
N1    N2    D    
C16   H5    S    
C23   H13   S    
C11   H9    S    
C22   H12   S    
C7    H8    S    
C13   C14   S    
O13   H16   S    
Cu2   O2    S    
C11   C13   D    
C20   C24   S    
C15   O8    A    
C6    H4    S    
Cu1   O7    S    
C21   O10   S    
C10   C18   A    
C3    C10   A    
Cu2   O6    S    
C10   C12   S    
C9    C17   A    
C13   C21   S    
C9    C16   A    
C1    O1    A    
C2    C3    A    
C22   C23   S    
C24   O13   S    
C5    C6    A    
C8    O11   S    
C15   O7    A    
C23   H15   S    
C12   O3    A    
C21   O9    D    
C2    C20   A    
Cu2   O8    S    
C22   H11   S    
Cu1   Cu2   S    
Cu1   N2    S    
O10   H10   S    
C1    O2    A    
C15   C17   S    
C18   C19   A    
C12   O4    A    
Cu1   O3    S    
O11   C22   S    
C9    H1    S    
C5    C16   A    
Cu1   O1    S    
C3    C7    A    
C14   O6    A    
C24   O12   D    
Cu2   O4    S    
Cu1   O5    S    
C19   C20   A    
H3    N2    S    
C4    C5    A    
C19   H7    S    
