data_mof_unit_42192.cif
_audit_creation_date              2012-12-11T16:30:33-0500
_audit_creation_method            fapswitch 2.2
_symmetry_space_group_name_H-M    P1
_symmetry_Int_Tables_number       1
_space_group_crystal_system       triclinic
_cell_length_a                    7.204253
_cell_length_b                    14.50994
_cell_length_c                    16.376203
_cell_angle_alpha                 90.000154
_cell_angle_beta                  86.844962
_cell_angle_gamma                 90.00019
_cell_volume                      1709.26346467

loop_
_atom_site_label
_atom_site_type_symbol
_atom_type_description
_atom_site_fract_x
_atom_site_fract_y
_atom_site_fract_z
_atom_type_partial_charge
O1    O     O_R   0.611670 0.415650 0.164070 -0.528480
O2    O     O_R   0.388330 0.915650 0.835930 -0.528478
O3    O     O_R   0.940950 0.405490 0.337780 -0.546676
O4    O     O_R   0.059050 0.905490 0.662220 -0.546677
O5    O     O_R   0.111350 0.584350 0.338470 -0.524423
O6    O     O_R   0.888650 0.084350 0.661530 -0.524422
C1    C     C_R   0.767047 0.380430 0.360961 0.610221
C2    C     C_R   0.232952 0.880428 0.639042 0.610224
O7    O     O_R   0.941380 0.404630 0.164680 -0.535321
O8    O     O_R   0.058620 0.904630 0.835320 -0.535323
O9    O     O_R   0.111780 0.583470 0.164130 -0.528071
O10   O     O_R   0.888220 0.083470 0.835870 -0.528070
C3    C     C_R   0.775319 0.381621 0.137208 0.689902
C4    C     C_R   0.224681 0.881618 0.862790 0.689897
O11   O     O_R   0.611240 0.416530 0.338400 -0.559914
O12   O     O_R   0.388760 0.916530 0.661600 -0.559916
O13   O     O_3   0.778020 0.558680 0.251290 -0.406671
O14   O     O_3   0.221980 0.058680 0.748710 -0.406671
V1    V     V_3+5 0.052840 0.489110 0.251260 1.397879
V2    V     V_3+5 0.947160 0.989110 0.748740 1.397871
O15   O     O_R   0.441500 0.594510 0.164760 -0.538131
O16   O     O_R   0.558500 0.094510 0.835240 -0.538130
C5    C     C_R   0.275504 0.617070 0.137206 0.696147
C6    C     C_R   0.724496 0.117069 0.862795 0.696149
O17   O     O_R   0.441080 0.595370 0.337860 -0.568175
O18   O     O_R   0.558920 0.095370 0.662140 -0.568175
C7    C     C_R   0.270110 0.612187 0.373003 0.620150
C8    C     C_R   0.729890 0.112189 0.626998 0.620153
V3    V     V_3+5 0.552850 0.510890 0.251270 1.352515
V4    V     V_3+5 0.447150 0.010890 0.748730 1.352510
O19   O     O_3   0.277800 0.441320 0.251250 -0.368532
O20   O     O_3   0.722200 0.941320 0.748750 -0.368534
C9    C     C_3   0.097711 0.671264 0.520045 -0.022110
C10   C     C_3   0.902289 0.171269 0.479959 -0.022115
H1    H     H_    0.107911 0.599348 0.544205 0.111316
H2    H     H_    0.892090 0.099355 0.455797 0.111308
C11   C     C_3   0.107965 0.734634 0.593877 -0.349072
C12   C     C_3   0.892042 0.234643 0.406129 -0.349061
H3    H     H_    0.143496 0.693201 0.648187 0.159911
H4    H     H_    0.856532 0.193211 0.351815 0.159888
H5    H     H_    0.970358 0.763737 0.615135 0.146885
H6    H     H_    0.029650 0.263752 0.384880 0.146893
H7    H     H_    0.155211 0.795305 0.374243 0.154289
H8    H     H_    0.844781 0.295311 0.625762 0.154286
H9    H     H_    0.137939 0.901227 0.482528 0.119553
H10   H     H_    0.862039 0.401233 0.517479 0.119552
C13   C     C_3   0.265078 0.783059 0.417484 -0.301357
C14   C     C_3   0.734915 0.283061 0.582520 -0.301364
C15   C     C_3   0.431400 0.676954 0.505419 -0.362682
C16   C     C_3   0.568599 0.176956 0.494585 -0.362674
C17   C     C_3   0.260464 0.682756 0.451005 0.032432
C18   C     C_3   0.739534 0.182759 0.548999 0.032435
H11   H     H_    0.540769 0.699411 0.467133 0.205207
H12   H     H_    0.459231 0.199417 0.532870 0.205206
H13   H     H_    0.455431 0.606127 0.528484 0.178310
H14   H     H_    0.544564 0.106128 0.471523 0.178308
C19   C     C_3   0.256298 0.807790 0.574666 0.106009
C20   C     C_3   0.743699 0.307794 0.425338 0.105999
C21   C     C_3   0.255862 0.854237 0.488310 -0.309275
C22   C     C_3   0.744121 0.354241 0.511695 -0.309289
C23   C     C_3   0.437251 0.751649 0.574541 -0.304489
C24   C     C_3   0.562752 0.251646 0.425460 -0.304477
H15   H     H_    0.455746 0.718662 0.634662 0.188052
H16   H     H_    0.544274 0.218656 0.365339 0.188071
H17   H     H_    0.558564 0.798482 0.564412 0.151337
H18   H     H_    0.441428 0.298475 0.435583 0.151335
H19   H     H_    0.395244 0.794352 0.379241 0.146461
H20   H     H_    0.604749 0.294351 0.620765 0.146461
H21   H     H_    0.379626 0.900077 0.480557 0.145526
H22   H     H_    0.620350 0.400074 0.519447 0.145535
C25   C     C_R   0.142178 0.933571 0.033017 -0.159831
C26   C     C_R   0.857782 0.433579 0.966978 -0.159832
C27   C     C_R   0.107688 0.962909 0.113490 -0.092492
C28   C     C_R   0.892238 0.462919 0.886504 -0.092481
C29   C     C_R   0.125715 0.901847 0.178005 -0.086474
C30   C     C_R   0.874209 0.401856 0.821990 -0.086471
C31   C     C_R   0.178709 0.810817 0.162739 -0.153415
C32   C     C_R   0.821248 0.310821 0.837258 -0.153418
C33   C     C_R   0.214582 0.778617 0.081913 0.068194
C34   C     C_R   0.785403 0.278620 0.918084 0.068198
C35   C     C_R   0.195496 0.841618 0.015145 0.063610
C36   C     C_R   0.804488 0.341623 0.984852 0.063607
C37   C     C_R   0.269875 0.685682 0.067459 -0.167919
C38   C     C_R   0.730126 0.185683 0.932540 -0.167918
C39   C     C_R   0.303889 0.656442 0.985234 0.064530
C40   C     C_R   0.696108 0.156445 0.014766 0.064526
C41   C     C_R   0.283562 0.718963 0.918176 0.031527
C42   C     C_R   0.716429 0.218969 0.081823 0.031528
C43   C     C_R   0.230240 0.812595 0.932597 -0.161771
C44   C     C_R   0.769759 0.312599 0.067400 -0.161770
C45   C     C_R   0.356003 0.564233 0.968296 -0.209392
C46   C     C_R   0.643978 0.064239 0.031705 -0.209396
C47   C     C_R   0.385285 0.533236 0.888378 -0.130086
C48   C     C_R   0.614658 0.033249 0.111624 -0.130094
C49   C     C_R   0.363681 0.592809 0.823190 0.300384
C50   C     C_R   0.636256 0.092824 0.176811 0.300382
C51   C     C_R   0.314597 0.685046 0.837484 -0.179894
C52   C     C_R   0.685370 0.185057 0.162516 -0.179889
H23   H     H_    0.126050 0.983788 0.985074 0.118066
H24   H     H_    0.873907 0.483798 0.014920 0.118059
H25   H     H_    0.066725 0.033561 0.125847 0.139198
H26   H     H_    0.933168 0.533575 0.874144 0.139195
H27   H     H_    0.098875 0.925189 0.240346 0.143284
H28   H     H_    0.901018 0.425200 0.759648 0.143289
H29   H     H_    0.192146 0.766116 0.214996 0.098248
H30   H     H_    0.807807 0.266120 0.785002 0.098243
H31   H     H_    0.373799 0.514667 0.016609 0.131489
H32   H     H_    0.626189 0.014670 0.983394 0.131490
H33   H     H_    0.423761 0.462012 0.877144 0.159891
H34   H     H_    0.576153 0.962029 0.122859 0.159896
H35   H     H_    0.298656 0.729226 0.785105 0.109997
H36   H     H_    0.701304 0.229239 0.214895 0.110004
C53   C     C_R   0.916508 0.690302 0.489713 0.148949
C54   C     C_R   0.835946 0.613679 0.463787 -0.286244
C55   C     C_R   0.762333 0.619651 0.391491 0.041090
C56   C     C_R   0.746541 0.704379 0.347391 -0.043487
C57   C     C_R   0.786988 0.785810 0.386719 -0.274690
C58   C     C_R   0.860972 0.778543 0.462728 -0.137226
H37   H     H_    0.856050 0.547229 0.491541 0.095640
H38   H     H_    0.709505 0.554665 0.378551 0.182008
H39   H     H_    0.682012 0.708788 0.289435 0.144703
H40   H     H_    0.756642 0.852180 0.360442 0.180943
H41   H     H_    0.881684 0.839952 0.497605 0.120034
C59   C     C_R   0.083489 0.190307 0.510294 0.148950
C60   C     C_R   0.164053 0.113683 0.536216 -0.286235
C61   C     C_R   0.237668 0.119652 0.608511 0.041089
C62   C     C_R   0.253454 0.204377 0.652616 -0.043475
C63   C     C_R   0.213002 0.285810 0.613293 -0.274685
C64   C     C_R   0.139021 0.278548 0.537284 -0.137237
H42   H     H_    0.143951 0.047234 0.508459 0.095645
H43   H     H_    0.290494 0.054665 0.621448 0.182007
H44   H     H_    0.317971 0.208784 0.710574 0.144706
H45   H     H_    0.243335 0.352179 0.639578 0.180968
H46   H     H_    0.118297 0.339960 0.502414 0.120039
Br1   Br    Br    0.398934 0.545422 0.714641 -0.717616
Br2   Br    Br    0.600953 0.045443 0.285361 -0.717593

loop_
_geom_bond_atom_site_label_1
_geom_bond_atom_site_label_2
_ccdc_geom_bond_type
C30   H28   S    
V4    O20   S    
C20   C24   S    
C61   C62   A    
C3    C44   S    
O13   V3    S    
O4    C2    A    
V1    O19   S    
C63   C64   A    
C54   C55   A    
C39   C45   A    
C50   Br2   S    
O9    V1    S    
C16   H12   S    
C28   C30   A    
C38   C40   A    
C12   H6    S    
O3    C1    A    
C26   H24   S    
C51   H35   S    
C32   C34   A    
C19   C21   S    
C20   C22   S    
C55   C56   A    
C56   C57   A    
O7    V1    S    
C13   H19   S    
C23   H15   S    
O7    C3    A    
C62   H44   S    
C24   H16   S    
O13   V1    S    
C12   C20   S    
C60   H42   S    
C46   H32   S    
O6    C8    A    
O8    V2    S    
C15   C17   S    
C50   C52   A    
C16   C18   S    
O11   V3    S    
O14   V4    S    
H7    C13   S    
C1    C20   S    
O14   V2    S    
C54   H37   S    
C34   C38   A    
C28   H26   S    
C35   C43   A    
C27   H25   S    
C2    O12   A    
O5    C7    A    
C29   H27   S    
C27   C29   A    
O1    V3    S    
O18   C8    A    
C7    C17   S    
C14   C22   S    
C39   C41   A    
O17   V3    S    
C11   C19   S    
C15   C23   S    
C56   H39   S    
C24   H18   S    
C45   H31   S    
C52   H36   S    
C34   C36   A    
O8    C4    A    
C33   C35   A    
C13   C17   S    
C1    O11   A    
C15   H13   S    
C25   H23   S    
C48   H34   S    
C16   H14   S    
C9    C17   S    
C53   C58   A    
O4    V2    S    
C48   C50   A    
C57   H40   S    
C4    C43   S    
C2    C19   S    
C45   C47   A    
C22   H22   S    
O10   V2    S    
C49   Br1   S    
C31   C33   A    
C14   H20   S    
O3    V1    S    
C29   C31   A    
C5    C37   S    
C21   H21   S    
C26   C28   A    
C37   C39   A    
C42   C44   A    
O18   V4    S    
O15   C5    A    
C60   C61   A    
C16   C24   S    
O16   C6    A    
O1    C3    A    
C62   C63   A    
C25   C27   A    
C53   C54   A    
V2    O20   S    
H9    C21   S    
C10   C59   S    
O16   V4    S    
H10   C22   S    
C10   C12   S    
C9    C53   S    
C30   C32   A    
C49   C51   A    
C19   C23   S    
O5    V1    S    
O17   C7    A    
O6    V2    S    
O10   C6    A    
C10   C18   S    
C36   C44   A    
O2    V4    S    
C32   H30   S    
C31   H29   S    
C6    C38   S    
C42   C52   A    
C11   H3    S    
C40   C46   A    
C57   C58   A    
C12   H4    S    
C8    C18   S    
C46   C48   A    
C47   C49   A    
O15   V3    S    
C61   H43   S    
C15   H11   S    
O9    C5    A    
C9    H1    S    
C10   H2    S    
C59   C64   A    
C40   C42   A    
C58   H41   S    
C11   H5    S    
O2    C4    A    
C9    C11   S    
C13   C21   S    
C64   H46   S    
C33   C37   A    
C23   H17   S    
C14   C18   S    
V3    O19   S    
C55   H38   S    
C41   C43   A    
C25   C35   A    
C63   H45   S    
O12   V4    S    
C26   C36   A    
H8    C14   S    
C47   H33   S    
C59   C60   A    
C41   C51   A    
