data_mof_unit_8720.cif
_audit_creation_date              2012-12-10T17:48:49-0500
_audit_creation_method            fapswitch 2.2
_symmetry_space_group_name_H-M    P1
_symmetry_Int_Tables_number       1
_space_group_crystal_system       triclinic
_cell_length_a                    10.721739
_cell_length_b                    14.703421
_cell_length_c                    14.743539
_cell_angle_alpha                 65.061459
_cell_angle_beta                  103.513616
_cell_angle_gamma                 103.049322
_cell_volume                      2027.74193691

loop_
_atom_site_label
_atom_site_type_symbol
_atom_type_description
_atom_site_fract_x
_atom_site_fract_y
_atom_site_fract_z
_atom_type_partial_charge
C1    C     C_R   0.479379 0.119698 0.312327 0.825959
C2    C     C_3   0.878273 0.000426 0.499885 0.069876
C3    C     C_3   0.922652 0.899343 0.579612 -0.396132
C4    C     C_3   0.964648 0.089159 0.526113 -0.350174
C5    C     C_R   0.477342 0.187287 0.205194 -0.041969
C6    C     C_R   0.541892 0.812720 0.795196 -0.060292
C7    C     C_R   0.474350 0.216334 0.030646 -0.187143
C8    C     C_R   0.466067 0.149559 0.130450 -0.185274
C9    C     C_R   0.495299 0.291928 0.178996 -0.232223
C10   C     C_R   0.510359 0.360848 0.080081 0.087886
C11   C     C_R   0.496531 0.321429 0.004942 0.161746
C12   C     C_R   0.260040 0.000368 0.499996 0.815532
C13   C     C_R   0.536790 0.467518 0.053723 0.066793
C14   C     C_R   0.535068 0.533589 0.950064 0.066287
C15   C     C_R   0.523534 0.491190 0.877684 -0.219605
C16   C     C_R   0.505586 0.387105 0.905072 -0.220395
C17   C     C_R   0.567737 0.510253 0.127660 -0.217537
C18   C     C_R   0.588255 0.614349 0.100435 -0.224785
C19   C     C_R   0.575984 0.679668 0.998889 0.162203
C20   C     C_R   0.547291 0.640027 0.922575 0.091125
C21   C     C_R   0.591311 0.784572 0.972803 -0.202643
C22   C     C_R   0.575285 0.850829 0.871485 -0.167827
C23   C     C_R   0.523047 0.880286 0.687683 0.800879
C24   C     C_R   0.527473 0.708215 0.821151 -0.261091
C25   C     C_R   0.717496 0.286340 0.666975 -0.386001
C26   C     C_R   0.683875 0.204371 0.637877 0.791363
C27   C     C_R   0.517738 0.284701 0.509633 -0.121301
C28   C     C_R   0.547783 0.371176 0.535240 -0.015499
C29   C     C_R   0.649728 0.369607 0.616429 0.074987
C30   C     C_R   0.480725 0.458012 0.484364 0.100253
C31   C     C_R   0.517150 0.541334 0.516478 0.074638
C32   C     C_R   0.618423 0.534606 0.598804 -0.240235
C33   C     C_R   0.683216 0.450667 0.647259 -0.168429
C34   C     C_R   0.740107 0.999939 0.499980 0.786869
C35   C     C_R   0.378755 0.464474 0.402533 -0.237799
C36   C     C_R   0.313750 0.548400 0.354253 -0.195678
C37   C     C_R   0.348067 0.629871 0.384520 0.161487
C38   C     C_R   0.450598 0.628381 0.465325 -0.025029
C39   C     C_R   0.280664 0.713472 0.333895 -0.315646
C40   C     C_R   0.315473 0.795718 0.362641 0.070873
C41   C     C_R   0.481851 0.715205 0.490310 0.005217
C42   C     C_3   0.042059 0.013586 0.393824 0.468630
C43   C     C_3   0.898038 0.013811 0.393887 -0.413838
C44   C     C_3   0.066802 0.899835 0.579806 -0.494365
C45   C     C_3   0.107507 0.089417 0.526307 -0.358048
C46   C     C_3   0.122224 0.001102 0.499802 0.060498
Cu1   Cu    Cu3+1 0.465900 0.918260 0.475680 0.936982
Cu2   Cu    Cu3+1 0.534100 0.081740 0.524320 0.987263
H1    H     H_    0.952506 0.081739 0.602031 0.212759
H2    H     H_    0.122758 0.889439 0.656454 0.184520
H3    H     H_    0.908745 0.888450 0.656227 0.180273
H4    H     H_    0.497678 0.357863 0.847299 0.152111
H5    H     H_    0.587409 0.931521 0.852987 0.178123
H6    H     H_    0.611906 0.643847 0.159485 0.147814
H7    H     H_    0.464849 0.185824 0.973656 0.136322
H8    H     H_    0.452249 0.068743 0.149211 0.154396
H9    H     H_    0.495538 0.317798 0.237282 0.148475
H10   H     H_    0.580903 0.465468 0.207898 0.146084
H11   H     H_    0.760521 0.449145 0.710001 0.146112
H12   H     H_    0.559838 0.721728 0.549171 0.120453
H13   H     H_    0.235764 0.549658 0.292012 0.148648
H14   H     H_    0.795847 0.284492 0.729092 0.168870
H15   H     H_    0.866179 0.086097 0.335804 0.193685
H16   H     H_    0.650191 0.593122 0.628280 0.124472
H17   H     H_    0.346359 0.405591 0.373575 0.141684
H18   H     H_    0.201824 0.715404 0.272094 0.141136
H19   H     H_    0.837440 0.951253 0.372961 0.137312
H20   H     H_    0.076039 0.834684 0.563214 0.180793
H21   H     H_    0.863087 0.834282 0.562472 0.175203
H22   H     H_    0.163431 0.081559 0.602446 0.169320
H23   H     H_    0.146794 0.163558 0.470564 0.209467
H24   H     H_    0.935295 0.163042 0.469774 0.182507
N1    N     N_R   0.585360 0.204570 0.560800 -0.225592
N2    N     N_R   0.414550 0.795430 0.439160 -0.179219
O1    O     O_R   0.455060 0.022100 0.338110 -0.587341
O2    O     O_R   0.512640 0.160150 0.379180 -0.593112
O3    O     O_R   0.288900 0.930980 0.479450 -0.599095
O4    O     O_R   0.346480 0.069030 0.520520 -0.589443
O5    O     O_R   0.487360 0.839850 0.620820 -0.599233
O6    O     O_R   0.544940 0.977900 0.661890 -0.536593
O7    O     O_R   0.653520 0.930970 0.479480 -0.597329
O8    O     O_R   0.711100 0.069020 0.520550 -0.543567
H25   H     H_    0.049474 0.949635 0.374627 0.079375
H26   H     H_    0.496841 0.681437 0.760732 0.153024
F1    F     F_    0.090111 0.102855 0.320015 -0.681981
H27   H     H_    0.532132 0.536451 0.799292 0.142218
H28   H     H_    0.614788 0.815291 0.030888 0.137426
H29   H     H_    0.264024 0.860520 0.323267 0.132328
F2    F     F_    0.749383 0.123830 0.687613 -0.677114
H30   H     H_    0.440381 0.278429 0.450282 0.156323

loop_
_geom_bond_atom_site_label_1
_geom_bond_atom_site_label_2
_ccdc_geom_bond_type
C21   H28   S    
C45   H23   S    
Cu2   O2    S    
C19   C20   A    
C7    H7    S    
C8    H8    S    
C43   H15   S    
C7    C8    A    
C45   C46   S    
C26   F2    S    
C7    C11   A    
C30   C35   A    
C1    C5    S    
C36   C37   A    
C3    H21   S    
C30   C31   A    
C35   H17   S    
C15   C16   A    
C6    C22   A    
C29   C33   A    
C26   N1    A    
C27   H30   S    
C18   C19   A    
C42   C46   S    
Cu2   O4    S    
C20   C24   A    
C13   C14   A    
C41   N2    A    
C31   C32   A    
Cu2   O8    S    
C12   O4    A    
C34   O7    A    
Cu1   O5    S    
C23   O6    A    
C9    C10   A    
C17   H10   S    
C2    C34   S    
C33   H11   S    
C21   C22   A    
C44   C46   S    
C22   H5    S    
C4    C45   S    
C25   C29   A    
C3    C44   S    
C1    O1    A    
C14   C20   A    
C32   H16   S    
C38   C41   A    
C12   C46   S    
C39   C40   A    
C3    H3    S    
C25   C26   A    
C35   C36   A    
C2    C4    S    
C5    C9    A    
C37   C38   A    
C11   C16   A    
Cu1   Cu2   S    
C2    C43   S    
C6    C24   A    
C12   O3    A    
Cu1   N2    S    
C17   C18   A    
C42   F1    S    
C15   H27   S    
C39   H18   S    
C44   H20   S    
C42   C43   S    
Cu1   O3    S    
C36   H13   S    
C4    H24   S    
C44   H2    S    
C28   C29   A    
C19   C21   A    
C45   H22   S    
C1    O2    A    
Cu2   N1    S    
C42   H25   S    
C16   H4    S    
C41   H12   S    
C10   C13   A    
C5    C8    A    
C31   C38   A    
C13   C17   A    
C4    H1    S    
C32   C33   A    
C40   H29   S    
C28   C30   A    
C2    C3    S    
C24   H26   S    
Cu1   O1    S    
C37   C39   A    
Cu2   O6    S    
C6    C23   S    
C40   N2    A    
C9    H9    S    
C25   H14   S    
Cu1   O7    S    
C10   C11   A    
C18   H6    S    
C43   H19   S    
C27   C28   A    
C14   C15   A    
C34   O8    A    
C23   O5    A    
C27   N1    A    
