data_mof_unit_22499.cif
_audit_creation_date              2012-12-10T18:33:29-0500
_audit_creation_method            fapswitch 2.2
_symmetry_space_group_name_H-M    P1
_symmetry_Int_Tables_number       1
_space_group_crystal_system       triclinic
_cell_length_a                    8.701922
_cell_length_b                    15.100764
_cell_length_c                    13.900749
_cell_angle_alpha                 90.500227
_cell_angle_beta                  98.118224
_cell_angle_gamma                 91.244792
_cell_volume                      1807.77691846

loop_
_atom_site_label
_atom_site_type_symbol
_atom_type_description
_atom_site_fract_x
_atom_site_fract_y
_atom_site_fract_z
_atom_type_partial_charge
C1    C     C_R   0.503534 0.329740 0.500109 0.818217
C2    C     C_R   0.575896 0.565979 0.899793 -0.398229
C3    C     C_R   0.506583 0.498581 0.054894 0.063273
C4    C     C_R   0.504260 0.496829 0.945344 0.086369
C5    C     C_R   0.203701 0.499886 0.475033 0.898612
C6    C     C_R   0.796289 0.499856 0.524946 0.864347
C7    C     C_2   0.037650 0.499943 0.461307 -0.340093
C8    C     C_2   0.962338 0.499452 0.538602 -0.393359
C9    C     C_R   0.544788 0.094209 0.587039 -0.246544
C10   C     C_R   0.379439 0.902950 0.451103 -0.270152
C11   C     C_R   0.550870 0.186468 0.588276 0.411961
C12   C     C_R   0.499553 0.669602 0.500286 0.880939
C13   C     C_R   0.376755 0.810440 0.448537 0.398896
C14   C     C_R   0.511219 0.232747 0.500630 -0.198810
C15   C     C_R   0.500277 0.765392 0.500648 -0.155698
C16   C     C_R   0.479578 0.185364 0.412589 -0.363007
C17   C     C_R   0.628337 0.811697 0.550251 -0.347704
C18   C     C_R   0.481703 0.093128 0.411032 0.448706
C19   C     C_R   0.636234 0.904065 0.547474 0.449467
C20   C     C_R   0.510725 0.047161 0.499092 -0.016570
C21   C     C_R   0.508794 0.949973 0.499706 -0.003253
C22   C     C_3   0.755201 0.244852 0.690001 0.100156
C23   C     C_R   0.638027 0.527447 0.121343 0.167024
C24   C     C_3   0.802408 0.301879 0.780612 -0.788315
C25   C     C_3   0.241650 0.769899 0.301685 0.087831
C26   C     C_3   0.120949 0.703525 0.252428 -0.796193
C27   C     C_3   0.584637 0.040923 0.281211 0.067719
C28   C     C_3   0.552126 0.982052 0.191017 -0.797840
C29   C     C_3   0.893103 0.937590 0.546135 0.067982
C30   C     C_3   0.021696 0.003548 0.585631 -0.779203
C31   C     C_3   0.867621 0.484005 0.051314 -0.691870
C32   C     C_3   0.465162 0.287991 0.966087 -0.677016
C33   C     C_3   0.245901 0.340352 0.228232 0.108781
C34   C     C_R   0.428895 0.428093 0.884285 0.159056
C35   C     C_3   0.105760 0.304069 0.160233 -0.880241
C36   C     C_3   0.827009 0.619096 0.792621 0.055353
C37   C     C_3   0.922962 0.678233 0.734694 -0.776127
C38   C     C_R   0.628707 0.530434 0.222155 -0.101970
C39   C     C_R   0.423865 0.433575 0.782376 -0.082675
C40   C     C_R   0.374707 0.468181 0.195827 0.620106
C41   C     C_R   0.582511 0.563502 0.798910 0.616232
C42   C     C_R   0.373693 0.472040 0.094694 -0.365946
Cu1   Cu    Cu3+1 0.500000 0.499990 0.596430 0.982329
Cu2   Cu    Cu3+1 0.500000 0.500010 0.403570 0.956080
H1    H     H_    0.977319 0.500458 0.387280 0.177982
H2    H     H_    0.628058 0.622086 0.942109 0.187489
H3    H     H_    0.794332 0.280264 0.627342 0.124659
H4    H     H_    0.815780 0.180638 0.699994 0.148686
H5    H     H_    0.929901 0.314579 0.791001 0.184177
H6    H     H_    0.743164 0.366332 0.772965 0.257442
H7    H     H_    0.770935 0.267433 0.845519 0.237671
H8    H     H_    0.355519 0.754322 0.278066 0.146720
H9    H     H_    0.207327 0.837506 0.277140 0.149759
H10   H     H_    0.005290 0.717291 0.273552 0.235983
H11   H     H_    0.113781 0.708486 0.172267 0.196271
H12   H     H_    0.022744 0.498889 0.612620 0.175613
H13   H     H_    0.153753 0.635145 0.274220 0.273917
H14   H     H_    0.678712 0.010344 0.332110 0.131738
H15   H     H_    0.624907 0.107322 0.259340 0.143183
H16   H     H_    0.460400 0.011241 0.137754 0.249707
H17   H     H_    0.659443 0.975879 0.156940 0.202173
H18   H     H_    0.512816 0.915067 0.211066 0.237345
H19   H     H_    0.863278 0.948953 0.466593 0.126165
H20   H     H_    0.937955 0.869533 0.558079 0.159939
H21   H     H_    0.056748 0.993114 0.664603 0.251741
H22   H     H_    0.124181 0.994522 0.547507 0.206365
H23   H     H_    0.567990 0.059330 0.655157 0.195618
H24   H     H_    0.980467 0.072276 0.574110 0.233350
H25   H     H_    0.847843 0.598957 0.132916 0.248324
H26   H     H_    0.978487 0.475724 0.100287 0.253443
H27   H     H_    0.895041 0.502613 0.978535 0.216825
H28   H     H_    0.802639 0.419499 0.044571 0.230121
H29   H     H_    0.266146 0.325241 0.877617 0.243292
H30   H     H_    0.400722 0.236331 0.001622 0.224522
H31   H     H_    0.554649 0.318568 0.022090 0.228070
H32   H     H_    0.522413 0.256067 0.908685 0.242152
H33   H     H_    0.235791 0.316576 0.302465 0.171915
H34   H     H_    0.280159 0.938070 0.415777 0.177774
H35   H     H_    0.353261 0.311331 0.206536 0.118513
H36   H     H_    0.111844 0.325267 0.084596 0.250150
H37   H     H_    0.103961 0.230553 0.162000 0.222070
H38   H     H_    0.997019 0.328085 0.183703 0.253617
H39   H     H_    0.865071 0.549557 0.785452 0.135797
H40   H     H_    0.852240 0.640621 0.870068 0.141339
H41   H     H_    0.048445 0.670328 0.760900 0.204643
H42   H     H_    0.900180 0.659805 0.656445 0.241202
H43   H     H_    0.893285 0.748656 0.744008 0.249359
H44   H     H_    0.453153 0.219462 0.344443 0.168309
H45   H     H_    0.723398 0.775978 0.589329 0.173553
H46   H     H_    0.727644 0.555358 0.271438 0.154423
H47   H     H_    0.362844 0.382469 0.735987 0.169418
H48   H     H_    0.267894 0.453365 0.047748 0.187954
N1    N     N_R   0.500000 0.500020 0.258690 -0.224433
N2    N     N_R   0.500000 0.499980 0.741310 -0.225282
N3    N     N_2   0.779947 0.553778 0.088742 -0.444526
N4    N     N_2   0.357897 0.353461 0.923654 -0.443652
O1    O     O_R   0.500010 0.371450 0.581430 -0.547716
O2    O     O_3   0.247714 0.763469 0.403434 -0.588960
O3    O     O_3   0.447213 0.047943 0.323504 -0.591690
O4    O     O_3   0.764052 0.950176 0.595600 -0.590521
O5    O     O_3   0.245048 0.434180 0.230531 -0.584990
O6    O     O_3   0.667434 0.627321 0.756992 -0.549722
O7    O     O_R   0.499990 0.628550 0.418570 -0.587808
O8    O     O_R   0.500010 0.371460 0.418560 -0.600909
O9    O     O_R   0.499990 0.628540 0.581440 -0.528184
O10   O     O_R   0.274840 0.499990 0.562640 -0.593067
O11   O     O_R   0.725160 0.500010 0.437360 -0.593043
O12   O     O_R   0.274840 0.500000 0.399770 -0.540441
O13   O     O_R   0.725160 0.500000 0.600230 -0.574537
O14   O     O_3   0.592450 0.230574 0.676031 -0.569618

loop_
_geom_bond_atom_site_label_1
_geom_bond_atom_site_label_2
_ccdc_geom_bond_type
C22   H4    S    
C29   H19   S    
C3    C42   A    
C3    C23   A    
C40   N1    A    
C26   H11   S    
C8    H12   S    
C32   H31   S    
Cu2   O8    S    
C7    C8    D    
C2    H2    S    
C27   O3    S    
C33   O5    S    
C7    H1    S    
C22   C24   S    
C37   H41   S    
C36   C37   S    
C19   C21   A    
C34   N4    S    
C32   H30   S    
C12   O9    A    
C11   C14   A    
C36   H39   S    
C35   H36   S    
Cu1   N2    S    
C41   O6    S    
C36   O6    S    
Cu1   O9    S    
C13   O2    S    
Cu2   N1    S    
C17   C19   A    
C40   O5    S    
C35   H38   S    
C31   H26   S    
C22   O14   S    
C6    O11   A    
Cu2   O12   S    
C42   H48   S    
C28   H17   S    
C24   H7    S    
C31   H27   S    
C22   H3    S    
C29   H20   S    
C11   O14   S    
C10   H34   S    
C26   H10   S    
C39   H47   S    
Cu2   O7    S    
C5    O10   A    
C28   H16   S    
C10   C21   A    
C24   H6    S    
C4    C34   A    
C34   C39   A    
C37   H42   S    
C17   H45   S    
C12   O7    A    
C1    O1    A    
C5    C7    S    
C33   H35   S    
C6    C8    S    
C25   C26   S    
C10   C13   A    
Cu1   O10   S    
C2    C4    A    
Cu1   Cu2   S    
C9    H23   S    
C39   N2    A    
C29   C30   S    
C9    C20   A    
C41   N2    A    
C12   C15   S    
C9    C11   A    
C1    O8    A    
C30   H22   S    
C31   H28   S    
C32   N4    S    
C13   C15   A    
C6    O13   A    
C14   C16   A    
C18   O3    S    
C3    C4    S    
Cu2   O11   S    
C24   H5    S    
C15   C17   A    
C29   O4    S    
C37   H43   S    
Cu1   O1    S    
C25   H9    S    
H25   N3    S    
C27   H14   S    
C32   H32   S    
C19   O4    S    
C23   C38   A    
Cu1   O13   S    
C38   H46   S    
C35   H37   S    
C25   H8    S    
C27   H15   S    
C33   H33   S    
C36   H40   S    
C31   N3    S    
C38   N1    A    
C40   C42   A    
C33   C35   S    
C23   N3    S    
C18   C20   A    
C26   H13   S    
C30   H21   S    
C25   O2    S    
C20   C21   S    
C16   C18   A    
C27   C28   S    
C16   H44   S    
C1    C14   S    
C2    C41   A    
H29   N4    S    
C30   H24   S    
C5    O12   A    
C28   H18   S    
