data_mof_unit_37872.cif
_audit_creation_date              2012-12-10T18:04:50-0500
_audit_creation_method            fapswitch 2.2
_symmetry_space_group_name_H-M    P1
_symmetry_Int_Tables_number       1
_space_group_crystal_system       triclinic
_cell_length_a                    10.816833
_cell_length_b                    9.517747
_cell_length_c                    17.659868
_cell_angle_alpha                 90.002896
_cell_angle_beta                  90.17133
_cell_angle_gamma                 89.992367
_cell_volume                      1818.10846127

loop_
_atom_site_label
_atom_site_type_symbol
_atom_type_description
_atom_site_fract_x
_atom_site_fract_y
_atom_site_fract_z
_atom_type_partial_charge
C1    C     C_R   0.262066 0.500007 0.499940 0.765139
C2    C     C_R   0.737924 0.499992 0.500084 0.797489
C3    C     C_1   0.488802 0.499437 0.966006 -0.043749
C4    C     C_1   0.488750 0.500234 0.033930 -0.043815
C5    C     C_R   0.063868 0.373258 0.491579 -0.187206
C6    C     C_R   0.936099 0.626749 0.508441 -0.194706
C7    C     C_R   0.936046 0.373221 0.491767 -0.196796
C8    C     C_R   0.063924 0.626752 0.508423 -0.190386
C9    C     C_R   0.500345 0.499988 0.355849 0.794543
C10   C     C_R   0.500381 0.500018 0.644147 0.795813
C11   C     C_R   0.871742 0.499981 0.500124 -0.016368
C12   C     C_R   0.128234 0.500013 0.499959 -0.018686
C13   C     C_R   0.386200 0.539832 0.844389 -0.145799
C14   C     C_R   0.386098 0.460038 0.155196 -0.146339
C15   C     C_R   0.598028 0.542175 0.152668 -0.184256
C16   C     C_R   0.598170 0.457727 0.847645 -0.185110
C17   C     C_R   0.387200 0.541097 0.764724 0.097839
C18   C     C_R   0.387106 0.458923 0.234870 0.098062
C19   C     C_R   0.602933 0.541999 0.231783 0.127964
C20   C     C_R   0.603067 0.458060 0.768543 0.127550
C21   C     C_R   0.497156 0.500202 0.726944 -0.103251
C22   C     C_R   0.497071 0.499831 0.273031 -0.104188
C23   C     C_R   0.420691 0.074426 0.454438 -0.020094
C24   C     C_R   0.579294 0.925561 0.545581 -0.024219
C25   C     C_R   0.579302 0.074411 0.545574 -0.021351
C26   C     C_R   0.420704 0.925589 0.454431 -0.024543
C27   C     C_R   0.490832 0.498610 0.885051 0.054440
C28   C     C_R   0.490725 0.501177 0.114892 0.054072
Cu1   Cu    Cu3+1 0.500000 0.640660 0.500000 0.926486
Cu2   Cu    Cu3+1 0.500000 0.359340 0.500000 0.929695
H1    H     H_    0.304882 0.570613 0.875772 0.149914
H2    H     H_    0.304786 0.429197 0.123533 0.150093
H3    H     H_    0.678581 0.572944 0.120223 0.136255
H4    H     H_    0.678737 0.426925 0.880367 0.136170
H5    H     H_    0.357143 0.130514 0.417953 0.110339
H6    H     H_    0.642784 0.869429 0.582107 0.115944
H7    H     H_    0.642805 0.130508 0.582091 0.111842
H8    H     H_    0.357200 0.869489 0.417915 0.119997
H9    H     H_    0.112012 0.274305 0.484614 0.147809
H10   H     H_    0.887942 0.725707 0.515333 0.147701
H11   H     H_    0.887846 0.274245 0.484960 0.150397
H12   H     H_    0.112115 0.725720 0.515300 0.150119
N1    N     N_R   0.500000 0.852070 0.500000 -0.157318
N2    N     N_R   0.500000 0.147930 0.500000 -0.155128
O1    O     O_R   0.319640 0.618740 0.499990 -0.590351
O2    O     O_R   0.680360 0.381260 0.500010 -0.590358
O3    O     O_R   0.680360 0.618740 0.500010 -0.590197
O4    O     O_R   0.319640 0.381260 0.499990 -0.588338
O5    O     O_R   0.500000 0.618830 0.391250 -0.581000
O6    O     O_R   0.500000 0.381170 0.608750 -0.578532
O7    O     O_R   0.500000 0.618830 0.608750 -0.583240
O8    O     O_R   0.500000 0.381170 0.391250 -0.581437
C29   C     C_3   0.273482 0.583137 0.718464 -0.372992
C30   C     C_3   0.156583 0.616560 0.763519 -0.871524
H13   H     H_    0.127544 0.523975 0.797372 0.254183
H14   H     H_    0.172095 0.708509 0.801083 0.251061
H15   H     H_    0.080560 0.643231 0.723637 0.248648
H16   H     H_    0.296468 0.677260 0.684068 0.218794
H17   H     H_    0.250574 0.496122 0.678828 0.195427
C31   C     C_3   0.273397 0.417016 0.280742 -0.378311
C32   C     C_3   0.156430 0.383801 0.235293 -0.872696
H18   H     H_    0.127516 0.476411 0.201307 0.254381
H19   H     H_    0.171792 0.291774 0.197816 0.250420
H20   H     H_    0.080388 0.357344 0.274919 0.248183
H21   H     H_    0.296330 0.322838 0.315171 0.207602
H22   H     H_    0.250605 0.504018 0.320333 0.192489
C33   C     C_3   0.722730 0.584329 0.270343 -0.415816
C34   C     C_3   0.796404 0.455762 0.295657 -0.832764
H23   H     H_    0.742824 0.391848 0.336568 0.257713
H24   H     H_    0.820256 0.389679 0.245950 0.252689
H25   H     H_    0.883370 0.490310 0.323556 0.246800
H26   H     H_    0.781333 0.646471 0.231022 0.198309
H27   H     H_    0.704354 0.653591 0.319599 0.217770
C35   C     C_3   0.722845 0.415822 0.730347 -0.416341
C36   C     C_3   0.796056 0.544402 0.704824 -0.839462
H28   H     H_    0.742125 0.607892 0.663692 0.250789
H29   H     H_    0.820070 0.610933 0.754411 0.252808
H30   H     H_    0.882915 0.509852 0.677112 0.247790
H31   H     H_    0.781812 0.354249 0.769945 0.198187
H32   H     H_    0.704429 0.346050 0.681242 0.206949

loop_
_geom_bond_atom_site_label_1
_geom_bond_atom_site_label_2
_ccdc_geom_bond_type
C14   C18   A    
C29   H17   S    
Cu1   O5    S    
C29   C30   S    
C2    O2    A    
C15   C19   A    
C1    C12   S    
C24   H6    S    
Cu1   O3    S    
Cu2   O4    S    
C8    H12   S    
C9    C22   S    
C10   O7    A    
C33   H26   S    
C23   C26   A    
C32   H19   S    
C16   H4    S    
C34   H23   S    
C19   C33   S    
C33   H27   S    
C8    C12   A    
C25   H7    S    
C16   C27   A    
Cu2   O6    S    
C31   H22   S    
C35   H32   S    
Cu1   N1    S    
Cu2   N2    S    
C9    O8    A    
C2    C11   S    
C25   N2    A    
C4    C28   S    
C13   H1    S    
C26   N1    A    
C10   C21   S    
C30   H14   S    
C35   C36   S    
C33   C34   S    
C19   C22   A    
C9    O5    A    
C24   C25   A    
C5    C12   A    
C6    C11   A    
C5    C7    A    
C26   H8    S    
C6    C8    A    
C17   C21   A    
C23   N2    A    
Cu1   O1    S    
C31   C32   S    
C32   H20   S    
C7    C11   A    
C36   H28   S    
Cu1   Cu2   S    
C16   C20   A    
C20   C35   S    
C36   H29   S    
C18   C31   S    
C31   H21   S    
C23   H5    S    
C35   H31   S    
C5    H9    S    
C6    H10   S    
C3    C4    T    
C10   O6    A    
C17   C29   S    
Cu1   O7    S    
Cu2   O8    S    
C30   H13   S    
C18   C22   A    
Cu2   O2    S    
C14   H2    S    
C29   H16   S    
C1    O4    A    
C2    O3    A    
C13   C17   A    
C3    C27   S    
C1    O1    A    
C15   C28   A    
C34   H25   S    
C7    H11   S    
C32   H18   S    
C36   H30   S    
C20   C21   A    
C34   H24   S    
C24   N1    A    
C13   C27   A    
C14   C28   A    
C15   H3    S    
C30   H15   S    
