data_mof_unit_31737.cif
_audit_creation_date              2012-12-10T16:59:12-0500
_audit_creation_method            fapswitch 2.2
_symmetry_space_group_name_H-M    P1
_symmetry_Int_Tables_number       1
_space_group_crystal_system       triclinic
_cell_length_a                    7.888157
_cell_length_b                    8.516135
_cell_length_c                    27.322924
_cell_angle_alpha                 93.294491
_cell_angle_beta                  83.685832
_cell_angle_gamma                 93.561539
_cell_volume                      1818.43014831

loop_
_atom_site_label
_atom_site_type_symbol
_atom_type_description
_atom_site_fract_x
_atom_site_fract_y
_atom_site_fract_z
_atom_type_partial_charge
C1    C     C_R   0.543634 0.794634 0.501242 0.911410
C2    C     C_R   0.697081 0.623646 0.118431 -0.103162
C3    C     C_R   0.485109 0.474285 0.648142 -0.197071
C4    C     C_R   0.519614 0.531485 0.352604 -0.193780
C5    C     C_R   0.645313 0.615245 0.018962 0.023497
C6    C     C_R   0.426534 0.372686 0.981771 0.025903
C7    C     C_R   0.489664 0.356991 0.027725 0.026718
C8    C     C_R   0.582179 0.631051 0.973032 -0.008577
C9    C     C_R   0.586950 0.485206 0.047448 -0.014724
C10   C     C_R   0.483761 0.503423 0.953378 -0.022181
C11   C     C_R   0.773424 0.719194 0.036847 0.136014
C12   C     C_R   0.456355 0.205376 0.498745 0.906635
C13   C     C_R   0.295884 0.270618 0.964431 0.147943
C14   C     C_R   0.782845 0.737825 0.088002 0.417702
C15   C     C_R   0.283044 0.253364 0.913455 0.434025
C16   C     C_R   0.497079 0.493800 0.594299 0.989432
C17   C     C_R   0.503219 0.507094 0.405910 0.998811
C18   C     C_R   0.597492 0.775477 0.948748 0.455767
C19   C     C_R   0.469556 0.214400 0.053072 0.348017
C20   C     C_2   0.553659 0.958735 0.510956 -0.062628
C21   C     C_2   0.446255 0.041279 0.489045 -0.059387
C22   C     C_R   0.455934 0.628722 0.827092 0.622848
C23   C     C_R   0.441367 0.505575 0.904811 -0.187521
C24   C     C_R   0.602560 0.366339 0.174908 0.649797
C25   C     C_R   0.374646 0.354851 0.831565 0.714230
C26   C     C_R   0.682001 0.640029 0.169981 0.706627
C27   C     C_R   0.309895 0.416388 0.725178 0.378451
C28   C     C_R   0.712987 0.591269 0.279411 0.400130
C29   C     C_R   0.326795 0.422633 0.673395 0.242844
C30   C     C_R   0.674186 0.602322 0.330993 0.236158
C31   C     C_R   0.627613 0.511461 0.674428 0.330094
C32   C     C_R   0.389245 0.480621 0.323249 0.334867
C33   C     C_R   0.608803 0.506774 0.726278 0.050312
C34   C     C_R   0.623695 0.485890 0.096581 -0.217298
C35   C     C_R   0.420771 0.487831 0.271461 0.034083
C36   C     C_R   0.447297 0.467991 0.751499 0.095959
C37   C     C_R   0.586732 0.532620 0.249804 0.078624
C38   C     C_R   0.477160 0.641358 0.877741 -0.158995
C39   C     C_R   0.583860 0.351973 0.124238 -0.095345
C40   C     C_R   0.539622 0.781550 0.901747 0.381832
C41   C     C_R   0.523975 0.210746 0.100838 0.408882
C42   C     C_R   0.366227 0.368690 0.883009 -0.090337
H1    H     H_    0.857068 0.613009 0.670440 0.367987
H2    H     H_    0.144851 0.057238 0.918474 0.368638
H3    H     H_    0.666132 0.001534 0.951913 0.405780
H4    H     H_    0.341840 0.011714 0.054930 0.368839
H5    H     H_    0.166756 0.367152 0.322016 0.374989
H6    H     H_    0.435085 0.934963 0.867924 0.398374
H7    H     H_    0.538936 0.984085 0.100656 0.347177
H8    H     H_    0.843513 0.770894 0.343477 0.362546
H9    H     H_    0.082877 0.403155 0.667139 0.371069
H10   H     H_    0.957412 0.636542 0.281461 0.366657
H11   H     H_    0.107853 0.274483 0.730841 0.374014
H12   H     H_    0.917332 0.936187 0.083403 0.369669
I1    I     I_    0.030209 0.269258 0.441594 -0.046354
I2    I     I_    0.971477 0.734091 0.557118 -0.051185
I3    I     I_    0.824686 0.548135 0.767508 -0.181088
I4    I     I_    0.219800 0.435650 0.224998 -0.188364
I5    I     I_    0.998161 0.776114 0.988428 -0.278104
I6    I     I_    0.068580 0.224403 0.013059 -0.277562
I7    I     I_    0.652926 0.040238 0.578505 -0.206993
I8    I     I_    0.346221 0.959788 0.421613 -0.211921
N1    N     N_R   0.422725 0.483773 0.804508 -0.328377
N2    N     N_R   0.628263 0.512747 0.197277 -0.343458
N3    N     N_2   0.950320 0.457960 0.486880 0.038257
N4    N     N_2   0.049680 0.542040 0.513120 0.039565
O1    O     O_R   0.389250 0.738570 0.503220 -0.616070
O2    O     O_2   0.583028 0.238575 0.202438 -0.418818
O3    O     O_2   0.712564 0.782552 0.192467 -0.389070
O4    O     O_2   0.343127 0.212927 0.808805 -0.426296
O5    O     O_3   0.782040 0.553512 0.648456 -0.706598
O6    O     O_3   0.234919 0.424218 0.346272 -0.700984
O7    O     O_3   0.547041 0.924804 0.880350 -0.705108
O8    O     O_3   0.517035 0.072473 0.125237 -0.656043
O9    O     O_3   0.784716 0.681135 0.361164 -0.708211
O10   O     O_3   0.190670 0.378970 0.646758 -0.698516
O11   O     O_3   0.873860 0.631656 0.256868 -0.682345
O12   O     O_R   0.610750 0.261430 0.496780 -0.615778
O13   O     O_3   0.160881 0.360217 0.751122 -0.686886
O14   O     O_3   0.886075 0.855763 0.108104 -0.655655
O15   O     O_3   0.175634 0.137967 0.893845 -0.675613
O16   O     O_3   0.654172 0.911531 0.973613 -0.716548
O17   O     O_3   0.404847 0.079071 0.029831 -0.730211
O18   O     O_R   0.678390 0.711630 0.494810 -0.587576
O19   O     O_R   0.321610 0.288370 0.505190 -0.590847
O20   O     O_R   0.355440 0.513440 0.575450 -0.570340
O21   O     O_R   0.644560 0.486560 0.424550 -0.574043
O22   O     O_R   0.644590 0.486500 0.567040 -0.563937
O23   O     O_R   0.355410 0.513500 0.432960 -0.569604
O24   O     O_2   0.480550 0.756405 0.799589 -0.476651
Zn1   Zn    Zn3+2 0.306940 0.517990 0.505620 1.101723
Zn2   Zn    Zn3+2 0.693060 0.482010 0.494380 1.103266

loop_
_geom_bond_atom_site_label_1
_geom_bond_atom_site_label_2
_ccdc_geom_bond_type
N3    Zn2   S    
C27   C29   A    
H3    O16   S    
C33   C36   A    
O19   Zn1   S    
C39   C41   A    
C13   I6    S    
C1    O18   A    
C23   C42   A    
C12   O19   A    
C35   I4    S    
C35   C37   A    
C5    C11   A    
C27   O13   S    
O20   Zn1   S    
C11   C14   A    
C19   O17   S    
C22   C38   A    
C24   C39   A    
C40   O7    S    
C25   N1    A    
C20   I7    S    
C3    C29   A    
C26   N2    A    
C18   C40   A    
C1    O1    A    
C41   O8    S    
O22   Zn2   S    
C12   O12   A    
H1    O5    S    
C31   C33   A    
C14   O14   S    
O23   Zn1   S    
C36   N1    S    
C2    C34   A    
C31   O5    S    
C22   N1    A    
C24   N2    A    
O21   Zn2   S    
C16   O20   A    
C11   I5    S    
I1    N3    S    
H12   O14   S    
C34   C39   A    
C32   C35   A    
C17   O23   A    
H9    O10   S    
C15   O15   S    
H2    O15   S    
C29   O10   S    
O12   Zn2   S    
C12   C21   S    
C8    C18   A    
C5    C9    A    
O1    Zn1   S    
C22   O24   S    
C2    C26   A    
C4    C32   A    
C3    C31   A    
C28   O11   S    
C21   I8    S    
N4    Zn1   S    
C4    C17   S    
C7    C19   A    
C13   C15   A    
C9    C34   A    
C10   C23   A    
H10   O11   S    
C37   N2    S    
C7    C9    A    
C1    C20   S    
C33   I3    S    
H11   O13   S    
C17   O21   A    
H6    O7    S    
C15   C42   A    
C25   C42   A    
C6    C10   A    
C5    C8    A    
C6    C7    A    
C27   C36   A    
C23   C38   A    
C28   C30   A    
H8    O9    S    
C6    C13   A    
C38   C40   A    
C30   O9    S    
C28   C37   A    
I2    N4    S    
C18   O16   S    
C2    C14   A    
H5    O6    S    
C24   O2    S    
H4    O17   S    
C20   C21   D    
C8    C10   A    
N3    N4    D    
C16   O22   A    
C26   O3    S    
H7    O8    S    
C25   O4    S    
O18   Zn2   S    
C4    C30   A    
C3    C16   S    
C19   C41   A    
C32   O6    S    
