data_mof_unit_60772.cif
_audit_creation_date              2013-03-05T16:39:37-0500
_audit_creation_method            fapswitch 2.2
_symmetry_space_group_name_H-M    P1
_symmetry_Int_Tables_number       1
_space_group_crystal_system       triclinic
_cell_length_a                    25.977874
_cell_length_b                    36.265649
_cell_length_c                    22.319304
_cell_angle_alpha                 90.000063
_cell_angle_beta                  125.637059
_cell_angle_gamma                 89.99992
_cell_volume                      17089.2432343

loop_
_atom_site_label
_atom_site_type_symbol
_atom_site_description
_atom_site_fract_x
_atom_site_fract_y
_atom_site_fract_z
_atom_type_partial_charge
Zn1   Zn    Zn3+2 0.987140 0.280510 0.061030 0.983336
Zn2   Zn    Zn3+2 0.012860 0.719490 0.938970 0.983332
Zn3   Zn    Zn3+2 0.012860 0.280510 0.938970 0.983342
Zn4   Zn    Zn3+2 0.987140 0.719490 0.061030 0.983332
Zn5   Zn    Zn3+2 0.487140 0.780510 0.061030 0.983462
Zn6   Zn    Zn3+2 0.512860 0.219490 0.938970 0.983467
Zn7   Zn    Zn3+2 0.512860 0.780510 0.938970 0.983473
Zn8   Zn    Zn3+2 0.487140 0.219490 0.061030 0.983479
Zn9   Zn    Zn3+2 0.073920 0.219480 0.061030 0.991875
Zn10  Zn    Zn3+2 0.926080 0.780520 0.938970 0.991862
Zn11  Zn    Zn3+2 0.926080 0.219480 0.938970 0.991881
Zn12  Zn    Zn3+2 0.073920 0.780520 0.061030 0.991875
Zn13  Zn    Zn3+2 0.573920 0.719480 0.061030 0.991761
Zn14  Zn    Zn3+2 0.426080 0.280520 0.938970 0.991771
Zn15  Zn    Zn3+2 0.426080 0.719480 0.938970 0.991768
Zn16  Zn    Zn3+2 0.573920 0.280520 0.061030 0.991773
O1    O     O_3   1.000000 0.249990 0.000000 -0.488710
O2    O     O_3   1.000000 0.750010 0.000000 -0.488708
O3    O     O_3   0.500000 0.749990 0.000000 -0.488736
O4    O     O_3   0.500000 0.250010 0.000000 -0.488737
O5    O     O_R   0.094460 0.271340 0.957280 -0.643105
O6    O     O_R   0.905540 0.728660 0.042720 -0.643123
O7    O     O_R   0.905540 0.271340 0.042720 -0.643114
O8    O     O_R   0.094460 0.728660 0.957280 -0.643108
O9    O     O_R   0.594460 0.771340 0.957280 -0.643123
O10   O     O_R   0.405540 0.228660 0.042720 -0.643109
O11   O     O_R   0.405540 0.771340 0.042720 -0.643114
O12   O     O_R   0.594460 0.228660 0.957280 -0.643117
O13   O     O_R   0.111850 0.228640 0.162930 -0.630716
O14   O     O_R   0.888150 0.771360 0.837070 -0.630718
O15   O     O_R   0.888150 0.228640 0.837070 -0.630707
O16   O     O_R   0.111850 0.771360 0.162930 -0.630714
O17   O     O_R   0.611850 0.728640 0.162930 -0.630784
O18   O     O_R   0.388150 0.271360 0.837070 -0.630788
O19   O     O_R   0.388150 0.728640 0.837070 -0.630789
O20   O     O_R   0.611850 0.271360 0.162930 -0.630780
O21   O     O_R   0.051760 0.168530 0.042720 -0.627591
O22   O     O_R   0.948240 0.831470 0.957280 -0.627592
O23   O     O_R   0.948240 0.168530 0.957280 -0.627592
O24   O     O_R   0.051760 0.831470 0.042720 -0.627574
O25   O     O_R   0.551760 0.668530 0.042720 -0.627617
O26   O     O_R   0.448240 0.331470 0.957280 -0.627615
O27   O     O_R   0.448240 0.668530 0.957280 -0.627600
O28   O     O_R   0.551760 0.331470 0.042720 -0.627618
O29   O     O_R   0.009000 0.331450 0.957280 -0.632641
O30   O     O_R   0.991000 0.668550 0.042720 -0.632637
O31   O     O_R   0.991000 0.331450 0.042720 -0.632653
O32   O     O_R   0.009000 0.668550 0.957280 -0.632640
O33   O     O_R   0.509000 0.831450 0.957280 -0.632507
O34   O     O_R   0.491000 0.168550 0.042720 -0.632514
O35   O     O_R   0.491000 0.831450 0.042720 -0.632516
O36   O     O_R   0.509000 0.168550 0.957280 -0.632527
O37   O     O_R   0.051110 0.271360 0.162930 -0.633541
O38   O     O_R   0.948890 0.728640 0.837070 -0.633542
O39   O     O_R   0.948890 0.271360 0.837070 -0.633543
O40   O     O_R   0.051110 0.728640 0.162930 -0.633535
O41   O     O_R   0.551110 0.771360 0.162930 -0.633380
O42   O     O_R   0.448890 0.228640 0.837070 -0.633377
O43   O     O_R   0.448890 0.771360 0.837070 -0.633368
O44   O     O_R   0.551110 0.228640 0.162930 -0.633377
O45   O     O_R   0.137190 0.228630 0.042710 -0.626617
O46   O     O_R   0.862810 0.771370 0.957290 -0.626623
O47   O     O_R   0.862810 0.228630 0.957290 -0.626624
O48   O     O_R   0.137190 0.771370 0.042710 -0.626624
O49   O     O_R   0.637190 0.728630 0.042710 -0.626672
O50   O     O_R   0.362810 0.271370 0.957290 -0.626664
O51   O     O_R   0.362810 0.728630 0.957290 -0.626669
O52   O     O_R   0.637190 0.271370 0.042710 -0.626669
C1    C     C_R   0.139975 0.249669 0.999360 0.796627
C2    C     C_R   0.860025 0.750331 0.000640 0.796625
C3    C     C_R   0.860025 0.249668 0.000641 0.796663
C4    C     C_R   0.139976 0.750330 0.999361 0.796613
C5    C     C_R   0.639975 0.749669 0.999360 0.796530
C6    C     C_R   0.360025 0.250331 0.000639 0.796527
C7    C     C_R   0.360024 0.749670 0.000638 0.796500
C8    C     C_R   0.639975 0.250331 0.999359 0.796547
C9    C     C_R   0.099025 0.249986 0.198017 0.821795
C10   C     C_R   0.900975 0.750014 0.801983 0.821779
C11   C     C_R   0.900975 0.249986 0.801983 0.821788
C12   C     C_R   0.099025 0.750014 0.198017 0.821777
C13   C     C_R   0.599025 0.749986 0.198017 0.821790
C14   C     C_R   0.400975 0.250014 0.801983 0.821805
C15   C     C_R   0.400975 0.749986 0.801983 0.821789
C16   C     C_R   0.599025 0.250014 0.198017 0.821799
C17   C     C_R   0.000000 0.150992 1.000000 0.821343
C18   C     C_R   1.000000 0.849008 1.000000 0.821346
C19   C     C_R   0.500000 0.650992 0.000000 0.821331
C20   C     C_R   0.500000 0.349008 0.000000 0.821324
C21   C     C_R   0.000000 0.348990 0.000000 0.824121
C22   C     C_R   0.000000 0.651010 1.000000 0.824125
C23   C     C_R   0.500000 0.848990 0.000000 0.823931
C24   C     C_R   0.500000 0.151010 1.000000 0.823928
H1    H     H_    0.028649 0.466019 0.926713 0.158077
H2    H     H_    0.971352 0.533981 0.073287 0.158061
H3    H     H_    0.971352 0.466019 0.073287 0.158053
H4    H     H_    0.028649 0.533981 0.926713 0.158084
H5    H     H_    0.550242 0.966019 0.949979 0.157461
H6    H     H_    0.449757 0.033981 0.050021 0.157477
H7    H     H_    0.449757 0.966019 0.050021 0.157480
H8    H     H_    0.550242 0.033981 0.949978 0.157446
C25   C     C_R   0.016116 0.519278 0.958777 -0.163102
C26   C     C_R   0.983884 0.480722 0.041223 -0.163131
C27   C     C_R   0.983884 0.519278 0.041223 -0.163120
C28   C     C_R   0.016116 0.480722 0.958777 -0.163107
C29   C     C_R   0.528262 0.019278 0.971863 -0.162980
C30   C     C_R   0.471737 0.980722 0.028136 -0.162955
C31   C     C_R   0.471737 0.019278 0.028136 -0.162954
C32   C     C_R   0.528262 0.980722 0.971863 -0.162962
C33   C     C_R   0.000000 0.538622 0.000000 0.147025
C34   C     C_R   0.000000 0.461378 0.000000 0.147030
C35   C     C_R   0.500000 0.038622 1.000000 0.147605
C36   C     C_R   0.500000 0.961378 1.000000 0.147601
C37   C     C_1   0.000000 0.578272 1.000000 -0.059423
C38   C     C_1   0.000000 0.421728 0.000000 -0.059436
C39   C     C_1   0.500000 0.078272 1.000000 -0.059306
C40   C     C_1   0.500000 0.921728 0.000000 -0.059291
C41   C     C_1   1.000000 0.388507 0.000000 -0.123900
C42   C     C_1   0.000000 0.611493 1.000000 -0.123883
C43   C     C_1   0.500000 0.888507 0.000000 -0.123799
C44   C     C_1   0.500000 0.111493 1.000000 -0.123818
H9    H     H_    0.862221 0.084670 0.981236 0.167099
H10   H     H_    0.137650 0.915348 0.018474 0.167131
H11   H     H_    0.137714 0.084652 0.018585 0.167129
H12   H     H_    0.862270 0.915344 0.981371 0.167113
H13   H     H_    0.362371 0.584637 0.981628 0.167109
H14   H     H_    0.637765 0.415345 0.018673 0.167074
H15   H     H_    0.637725 0.584655 0.018605 0.167077
H16   H     H_    0.362309 0.415353 0.981486 0.167099
C45   C     C_R   0.880632 0.133808 0.043806 -0.187750
C46   C     C_R   0.119246 0.866163 0.956028 -0.187758
C47   C     C_R   0.119291 0.133826 0.956104 -0.187732
C48   C     C_R   0.880690 0.866179 0.043874 -0.187743
C49   C     C_R   0.380784 0.633845 0.044017 -0.187652
C50   C     C_R   0.619340 0.366185 0.956157 -0.187641
C51   C     C_R   0.619309 0.633823 0.956111 -0.187649
C52   C     C_R   0.380728 0.366168 0.043934 -0.187637
H17   H     H_    0.927948 0.125230 0.088327 0.148478
H18   H     H_    0.071903 0.874709 0.911522 0.148463
H19   H     H_    0.071954 0.125270 0.911601 0.148465
H20   H     H_    0.928022 0.874740 0.088381 0.148467
H21   H     H_    0.428137 0.625309 0.088515 0.148465
H22   H     H_    0.572014 0.374752 0.911645 0.148476
H23   H     H_    0.571979 0.625262 0.911599 0.148478
H24   H     H_    0.428069 0.374717 0.088437 0.148472
C53   C     C_R   0.857427 0.167814 0.047427 -0.127971
C54   C     C_R   0.142475 0.832153 0.952465 -0.127899
C55   C     C_R   0.142507 0.167836 0.952517 -0.127874
C56   C     C_R   0.857476 0.832170 0.047468 -0.127906
C57   C     C_R   0.357551 0.667858 0.047556 -0.127726
C58   C     C_R   0.642547 0.332175 0.952557 -0.127789
C59   C     C_R   0.642524 0.667832 0.952523 -0.127805
C60   C     C_R   0.357507 0.332156 0.047503 -0.127747
H25   H     H_    0.887143 0.185264 0.095167 0.118096
H26   H     H_    0.112751 0.814671 0.904782 0.118035
H27   H     H_    0.112777 0.185308 0.904821 0.118047
H28   H     H_    0.887203 0.814703 0.095175 0.118032
H29   H     H_    0.387283 0.685353 0.095214 0.118028
H30   H     H_    0.612821 0.314713 0.904841 0.118084
H31   H     H_    0.612800 0.685301 0.904817 0.118060
H32   H     H_    0.387237 0.314676 0.095187 0.118063
C61   C     C_R   0.796361 0.179349 0.989570 0.079049
C62   C     C_R   0.203575 0.820658 0.010305 0.079039
C63   C     C_R   0.203601 0.179343 0.010352 0.079038
C64   C     C_R   0.796389 0.820656 0.989627 0.079055
C65   C     C_R   0.296438 0.679340 0.989724 0.079063
C66   C     C_R   0.703627 0.320654 0.010403 0.079073
C67   C     C_R   0.703609 0.679346 0.010369 0.079075
C68   C     C_R   0.296408 0.320657 0.989667 0.079059
C69   C     C_R   0.758401 0.156010 0.928707 -0.219476
C70   C     C_R   0.241546 0.844042 0.071087 -0.219564
C71   C     C_R   0.241580 0.155970 0.071152 -0.219551
C72   C     C_R   0.758415 0.844021 0.928812 -0.219554
C73   C     C_R   0.258457 0.655936 0.928979 -0.219492
C74   C     C_R   0.741600 0.344012 0.071230 -0.219411
C75   C     C_R   0.741580 0.655980 0.071183 -0.219425
C76   C     C_R   0.258429 0.344040 0.928885 -0.219444
H33   H     H_    0.711280 0.164935 0.884193 0.179533
H34   H     H_    0.288694 0.835150 0.115587 0.179527
H35   H     H_    0.288723 0.164872 0.115648 0.179544
H36   H     H_    0.711278 0.835113 0.884311 0.179524
H37   H     H_    0.211298 0.664817 0.884486 0.179464
H38   H     H_    0.788732 0.335098 0.115735 0.179471
H39   H     H_    0.788716 0.664887 0.115688 0.179457
H40   H     H_    0.211282 0.335145 0.884388 0.179478
C77   C     C_R   0.781476 0.121653 0.924652 0.356980
C78   C     C_R   0.218449 0.878405 0.075079 0.356979
C79   C     C_R   0.218496 0.121608 0.075168 0.356965
C80   C     C_R   0.781497 0.878382 0.924787 0.356981
C81   C     C_R   0.281556 0.621568 0.925013 0.357250
C82   C     C_R   0.718525 0.378374 0.075261 0.357251
C83   C     C_R   0.718497 0.621618 0.075202 0.357258
C84   C     C_R   0.281518 0.378404 0.924887 0.357241
C85   C     C_R   0.843078 0.110862 0.982820 -0.169420
C86   C     C_R   0.156811 0.889153 0.016934 -0.169484
C87   C     C_R   0.156864 0.110847 0.017028 -0.169468
C88   C     C_R   0.843121 0.889149 0.982934 -0.169474
C89   C     C_R   0.343208 0.610835 0.983147 -0.169242
C90   C     C_R   0.656908 0.389150 0.017107 -0.169181
C91   C     C_R   0.656874 0.610851 0.017049 -0.169195
C92   C     C_R   0.343155 0.389157 0.983028 -0.169202
C93   C     C_R   0.217240 0.717354 0.989821 -0.239722
C94   C     C_R   0.782791 0.282642 0.010239 -0.239696
C95   C     C_R   0.782781 0.717358 0.010220 -0.239725
C96   C     C_R   0.217226 0.282644 0.989794 -0.239686
C97   C     C_R   0.717206 0.217359 0.989754 -0.239777
C98   C     C_R   0.282763 0.782646 0.010185 -0.239805
C99   C     C_R   0.282774 0.217356 0.010206 -0.239773
C100  C     C_R   0.717220 0.782644 0.989782 -0.239813
H41   H     H_    0.192664 0.691948 0.984011 0.165034
H42   H     H_    0.807389 0.308046 0.016098 0.165075
H43   H     H_    0.807371 0.691953 0.016062 0.165066
H44   H     H_    0.192641 0.308049 0.983964 0.165053
H45   H     H_    0.692608 0.191955 0.983892 0.164915
H46   H     H_    0.307339 0.808052 0.015998 0.164875
H47   H     H_    0.307360 0.191951 0.016038 0.164888
H48   H     H_    0.692630 0.808049 0.983940 0.164897
C101  C     C_R   0.195307 0.750938 0.997943 -0.051668
C102  C     C_R   0.804692 0.249061 0.002056 -0.051693
C103  C     C_R   0.804694 0.750940 0.002059 -0.051690
C104  C     C_R   0.195306 0.249060 0.997941 -0.051672
C105  C     C_R   0.695306 0.250940 0.997940 -0.051637
C106  C     C_R   0.304694 0.749061 0.002060 -0.051610
C107  C     C_R   0.304694 0.250939 0.002058 -0.051612
C108  C     C_R   0.695307 0.749061 0.997943 -0.051629
C109  C     C_R   0.227741 0.784104 0.007291 0.026771
C110  C     C_R   0.772227 0.215900 0.992648 0.026743
C111  C     C_R   0.772242 0.784103 0.992677 0.026761
C112  C     C_R   0.227753 0.215896 0.007312 0.026775
C113  C     C_R   0.727768 0.284101 0.007343 0.026727
C114  C     C_R   0.272264 0.715894 0.992719 0.026755
C115  C     C_R   0.272249 0.284103 0.992691 0.026745
C116  C     C_R   0.727759 0.715898 0.007325 0.026717
H49   H     H_    0.847525 0.288257 0.568072 0.153528
H50   H     H_    0.150771 0.713242 0.431926 0.153401
H51   H     H_    0.152515 0.288291 0.431928 0.153527
H52   H     H_    0.848168 0.712297 0.568072 0.153467
H53   H     H_    0.349229 0.786758 0.568073 0.153534
H54   H     H_    0.652475 0.211744 0.431928 0.153666
H55   H     H_    0.651832 0.787702 0.431928 0.153601
H56   H     H_    0.347485 0.211709 0.568072 0.153664
C117  C     C_R   0.766487 0.271539 0.461528 -0.165710
C118  C     C_R   0.232555 0.729304 0.538471 -0.165688
C119  C     C_R   0.233536 0.271558 0.538472 -0.165723
C120  C     C_R   0.766849 0.728773 0.461528 -0.165722
C121  C     C_R   0.267446 0.770695 0.461529 -0.165594
C122  C     C_R   0.733512 0.228462 0.538472 -0.165615
C123  C     C_R   0.733151 0.771227 0.538472 -0.165636
C124  C     C_R   0.266465 0.228443 0.461528 -0.165632
H57   H     H_    0.779608 0.288291 0.432195 0.155307
H58   H     H_    0.218688 0.713207 0.567803 0.155137
H59   H     H_    0.220433 0.288325 0.567805 0.155297
H60   H     H_    0.780251 0.712263 0.432196 0.155235
H61   H     H_    0.281312 0.786792 0.432197 0.155218
H62   H     H_    0.720392 0.211710 0.567805 0.155392
H63   H     H_    0.719748 0.787737 0.567804 0.155308
H64   H     H_    0.279568 0.211675 0.432195 0.155376
C125  C     C_R   0.711394 0.250020 0.422766 0.151061
C126  C     C_R   0.288606 0.749979 0.577233 0.151193
C127  C     C_R   0.288606 0.250020 0.577233 0.151066
C128  C     C_R   0.711394 0.749980 0.422766 0.151126
C129  C     C_R   0.211395 0.750020 0.422766 0.151208
C130  C     C_R   0.788605 0.249980 0.577233 0.151077
C131  C     C_R   0.788605 0.750020 0.577233 0.151144
C132  C     C_R   0.211395 0.249980 0.422766 0.151084
C133  C     C_R   0.694977 0.228482 0.461378 -0.168091
C134  C     C_R   0.305981 0.770675 0.538623 -0.168108
C135  C     C_R   0.305000 0.228463 0.538621 -0.168091
C136  C     C_R   0.694615 0.771206 0.461378 -0.168127
C137  C     C_R   0.194019 0.729325 0.461377 -0.168271
C138  C     C_R   0.805022 0.271519 0.538622 -0.168254
C139  C     C_R   0.805384 0.728793 0.538622 -0.168287
C140  C     C_R   0.195000 0.271538 0.461378 -0.168253
C141  C     C_1   0.671763 0.250033 0.343473 -0.061808
C142  C     C_1   0.328237 0.749967 0.656527 -0.061821
C143  C     C_1   0.328237 0.250033 0.656527 -0.061818
C144  C     C_1   0.671763 0.749967 0.343473 -0.061835
C145  C     C_1   0.171763 0.750033 0.343473 -0.061879
C146  C     C_1   0.828237 0.249967 0.656527 -0.061866
C147  C     C_1   0.828237 0.750033 0.656527 -0.061899
C148  C     C_1   0.171763 0.249967 0.343473 -0.061878
C149  C     C_1   0.861449 0.249968 0.722957 -0.123661
C150  C     C_1   0.138551 0.750032 0.277043 -0.123689
C151  C     C_1   0.138551 0.249968 0.277043 -0.123678
C152  C     C_1   0.861449 0.750032 0.722957 -0.123695
C153  C     C_1   0.361449 0.749968 0.722957 -0.123600
C154  C     C_1   0.638551 0.250032 0.277043 -0.123573
C155  C     C_1   0.638551 0.749968 0.277043 -0.123599
C156  C     C_1   0.361449 0.250032 0.722957 -0.123584
H65   H     H_    0.101976 0.033977 0.074291 0.181854
H66   H     H_    0.898024 0.966023 0.925696 0.181835
H67   H     H_    0.898024 0.033977 0.925695 0.181815
H68   H     H_    0.101976 0.966023 0.074290 0.181900
H69   H     H_    0.601988 0.533976 0.074085 0.181801
H70   H     H_    0.398011 0.466024 0.925929 0.181830
H71   H     H_    0.398011 0.533977 0.925931 0.181864
H72   H     H_    0.601988 0.466024 0.074084 0.181773
C157  C     C_R   0.057365 0.980720 0.041758 -0.153413
C158  C     C_R   0.942635 0.019280 0.958228 -0.153445
C159  C     C_R   0.942635 0.980720 0.958229 -0.153447
C160  C     C_R   0.057365 0.019279 0.041758 -0.153428
C161  C     C_R   0.557371 0.480720 0.041647 -0.153346
C162  C     C_R   0.442628 0.519280 0.958367 -0.153309
C163  C     C_R   0.442628 0.480721 0.958366 -0.153319
C164  C     C_R   0.557371 0.519280 0.041648 -0.153342
C165  C     C_R   0.000000 0.961375 0.999994 0.124960
C166  C     C_R   0.000000 0.038625 0.999994 0.124980
C167  C     C_R   0.499999 0.461375 0.000006 0.124966
C168  C     C_R   0.499999 0.538625 0.000007 0.124948
C169  C     C_1   0.000000 0.921728 0.999996 -0.074089
C170  C     C_1   0.000000 0.078271 0.999996 -0.074101
C171  C     C_1   0.499999 0.421728 0.000004 -0.074069
C172  C     C_1   0.500000 0.578272 0.000005 -0.074056
C173  C     C_1   0.000000 0.111486 0.999998 -0.132426
C174  C     C_1   0.000000 0.888513 0.999998 -0.132403
C175  C     C_1   0.500000 0.611487 0.000002 -0.132455
C176  C     C_1   0.500000 0.388513 0.000002 -0.132477
N1    N     N_R   0.742747 0.097972 0.861808 0.212354
O53   O     O_R   0.685690 0.107841 0.807931 -0.366987
O54   O     O_R   0.764180 0.066310 0.857810 -0.373452
N2    N     N_R   0.257194 0.902134 0.137835 0.212365
O55   O     O_R   0.314290 0.892309 0.191680 -0.366968
O56   O     O_R   0.235738 0.933799 0.141779 -0.373451
N3    N     N_R   0.257249 0.097891 0.137943 0.212359
O57   O     O_R   0.314347 0.107722 0.191771 -0.366967
O58   O     O_R   0.235798 0.066231 0.141922 -0.373417
N4    N     N_R   0.742750 0.902090 0.861996 0.212350
O59   O     O_R   0.685665 0.892248 0.808150 -0.366996
O60   O     O_R   0.764193 0.933752 0.858017 -0.373484
N5    N     N_R   0.242798 0.597818 0.862298 0.212463
O61   O     O_R   0.185689 0.607629 0.808464 -0.367235
O62   O     O_R   0.264252 0.566145 0.858383 -0.373332
N6    N     N_R   0.757270 0.402075 0.138065 0.212449
O63   O     O_R   0.814345 0.392223 0.191920 -0.367260
O64   O     O_R   0.735835 0.433740 0.142043 -0.373345
N7    N     N_R   0.757240 0.597909 0.137992 0.212451
O65   O     O_R   0.814322 0.607752 0.191845 -0.367267
O66   O     O_R   0.735797 0.566245 0.141962 -0.373370
N8    N     N_R   0.242764 0.402133 0.862132 0.212459
O67   O     O_R   0.185662 0.392309 0.808301 -0.367234
O68   O     O_R   0.264217 0.433796 0.858175 -0.373302

loop_
_geom_bond_atom_site_label_1
_geom_bond_atom_site_label_2
_geom_bond_distance
_ccdc_geom_bond_type
C46   C54   1.395578 A    
Zn8   O10   1.939498 S    
Zn6   O42   1.907897 S    
C71   H35   1.083075 S    
C166  C170  1.437817 S    
C70   H34   1.083074 S    
O42   C14   1.275760 A    
C100  C111  1.393712 A    
C51   C91   1.396263 A    
C30   C31   1.398280 A    
C162  C168  1.401109 A    
C117  C138  1.398437 A    
O46   C2    1.266927 A    
O24   C18   1.275799 A    
C49   C89   1.396256 A    
N4    O59   1.301559 A    
C122  C133  1.398437 A    
C55   H27   1.083148 S    
Zn16  O28   1.907451 S    
C45   C53   1.395578 A    
H3    C26   1.083486 S    
Zn4   O2    1.929353 S    
C98   H46   1.084816 S    
Zn4   O40   1.907896 S    
C118  C126  1.401040 A    
H68   C157  1.083419 S    
O33   C23   1.275999 A    
O11   C7    1.266375 A    
Zn7   O43   1.907897 S    
C52   C60   1.395573 A    
O25   C19   1.275797 A    
C66   C74   1.404699 A    
N3    O57   1.301559 A    
C125  C133  1.401071 A    
N7    O66   1.301666 A    
C121  H61   1.083478 S    
C6    C107  1.456233 S    
Zn12  O24   1.907451 S    
Zn13  O17   1.908514 S    
O16   C12   1.275773 A    
Zn10  O14   1.908515 S    
C54   H26   1.083147 S    
Zn16  O4    1.928505 S    
C96   H44   1.084817 S    
C97   C110  1.393695 A    
H69   C164  1.083412 S    
H70   C163  1.083416 S    
H71   C162  1.083414 S    
Zn5   O3    1.929351 S    
O47   C3    1.266925 A    
C66   C113  1.484951 S    
Zn7   O3    1.929353 S    
C69   H33   1.083074 S    
C158  C159  1.398374 A    
O23   C17   1.275802 A    
C46   H18   1.082465 S    
Zn8   O34   1.907249 S    
C75   H39   1.083074 S    
C161  C164  1.398371 A    
C81   C89   1.406605 A    
C76   H40   1.083074 S    
C19   C175  1.432689 S    
O29   C21   1.276001 A    
C47   C87   1.396265 A    
Zn5   O41   1.907896 S    
C11   C149  1.433482 S    
Zn10  O22   1.907451 S    
C28   C34   1.401000 A    
C53   C61   1.404246 A    
Zn10  O2    1.928504 S    
C59   C67   1.404255 A    
H55   C136  1.083464 S    
Zn3   O1    1.929353 S    
C84   C92   1.406609 A    
C52   C92   1.396260 A    
N7    O65   1.301561 A    
C99   C112  1.393713 A    
C45   H17   1.082464 S    
Zn5   O35   1.907250 S    
Zn6   O36   1.907249 S    
C102  C110  1.412539 A    
C123  C131  1.401038 A    
N2    O56   1.301660 A    
C124  C132  1.401039 A    
C144  C155  1.205009 T    
C145  C150  1.205010 T    
C77   N1    1.439676 S    
C126  C142  1.438337 S    
C1    C104  1.456236 S    
C120  C128  1.401038 A    
C121  C129  1.401040 A    
C74   H38   1.083074 S    
C3    C102  1.456235 S    
O22   C18   1.275799 A    
Zn9   O45   1.939571 S    
Zn11  O47   1.939574 S    
C95   C116  1.393705 A    
Zn12  O48   1.939570 S    
C131  C147  1.438337 S    
C161  C167  1.401110 A    
O50   C6    1.266929 A    
Zn1   O37   1.907896 S    
C119  C140  1.398435 A    
Zn5   O11   1.939499 S    
Zn3   O39   1.907897 S    
Zn6   O12   1.939497 S    
C47   C55   1.395577 A    
C128  C136  1.401071 A    
C34   C38   1.437944 S    
C129  C137  1.401068 A    
C61   C69   1.404688 A    
H14   C90   1.082258 S    
C131  C139  1.401071 A    
O32   C22   1.276000 A    
N5    O62   1.301655 A    
C95   H43   1.084818 S    
C93   H41   1.084815 S    
C30   C36   1.401001 A    
C119  H59   1.083480 S    
C56   C64   1.404257 A    
C118  C137  1.398437 A    
C57   C65   1.404267 A    
N6    O63   1.301561 A    
H49   C138  1.083465 S    
C159  C165  1.401113 A    
C79   N3    1.439675 S    
O5    C1    1.266383 A    
N3    O58   1.301666 A    
C59   H31   1.083148 S    
Zn4   O6    1.939498 S    
Zn15  O51   1.939574 S    
H12   C88   1.082268 S    
C82   N6    1.439674 S    
C94   C113  1.393703 A    
C21   C41   1.433106 S    
N8    O68   1.301666 A    
C78   N2    1.439675 S    
C23   C43   1.433110 S    
C64   C72   1.404702 A    
O51   C7    1.266930 A    
C126  C134  1.401068 A    
C36   C40   1.437947 S    
C63   C71   1.404704 A    
O8    C4    1.266383 A    
C67   C75   1.404699 A    
C61   C110  1.484934 S    
Zn9   O1    1.928504 S    
C68   C76   1.404706 A    
H7    C30   1.083481 S    
C81   N5    1.439675 S    
C31   C35   1.401002 A    
C78   C86   1.406609 A    
C122  C130  1.401042 A    
Zn14  O18   1.908515 S    
C39   C44   1.204781 T    
C8    C105  1.456235 S    
O52   C8    1.266929 A    
Zn1   O1    1.929351 S    
C2    C103  1.456235 S    
O40   C12   1.275759 A    
C172  C175  1.204560 T    
C94   C102  1.400461 A    
C24   C44   1.433110 S    
Zn15  O27   1.907450 S    
C55   C63   1.404258 A    
Zn16  O20   1.908514 S    
C98   C106  1.400468 A    
C165  C169  1.437817 S    
C64   C111  1.484958 S    
O9    C5    1.266383 A    
C26   C27   1.398280 A    
C38   C41   1.204781 T    
C47   H19   1.082464 S    
C97   H45   1.084819 S    
C128  C144  1.438337 S    
C164  C168  1.401110 A    
C129  C145  1.438337 S    
C106  C114  1.412554 A    
N4    O60   1.301669 A    
O18   C14   1.275769 A    
O6    C2    1.266382 A    
C168  C172  1.437817 S    
C123  H63   1.083486 S    
C12   C150  1.433482 S    
C148  C151  1.205009 T    
Zn13  O25   1.907452 S    
C67   C116  1.484954 S    
C124  C135  1.398435 A    
Zn15  O3    1.928505 S    
C54   C62   1.404259 A    
C96   C104  1.400462 A    
C22   C42   1.433106 S    
O43   C15   1.275761 A    
C17   C173  1.432689 S    
C25   C33   1.401002 A    
C104  C112  1.412551 A    
N1    O54   1.301661 A    
H67   C158  1.083420 S    
O35   C23   1.275997 A    
C7    C106  1.456236 S    
C146  C149  1.205010 T    
C127  C143  1.438337 S    
C13   C155  1.433484 S    
C14   C156  1.433484 S    
C15   C153  1.433482 S    
C72   H36   1.083074 S    
C29   C35   1.401001 A    
C73   H37   1.083074 S    
C132  C140  1.401071 A    
C83   N7    1.439673 S    
H4    C25   1.083490 S    
C141  C154  1.205009 T    
H11   C87   1.082265 S    
Zn10  O46   1.939575 S    
C143  C156  1.205009 T    
H9    C85   1.082268 S    
C60   C68   1.404261 A    
C107  C115  1.412550 A    
Zn13  O3    1.928504 S    
C118  H58   1.083474 S    
Zn14  O4    1.928504 S    
Zn2   O38   1.907897 S    
O19   C15   1.275771 A    
C99   C107  1.400464 A    
Zn1   O31   1.907250 S    
Zn4   O30   1.907249 S    
C122  H62   1.083477 S    
Zn2   O32   1.907249 S    
H51   C140  1.083466 S    
Zn3   O29   1.907248 S    
H52   C139  1.083466 S    
H6    C31   1.083484 S    
C32   C36   1.401002 A    
H15   C91   1.082258 S    
H53   C134  1.083468 S    
O37   C9    1.275756 A    
H16   C92   1.082259 S    
O7    C3    1.266384 A    
C50   H22   1.082464 S    
O39   C11   1.275761 A    
C62   C70   1.404705 A    
C70   C78   1.408266 A    
C98   C109  1.393714 A    
C99   H47   1.084821 S    
C117  H57   1.083477 S    
C119  C127  1.401039 A    
C147  C152  1.205009 T    
C9    C151  1.433484 S    
C10   C152  1.433484 S    
C74   C82   1.408258 A    
H2    C27   1.083485 S    
C25   C28   1.398276 A    
C65   C114  1.484991 S    
C26   C34   1.401000 A    
C100  C108  1.400464 A    
C63   C112  1.484969 S    
O12   C8    1.266381 A    
C82   C90   1.406610 A    
H50   C137  1.083466 S    
C160  C166  1.401115 A    
Zn11  O1    1.928505 S    
C58   H30   1.083149 S    
N6    O64   1.301663 A    
C46   C86   1.396260 A    
H10   C86   1.082271 S    
C169  C174  1.204560 T    
O30   C22   1.275999 A    
C95   C103  1.400460 A    
C48   H20   1.082464 S    
Zn6   O4    1.929351 S    
C49   H21   1.082466 S    
Zn7   O9    1.939497 S    
C80   N4    1.439671 S    
C27   C33   1.401000 A    
C96   C115  1.393715 A    
C108  C116  1.412545 A    
C52   H24   1.082464 S    
Zn8   O44   1.907896 S    
C68   C115  1.484971 S    
C51   C59   1.395571 A    
C167  C171  1.437817 S    
C127  C135  1.401073 A    
C69   C77   1.408265 A    
C105  C113  1.412549 A    
C56   H28   1.083149 S    
C103  C111  1.412550 A    
C57   H29   1.083147 S    
O38   C10   1.275760 A    
C170  C173  1.204560 T    
C130  C146  1.438337 S    
C60   H32   1.083146 S    
Zn2   O2    1.929351 S    
C120  C139  1.398435 A    
N5    O61   1.301562 A    
C121  C134  1.398437 A    
Zn13  O49   1.939571 S    
C4    C101  1.456233 S    
H8    C29   1.083482 S    
Zn8   O4    1.929353 S    
C117  C125  1.401038 A    
O21   C17   1.275800 A    
C83   C91   1.406610 A    
C157  C165  1.401114 A    
C75   C83   1.408258 A    
C76   C84   1.408260 A    
C130  C138  1.401070 A    
C65   C73   1.404712 A    
C50   C58   1.395572 A    
C20   C176  1.432685 S    
O49   C5    1.266928 A    
C73   C81   1.408264 A    
C132  C148  1.438337 S    
H5    C32   1.083484 S    
Zn16  O52   1.939570 S    
C33   C37   1.437944 S    
Zn14  O26   1.907451 S    
C53   H25   1.083146 S    
Zn11  O15   1.908516 S    
C100  H48   1.084817 S    
C171  C176  1.204564 T    
Zn12  O16   1.908514 S    
O31   C21   1.275998 A    
H56   C135  1.083466 S    
C94   H42   1.084816 S    
H1    C28   1.083489 S    
Zn15  O19   1.908516 S    
C18   C174  1.432689 S    
H72   C161  1.083413 S    
C29   C32   1.398280 A    
C58   C66   1.404254 A    
C48   C56   1.395575 A    
C49   C57   1.395571 A    
Zn7   O33   1.907248 S    
C163  C167  1.401113 A    
Zn9   O21   1.907452 S    
Zn14  O50   1.939575 S    
O13   C9    1.275773 A    
C142  C153  1.205010 T    
Zn11  O23   1.907450 S    
C158  C166  1.401116 A    
C123  C136  1.398435 A    
O34   C24   1.275996 A    
C93   C114  1.393725 A    
Zn1   O7    1.939499 S    
Zn2   O8    1.939497 S    
C157  C160  1.398374 A    
O41   C13   1.275758 A    
Zn3   O5    1.939497 S    
O26   C20   1.275802 A    
Zn12  O2    1.928505 S    
C62   C109  1.484972 S    
O45   C1    1.266926 A    
C50   C90   1.396259 A    
C16   C154  1.433484 S    
C162  C163  1.398371 A    
C120  H60   1.083484 S    
C5    C108  1.456237 S    
C79   C87   1.406609 A    
H65   C160  1.083421 S    
H54   C133  1.083465 S    
H66   C159  1.083420 S    
O20   C16   1.275773 A    
C77   C85   1.406613 A    
C45   C85   1.396263 A    
C124  H64   1.083480 S    
O15   C11   1.275771 A    
Zn9   O13   1.908514 S    
C125  C141  1.438337 S    
C40   C43   1.204781 T    
C71   C79   1.408261 A    
O27   C19   1.275801 A    
N2    O55   1.301561 A    
C93   C101  1.400464 A    
O44   C16   1.275759 A    
C84   N8    1.439673 S    
C72   C80   1.408264 A    
C97   C105  1.400466 A    
C51   H23   1.082466 S    
O10   C6    1.266379 A    
O48   C4    1.266926 A    
N1    O53   1.301561 A    
O36   C24   1.276000 A    
H13   C89   1.082264 S    
C37   C42   1.204781 T    
O14   C10   1.275769 A    
C80   C88   1.406609 A    
N8    O67   1.301559 A    
C101  C109  1.412547 A    
C48   C88   1.396263 A    
C35   C39   1.437947 S    
O28   C20   1.275800 A    
O17   C13   1.275771 A    
