data_mof_unit_52026.cif
_audit_creation_date              2012-10-26T21:00:17-0400
_audit_creation_method            fapswitch 2.2
_symmetry_space_group_name_H-M    P1
_symmetry_Int_Tables_number       1
_space_group_crystal_system       triclinic
_cell_length_a                    19.343435
_cell_length_b                    8.688449
_cell_length_c                    7.453972
_cell_angle_alpha                 102.88784
_cell_angle_beta                  94.799807
_cell_angle_gamma                 92.380072
_cell_volume                      1214.56820497

loop_
_atom_site_label
_atom_site_type_symbol
_atom_type_description
_atom_site_fract_x
_atom_site_fract_y
_atom_site_fract_z
_atom_type_partial_charge
C1    C     C_R   0.497913 0.199736 0.453303 0.552116
C2    C     C_R   0.811649 0.460459 0.336806 -0.148405
C3    C     C_R   0.145997 0.495777 0.494859 0.077628
C4    C     C_R   0.854004 0.504490 0.504985 0.077667
C5    C     C_R   0.177303 0.451931 0.328006 0.097310
C6    C     C_R   0.822713 0.547885 0.671906 0.097318
C7    C     C_R   0.249652 0.452991 0.332594 -0.124972
C8    C     C_R   0.750362 0.546693 0.667391 -0.124965
C9    C     C_R   0.291590 0.496602 0.500992 -0.003814
C10   C     C_R   0.708412 0.503425 0.498983 -0.003815
C11   C     C_R   0.930077 0.502402 0.502843 0.360079
C12   C     C_R   0.502086 0.800264 0.546697 0.552124
C13   C     C_R   0.069920 0.497943 0.496946 0.360061
C14   C     C_2   0.496911 0.031896 0.426988 -0.153691
C15   C     C_2   0.503089 0.968104 0.573012 -0.153690
C16   C     C_R   0.367522 0.498919 0.501132 0.547925
C17   C     C_R   0.632478 0.501078 0.498865 0.547948
C18   C     C_R   0.260430 0.539408 0.666362 -0.148326
C19   C     C_R   0.739563 0.461037 0.333547 -0.148279
C20   C     C_R   0.188344 0.540094 0.663040 -0.148469
Cu1   Cu    Cu3+1 0.507710 0.517380 0.684380 0.954954
Cu2   Cu    Cu3+1 0.492290 0.482620 0.315620 0.954956
H1    H     H_    0.291694 0.574052 0.798030 0.136447
H2    H     H_    0.554917 0.620949 0.051472 0.238019
H3    H     H_    0.151282 0.489822 0.074300 0.227488
H4    H     H_    0.147926 0.297449 0.085155 0.239154
H5    H     H_    0.848874 0.509067 0.925076 0.227524
H6    H     H_    0.852007 0.701694 0.915314 0.239104
H7    H     H_    0.708295 0.426652 0.201863 0.136424
H8    H     H_    0.165654 0.574924 0.792738 0.131934
H9    H     H_    0.834335 0.425935 0.207068 0.131755
H10   H     H_    0.272823 0.419734 0.203123 0.126992
H11   H     H_    0.727199 0.579585 0.796923 0.126980
H12   H     H_    0.491085 0.960450 0.286192 0.134747
H13   H     H_    0.508915 0.039550 0.713808 0.134748
H14   H     H_    0.445083 0.379051 0.948528 0.238025
N1    N     N_R   0.026796 0.406872 0.357060 -0.160772
N2    N     N_R   0.973199 0.593483 0.642724 -0.160792
N3    N     N_R   0.958227 0.409285 0.359639 -0.231576
N4    N     N_R   0.041767 0.591072 0.640142 -0.231607
N5    N     N_2   0.480680 0.456420 0.038530 -0.258477
N6    N     N_2   0.519320 0.543580 0.961470 -0.258483
N7    N     N_3   0.136292 0.410890 0.153100 -0.583673
N8    N     N_3   0.863743 0.588509 0.846793 -0.583724
O1    O     O_R   0.505010 0.286130 0.619770 -0.502942
O2    O     O_R   0.494990 0.713870 0.380230 -0.502938
O3    O     O_R   0.491990 0.256780 0.308370 -0.496762
O4    O     O_R   0.508010 0.743220 0.691630 -0.496756
O5    O     O_R   0.406650 0.514660 0.655750 -0.506177
O6    O     O_R   0.593350 0.485340 0.344250 -0.506186
O7    O     O_R   0.393640 0.485310 0.344340 -0.505064
O8    O     O_R   0.606360 0.514690 0.655660 -0.505072

loop_
_geom_bond_atom_site_label_1
_geom_bond_atom_site_label_2
_ccdc_geom_bond_type
C17   O6    A    
C14   H12   S    
C11   N2    A    
C2    C4    A    
C16   O7    A    
C7    H10   S    
H2    N6    S    
N5    N6    D    
Cu1   O1    S    
C3    C13   S    
C12   C15   S    
Cu2   O6    S    
C10   C19   A    
C12   O4    A    
Cu1   O4    S    
H3    N7    S    
Cu1   O5    S    
Cu2   O3    S    
C5    N7    S    
C5    C7    A    
C3    C20   A    
N1    N3    A    
C6    N8    S    
Cu1   Cu2   S    
C20   H8    S    
C4    C11   S    
N2    N4    A    
C1    O1    A    
H14   N5    S    
C17   O8    A    
C4    C6    A    
Cu2   O2    S    
C9    C16   S    
H4    N7    S    
C18   C20   A    
C8    H11   S    
C11   N3    A    
Cu2   O7    S    
Cu2   N5    S    
C10   C17   S    
Cu1   N6    S    
C19   H7    S    
C9    C18   A    
C16   O5    A    
C8    C10   A    
C15   H13   S    
C7    C9    A    
C14   C15   D    
C1    O3    A    
C13   N4    A    
C6    C8    A    
C1    C14   S    
C2    C19   A    
C13   N1    A    
H5    N8    S    
H6    N8    S    
Cu1   O8    S    
C18   H1    S    
C2    H9    S    
C3    C5    A    
C12   O2    A    
