data_mof_unit_11807.cif
_audit_creation_date              2012-12-10T18:59:57-0500
_audit_creation_method            fapswitch 2.2
_symmetry_space_group_name_H-M    P1
_symmetry_Int_Tables_number       1
_space_group_crystal_system       triclinic
_cell_length_a                    10.706879
_cell_length_b                    10.70282
_cell_length_c                    9.817821
_cell_angle_alpha                 90.064767
_cell_angle_beta                  89.912493
_cell_angle_gamma                 90.345972
_cell_volume                      1125.03887332

loop_
_atom_site_label
_atom_site_type_symbol
_atom_type_description
_atom_site_fract_x
_atom_site_fract_y
_atom_site_fract_z
_atom_type_partial_charge
C1    C     C_R   0.499927 0.259833 0.499907 0.858388
C2    C     C_R   0.467930 0.063943 0.619288 -0.214143
C3    C     C_R   0.500089 0.872554 0.500111 -0.005312
C4    C     C_R   0.499896 0.127446 0.499891 -0.005308
C5    C     C_R   0.575623 0.580115 0.071971 -0.081452
C6    C     C_R   0.424377 0.419885 0.928029 -0.081469
C7    C     C_R   0.575589 0.580081 0.927916 -0.058596
C8    C     C_R   0.424411 0.419919 0.072083 -0.058606
C9    C     C_R   0.260052 0.503870 0.499886 0.872931
C10   C     C_R   0.739948 0.496128 0.500113 0.872929
C11   C     C_R   0.254671 0.792324 0.187440 -0.121339
C12   C     C_R   0.500069 0.740167 0.500093 0.858398
C13   C     C_R   0.745318 0.207711 0.812593 -0.121339
C14   C     C_R   0.193329 0.733855 0.296149 -0.105378
C15   C     C_R   0.806653 0.266166 0.703874 -0.105341
C16   C     C_R   0.122477 0.624772 0.273863 0.140653
C17   C     C_R   0.877526 0.375234 0.726143 0.140646
C18   C     C_R   0.112407 0.576324 0.141221 -0.169240
C19   C     C_R   0.887624 0.423679 0.858781 -0.169260
C20   C     C_R   0.174036 0.635027 0.032872 -0.139729
C21   C     C_R   0.826002 0.364989 0.967140 -0.139743
C22   C     C_R   0.245449 0.742688 0.056043 -0.106830
C23   C     C_R   0.872451 0.492945 0.500265 -0.079256
C24   C     C_R   0.754567 0.257346 0.943985 -0.106842
C25   C     C_R   0.933497 0.549976 0.390753 -0.260536
C26   C     C_R   0.066504 0.450015 0.609245 -0.260538
C27   C     C_R   0.127550 0.507049 0.499734 -0.079254
C28   C     C_R   0.938449 0.440985 0.610446 -0.002735
C29   C     C_R   0.061552 0.559009 0.389553 -0.002738
C30   C     C_R   0.531869 0.064029 0.380567 -0.208968
C31   C     C_R   0.468113 0.935971 0.619436 -0.208956
C32   C     C_R   0.532052 0.936057 0.380716 -0.214158
H1    H     H_    0.293698 0.787575 0.972203 0.118579
H2    H     H_    0.941133 0.508090 0.877602 0.122098
H3    H     H_    0.167319 0.596478 0.931132 0.132918
H4    H     H_    0.832742 0.403536 0.068876 0.132922
H5    H     H_    0.881180 0.591606 0.307939 0.155744
H6    H     H_    0.118821 0.408387 0.692058 0.155743
H7    H     H_    0.557597 0.112967 0.288003 0.149517
H8    H     H_    0.442385 0.887034 0.712001 0.149513
H9    H     H_    0.557826 0.887172 0.288214 0.148941
H10   H     H_    0.442156 0.112827 0.711794 0.148930
H11   H     H_    0.636143 0.643963 0.126671 0.117390
H12   H     H_    0.706323 0.212470 0.027833 0.118591
H13   H     H_    0.363858 0.356037 0.873329 0.117391
H14   H     H_    0.636174 0.643820 0.873119 0.125406
H15   H     H_    0.363826 0.356180 0.126881 0.125404
H16   H     H_    0.309749 0.875856 0.205135 0.128750
H17   H     H_    0.690225 0.124191 0.794912 0.128747
H18   H     H_    0.202104 0.772539 0.397714 0.103147
H19   H     H_    0.797860 0.227483 0.602315 0.103141
H20   H     H_    0.058919 0.491898 0.122390 0.122086
N1    N     N_R   0.499970 0.499970 0.857200 -0.074429
N2    N     N_R   0.500030 0.500030 0.142800 -0.074427
O1    O     O_R   0.499990 0.316750 0.614620 -0.623589
O2    O     O_R   0.500010 0.683250 0.385380 -0.623585
O3    O     O_R   0.499990 0.316780 0.385290 -0.631432
O4    O     O_R   0.500010 0.683220 0.614710 -0.631430
O5    O     O_R   0.316760 0.500000 0.614660 -0.631928
O6    O     O_R   0.683240 0.500000 0.385340 -0.631924
O7    O     O_R   0.316760 0.500020 0.385330 -0.605276
O8    O     O_R   0.683240 0.499980 0.614670 -0.605276
Zn1   Zn    Zn3+2 0.500000 0.499980 0.653120 0.945728
Zn2   Zn    Zn3+2 0.500000 0.500020 0.346880 0.945731

loop_
_geom_bond_atom_site_label_1
_geom_bond_atom_site_label_2
_ccdc_geom_bond_type
O7    Zn2   S    
C2    C4    A    
C32   H9    S    
O2    Zn2   S    
O8    Zn1   S    
C6    H13   S    
C1    O3    A    
C10   C23   S    
C27   C29   A    
C5    C7    A    
C11   C22   A    
C10   O6    A    
O6    Zn2   S    
C1    C4    S    
C12   O4    A    
C23   C25   A    
C11   H16   S    
C8    H15   S    
C18   H20   S    
C21   H4    S    
C10   O8    A    
C23   C28   A    
C3    C31   A    
N1    Zn1   S    
C25   C29   A    
C26   C27   A    
C12   O2    A    
N2    Zn2   S    
C2    H10   S    
C13   H17   S    
C18   C20   A    
C19   C21   A    
C20   C22   A    
C30   H7    S    
C1    O1    A    
C15   H19   S    
C13   C15   A    
C5    H11   S    
C3    C32   A    
C24   H12   S    
C11   C14   A    
C9    O7    A    
O5    Zn1   S    
C16   C29   S    
C14   H18   S    
C6    N1    A    
C30   C32   A    
C7    H14   S    
C5    N2    A    
C31   H8    S    
C9    C27   S    
O3    Zn2   S    
C16   C18   A    
C21   C24   A    
C8    N2    A    
O4    Zn1   S    
C15   C17   A    
C22   H1    S    
C7    N1    A    
C26   H6    S    
C6    C8    A    
C3    C12   S    
C17   C19   A    
C14   C16   A    
C17   C28   S    
C26   C28   A    
C20   H3    S    
C4    C30   A    
C13   C24   A    
C25   H5    S    
C2    C31   A    
C9    O5    A    
C19   H2    S    
O1    Zn1   S    
