data_mof_unit_60114.cif
_audit_creation_date              2012-12-10T19:28:33-0500
_audit_creation_method            fapswitch 2.2
_symmetry_space_group_name_H-M    P1
_symmetry_Int_Tables_number       1
_space_group_crystal_system       triclinic
_cell_length_a                    30.186769
_cell_length_b                    30.588255
_cell_length_c                    21.553906
_cell_angle_alpha                 89.973265
_cell_angle_beta                  134.809379
_cell_angle_gamma                 89.999806
_cell_volume                      14119.5973116

loop_
_atom_site_label
_atom_site_type_symbol
_atom_type_description
_atom_site_fract_x
_atom_site_fract_y
_atom_site_fract_z
_atom_type_partial_charge
C1    C     C_R   0.310304 0.810015 0.120290 0.875538
C2    C     C_R   0.690559 0.810119 0.879930 0.882366
C3    C     C_R   0.810188 0.310040 0.119900 0.878361
C4    C     C_R   0.189834 0.310242 0.879680 0.883865
C5    C     C_R   0.547478 0.786296 0.002519 0.122245
C6    C     C_R   0.452458 0.786296 0.997347 0.123111
C7    C     C_R   0.047345 0.286322 0.002215 0.122931
C8    C     C_R   0.952325 0.286305 0.997047 0.123941
C9    C     C_R   0.523595 0.666438 0.001235 -0.207512
C10   C     C_R   0.476363 0.666438 0.998663 -0.207002
C11   C     C_R   0.024212 0.166462 0.002401 -0.206904
C12   C     C_R   0.977022 0.166454 0.999906 -0.206778
C13   C     C_R   0.476298 0.825895 0.998598 -0.210179
C14   C     C_R   0.523621 0.825895 0.001237 -0.210283
C15   C     C_R   0.975932 0.325908 0.997837 -0.210112
C16   C     C_R   0.023261 0.325917 0.000487 -0.209843
C17   C     C_R   0.361649 0.836044 0.264740 0.126257
C18   C     C_R   0.593081 0.840654 0.744231 0.076500
C19   C     C_R   0.826816 0.352151 0.230235 0.066248
C20   C     C_R   0.130733 0.333999 0.729579 0.138518
C21   C     C_R   0.345960 0.842436 0.187235 -0.081513
C22   C     C_R   0.657440 0.843729 0.815231 -0.070232
C23   C     C_R   0.842224 0.343560 0.184071 -0.054957
C24   C     C_R   0.159639 0.343922 0.814401 -0.106533
C25   C     C_R   0.367978 0.879421 0.177359 -0.211182
C26   C     C_R   0.688792 0.881940 0.827909 -0.197790
C27   C     C_R   0.881740 0.371990 0.190684 -0.211128
C28   C     C_R   0.161955 0.387625 0.836962 -0.204975
C29   C     C_R   0.399766 0.911747 0.241485 -0.203648
C30   C     C_R   0.656750 0.913987 0.763257 -0.214388
C31   C     C_R   0.913245 0.404650 0.254034 -0.192437
C32   C     C_R   0.128780 0.419564 0.772313 -0.210582
C33   C     C_R   0.406821 0.907703 0.312920 -0.079443
C34   C     C_R   0.593304 0.908021 0.687517 -0.075629
C35   C     C_R   0.903772 0.409182 0.308863 -0.112425
C36   C     C_R   0.094129 0.407724 0.685897 -0.084427
C37   C     C_R   0.389696 0.868983 0.325356 0.080715
C38   C     C_R   0.561254 0.872561 0.681058 0.087999
C39   C     C_R   0.857288 0.384724 0.292114 0.114704
C40   C     C_R   0.098658 0.365841 0.665936 0.086709
C41   C     C_3   0.351847 0.859767 0.345036 -0.229682
C42   C     C_3   0.518174 0.840041 0.608986 -0.240314
C43   C     C_3   0.860278 0.358229 0.353264 -0.218744
C44   C     C_3   0.047323 0.335227 0.597796 -0.267876
C45   C     C_R   0.336105 0.749179 0.998808 0.892606
C46   C     C_R   0.663896 0.749183 0.001178 0.894373
C47   C     C_R   0.836117 0.249176 0.998820 0.894005
C48   C     C_R   0.163895 0.249195 0.001167 0.893401
C49   C     C_3   0.321623 0.822748 0.278761 -0.517347
C50   C     C_3   0.553862 0.804731 0.679316 -0.479471
C51   C     C_3   0.825973 0.322375 0.284291 -0.506563
C52   C     C_3   0.083139 0.299791 0.667673 -0.470471
C53   C     C_R   0.866224 0.760552 0.918632 -0.066420
C54   C     C_R   0.133242 0.743611 0.082973 -0.063741
C55   C     C_R   0.366138 0.259615 0.918282 -0.064474
C56   C     C_R   0.633505 0.244285 0.083332 -0.062799
C57   C     C_R   0.882623 0.752098 0.996888 -0.102580
C58   C     C_R   0.117373 0.752111 0.004753 -0.122122
C59   C     C_R   0.382668 0.252074 0.996882 -0.104412
C60   C     C_R   0.617455 0.252154 0.004821 -0.119209
C61   C     C_R   0.944309 0.745228 0.075392 -0.278456
C62   C     C_R   0.055937 0.761771 0.927332 -0.272164
C63   C     C_R   0.444516 0.246078 0.075702 -0.277073
C64   C     C_R   0.555879 0.261167 0.927102 -0.270067
C65   C     C_R   0.991154 0.745475 0.077465 0.127886
C66   C     C_R   0.009055 0.762117 0.925356 0.122045
C67   C     C_R   0.491380 0.246300 0.077793 0.127188
C68   C     C_R   0.508998 0.261447 0.925104 0.122453
C69   C     C_R   0.976130 0.753563 0.999950 0.051936
C70   C     C_R   0.023890 0.753540 0.002531 0.054527
C71   C     C_R   0.476217 0.253579 0.999981 0.052414
C72   C     C_R   0.523987 0.253578 0.002583 0.054642
C73   C     C_R   0.913468 0.761518 0.919992 0.070398
C74   C     C_R   0.086259 0.744679 0.082082 0.068054
C75   C     C_R   0.413401 0.260681 0.919690 0.070001
C76   C     C_R   0.586520 0.245432 0.082449 0.067538
C77   C     C_R   0.052735 0.737431 0.156084 -0.212198
C78   C     C_R   0.947414 0.770539 0.846827 -0.212592
C79   C     C_R   0.553121 0.239021 0.156724 -0.209842
C80   C     C_R   0.447209 0.269091 0.846253 -0.211283
C81   C     C_R   0.099858 0.736875 0.158513 -0.208962
C82   C     C_R   0.899978 0.770130 0.843936 -0.203791
C83   C     C_R   0.600261 0.238404 0.159167 -0.207440
C84   C     C_R   0.399766 0.268567 0.843328 -0.203243
C85   C     C_R   0.133437 0.621246 0.819022 0.130965
C86   C     C_R   0.866985 0.621434 0.181320 0.129072
C87   C     C_R   0.668011 0.113207 0.833396 0.152012
C88   C     C_R   0.364222 0.120270 0.179238 0.132073
C89   C     C_R   0.190141 0.690020 0.880017 0.883084
C90   C     C_R   0.809864 0.690030 0.119965 0.881517
C91   C     C_R   0.689833 0.189916 0.879652 0.887330
C92   C     C_R   0.309846 0.190015 0.120004 0.881721
C93   C     C_R   0.158277 0.657437 0.814184 -0.091156
C94   C     C_R   0.841737 0.657456 0.185803 -0.090925
C95   C     C_R   0.656549 0.157317 0.812733 -0.118178
C96   C     C_R   0.341789 0.157428 0.185953 -0.093700
C97   C     C_R   0.150439 0.661606 0.741862 -0.209042
C98   C     C_R   0.849187 0.661480 0.257792 -0.208001
C99   C     C_R   0.610898 0.169219 0.723369 -0.204800
C100  C     C_R   0.352199 0.162573 0.260329 -0.207284
C101  C     C_R   0.118398 0.629066 0.677372 -0.212565
C102  C     C_R   0.881253 0.628938 0.322330 -0.212708
C103  C     C_R   0.578628 0.136783 0.658838 -0.224342
C104  C     C_R   0.384286 0.130045 0.324894 -0.216659
C105  C     C_R   0.092709 0.593281 0.684239 -0.094729
C106  C     C_R   0.907326 0.593313 0.315812 -0.095581
C107  C     C_R   0.592159 0.092678 0.683780 -0.064607
C108  C     C_R   0.407407 0.093265 0.315921 -0.089211
C109  C     C_R   0.100886 0.590946 0.755810 0.130534
C110  C     C_R   0.899553 0.591138 0.244587 0.133198
C111  C     C_R   0.637149 0.082257 0.771440 0.113149
C112  C     C_R   0.396799 0.089934 0.242429 0.132919
C113  C     C_3   0.087727 0.564394 0.799235 -0.488371
C114  C     C_3   0.913173 0.564751 0.201594 -0.489909
C115  C     C_3   0.669706 0.045382 0.834852 -0.535664
C116  C     C_3   0.406724 0.062028 0.196523 -0.497984
C117  C     C_3   0.124590 0.599510 0.871476 -0.482447
C118  C     C_3   0.876279 0.599875 0.129267 -0.483566
C119  C     C_3   0.705304 0.080845 0.906374 -0.435731
C120  C     C_3   0.369837 0.097171 0.124234 -0.477316
C121  C     C_R   0.940047 0.560003 0.380270 0.876849
C122  C     C_R   0.059973 0.559984 0.619770 0.874000
C123  C     C_R   0.440052 0.059971 0.380274 0.872051
C124  C     C_R   0.560133 0.059511 0.620146 0.874130
C125  C     C_R   0.439325 0.940598 0.378839 0.874017
C126  C     C_R   0.559957 0.939949 0.619812 0.873073
C127  C     C_R   0.939545 0.440105 0.379345 0.867374
C128  C     C_R   0.059854 0.439908 0.619370 0.872327
C129  C     C_R   0.163937 0.750781 0.001665 0.888747
C130  C     C_R   0.836029 0.750668 0.998868 0.894034
C131  C     C_R   0.663979 0.250806 0.001712 0.894097
C132  C     C_R   0.336044 0.250664 0.998865 0.898382
C133  C     C_R   0.594264 0.786447 0.004253 -0.274669
C134  C     C_R   0.405692 0.786447 0.995654 -0.273109
C135  C     C_R   0.094108 0.286475 0.003903 -0.274522
C136  C     C_R   0.905524 0.286447 0.995287 -0.274831
C137  C     C_R   0.617375 0.747131 0.003809 -0.112201
C138  C     C_R   0.382609 0.747129 0.996147 -0.109584
C139  C     C_R   0.117404 0.247155 0.003838 -0.110677
C140  C     C_R   0.882678 0.247128 0.996252 -0.109443
C141  C     C_R   0.595492 0.706597 0.004468 -0.066292
C142  C     C_R   0.404487 0.706596 0.995477 -0.065658
C143  C     C_R   0.095770 0.206626 0.004975 -0.066112
C144  C     C_R   0.904898 0.206597 0.996225 -0.061728
C145  C     C_R   0.547911 0.705981 0.002410 0.071566
C146  C     C_R   0.452047 0.705981 0.997491 0.071685
C147  C     C_R   0.048251 0.206007 0.003036 0.071806
C148  C     C_R   0.952452 0.205994 0.998236 0.070985
C149  C     C_R   0.523833 0.746057 0.001157 0.053074
C150  C     C_R   0.476109 0.746057 0.998716 0.052862
C151  C     C_R   0.023948 0.246080 0.001342 0.053286
C152  C     C_R   0.976238 0.246073 0.998927 0.053094
H1    H     H_    0.611947 0.817273 0.003990 0.156289
H2    H     H_    0.388009 0.817273 0.995922 0.153088
H3    H     H_    0.111621 0.317298 0.003295 0.154490
H4    H     H_    0.887633 0.317273 0.995143 0.152648
H5    H     H_    0.270880 0.826816 0.218923 0.197734
H6    H     H_    0.581195 0.781900 0.676609 0.223235
H7    H     H_    0.777517 0.316186 0.252793 0.208743
H8    H     H_    0.102817 0.273592 0.657088 0.215954
H9    H     H_    0.955524 0.738879 0.134769 0.148757
H10   H     H_    0.044313 0.768020 0.867653 0.163775
H11   H     H_    0.455858 0.240380 0.135336 0.149940
H12   H     H_    0.544166 0.266910 0.867227 0.162522
H13   H     H_    0.064448 0.731233 0.215786 0.148070
H14   H     H_    0.935771 0.777151 0.787295 0.149382
H15   H     H_    0.564947 0.233444 0.216662 0.149357
H16   H     H_    0.435457 0.275153 0.786492 0.149037
H17   H     H_    0.146863 0.730199 0.220738 0.159744
H18   H     H_    0.852813 0.776489 0.781736 0.162343
H19   H     H_    0.647393 0.232315 0.221622 0.160859
H20   H     H_    0.352486 0.274290 0.780865 0.161998
H21   H     H_    0.169505 0.689395 0.735927 0.160532
H22   H     H_    0.829801 0.689153 0.263421 0.161019
H23   H     H_    0.599980 0.203168 0.703303 0.174309
H24   H     H_    0.335079 0.191121 0.267838 0.162154
H25   H     H_    0.112906 0.632124 0.622170 0.160595
H26   H     H_    0.886451 0.631869 0.377286 0.161681
H27   H     H_    0.543517 0.145965 0.590387 0.142472
H28   H     H_    0.391785 0.133842 0.381714 0.157383
H29   H     H_    0.037165 0.563670 0.760914 0.214550
H30   H     H_    0.963799 0.564180 0.240238 0.211499
H31   H     H_    0.637575 0.025605 0.832336 0.211466
H32   H     H_    0.456749 0.060057 0.232448 0.212925
H33   H     H_    0.111347 0.532044 0.821248 0.195254
H34   H     H_    0.889765 0.532327 0.179586 0.202499
H35   H     H_    0.699642 0.026504 0.831888 0.207552
H36   H     H_    0.381948 0.030196 0.175664 0.198760
H37   H     H_    0.095224 0.619281 0.874453 0.201322
H38   H     H_    0.905686 0.619800 0.126555 0.199364
H39   H     H_    0.693782 0.081495 0.945279 0.203718
H40   H     H_    0.398664 0.115713 0.118812 0.199587
H41   H     H_    0.169291 0.587372 0.935367 0.215945
H42   H     H_    0.831755 0.587684 0.065277 0.217402
H43   H     H_    0.755878 0.082313 0.944976 0.220909
H44   H     H_    0.323948 0.085554 0.061399 0.216833
H45   H     H_    0.540649 0.635117 0.001963 0.161851
H46   H     H_    0.459315 0.635117 0.997946 0.161839
H47   H     H_    0.041453 0.135144 0.003498 0.161771
H48   H     H_    0.960192 0.135128 0.999607 0.161295
H49   H     H_    0.458398 0.856863 0.997696 0.147122
H50   H     H_    0.541514 0.856863 0.002129 0.148089
H51   H     H_    0.957841 0.356872 0.996558 0.146935
H52   H     H_    0.040969 0.356887 0.001011 0.147509
H53   H     H_    0.359543 0.883616 0.119825 0.155835
H54   H     H_    0.738304 0.885957 0.885395 0.160500
H55   H     H_    0.890306 0.367605 0.149976 0.141827
H56   H     H_    0.186634 0.396741 0.903223 0.170467
H57   H     H_    0.416049 0.940639 0.233364 0.149319
H58   H     H_    0.681440 0.942693 0.771335 0.151563
H59   H     H_    0.946185 0.425185 0.261949 0.165230
H60   H     H_    0.128587 0.452928 0.789010 0.137810
H61   H     H_    0.380519 0.848499 0.413175 0.146304
H62   H     H_    0.468948 0.843909 0.575710 0.148027
H63   H     H_    0.908584 0.349431 0.414909 0.143725
H64   H     H_    0.001664 0.343780 0.574075 0.150171
H65   H     H_    0.335025 0.789987 0.309804 0.219418
H66   H     H_    0.525264 0.788545 0.687482 0.191788
H67   H     H_    0.854724 0.292516 0.305499 0.221215
H68   H     H_    0.058246 0.287768 0.685055 0.196713
O1    O     O_R   0.321640 0.769930 0.143350 -0.612141
O2    O     O_R   0.678360 0.769930 0.856650 -0.617835
O3    O     O_R   0.821640 0.269930 0.143350 -0.616262
O4    O     O_R   0.178360 0.269930 0.856650 -0.618348
O5    O     O_R   0.916890 0.545840 0.408340 -0.618533
O6    O     O_R   0.083110 0.545840 0.591660 -0.620932
O7    O     O_R   0.416890 0.045840 0.408340 -0.617605
O8    O     O_R   0.583110 0.045840 0.591660 -0.620558
O9    O     O_R   0.491470 0.954180 0.408370 -0.616180
O10   O     O_R   0.508530 0.954180 0.591630 -0.627455
O11   O     O_R   0.991470 0.454180 0.408370 -0.621703
O12   O     O_R   0.008530 0.454180 0.591630 -0.624136
O13   O     O_R   0.416850 0.954230 0.408340 -0.619406
O14   O     O_R   0.583150 0.954230 0.591660 -0.613266
O15   O     O_R   0.916850 0.454230 0.408340 -0.618171
O16   O     O_R   0.083150 0.454230 0.591660 -0.610542
O17   O     O_R   0.269930 0.821650 0.039910 -0.625818
O18   O     O_R   0.730070 0.821650 0.960090 -0.629624
O19   O     O_R   0.769930 0.321650 0.039910 -0.623646
O20   O     O_R   0.230070 0.321650 0.960090 -0.630270
O21   O     O_R   0.341900 0.724100 0.051720 -0.611175
O22   O     O_R   0.658100 0.724100 0.948280 -0.614406
O23   O     O_R   0.841900 0.224100 0.051720 -0.612506
O24   O     O_R   0.158100 0.224100 0.948280 -0.614335
O25   O     O_R   0.290200 0.775820 0.948280 -0.628644
O26   O     O_R   0.709800 0.775820 0.051720 -0.624773
O27   O     O_R   0.790200 0.275820 0.948280 -0.625545
O28   O     O_R   0.209800 0.275820 0.051720 -0.626859
O29   O     O_R   0.230030 0.678320 0.960120 -0.614802
O30   O     O_R   0.769970 0.678320 0.039880 -0.614473
O31   O     O_R   0.730030 0.178320 0.960120 -0.618943
O32   O     O_R   0.269970 0.178320 0.039880 -0.614849
O33   O     O_R   0.178330 0.730040 0.856690 -0.628101
O34   O     O_R   0.821670 0.730040 0.143310 -0.628405
O35   O     O_R   0.678330 0.230040 0.856690 -0.632055
O36   O     O_R   0.321670 0.230040 0.143310 -0.628980
O37   O     O_R   0.209770 0.724140 0.051760 -0.614078
O38   O     O_R   0.790230 0.724140 0.948240 -0.616780
O39   O     O_R   0.709770 0.224140 0.051760 -0.613116
O40   O     O_R   0.290230 0.224140 0.948240 -0.617503
O41   O     O_R   0.158070 0.775860 0.948320 -0.623893
O42   O     O_R   0.841930 0.775860 0.051680 -0.623351
O43   O     O_R   0.658070 0.275860 0.948320 -0.625264
O44   O     O_R   0.341930 0.275860 0.051680 -0.619625
O45   O     O_R   0.991510 0.545790 0.408370 -0.626648
O46   O     O_R   0.008490 0.545790 0.591630 -0.623749
O47   O     O_R   0.491510 0.045790 0.408370 -0.625359
O48   O     O_R   0.508490 0.045790 0.591630 -0.621907
Zn1   Zn    Zn3+2 0.284510 0.715450 0.069080 0.991054
Zn2   Zn    Zn3+2 0.715490 0.715450 0.930920 0.979378
Zn3   Zn    Zn3+2 0.784510 0.215450 0.069080 0.985827
Zn4   Zn    Zn3+2 0.215490 0.215450 0.930920 0.977809
Zn5   Zn    Zn3+2 0.215460 0.784520 0.930950 0.956480
Zn6   Zn    Zn3+2 0.784540 0.784520 0.069050 0.958302
Zn7   Zn    Zn3+2 0.715460 0.284520 0.930950 0.957629
Zn8   Zn    Zn3+2 0.284540 0.284520 0.069050 0.957504
Zn9   Zn    Zn3+2 0.549780 0.999980 0.499990 0.968482
Zn10  Zn    Zn3+2 0.450220 0.999980 0.500010 0.970732
Zn11  Zn    Zn3+2 0.049780 0.499980 0.499990 0.964484
Zn12  Zn    Zn3+2 0.950220 0.499980 0.500010 0.969758
C153  C     C_1   0.801619 0.769542 0.838759 0.154939
N1    N     N_1   0.750118 0.776751 0.775229 -0.195944
C154  C     C_1   0.197262 0.734081 0.163812 0.175231
N2    N     N_1   0.248122 0.726157 0.228253 -0.217569
C155  C     C_1   0.301334 0.267502 0.837853 0.161717
N3    N     N_1   0.249685 0.273806 0.773820 -0.206732
C156  C     C_1   0.697716 0.235349 0.164390 0.169492
N4    N     N_1   0.748756 0.227939 0.228978 -0.212194
C157  C     C_1   0.623543 0.666123 0.010490 0.167153
N5    N     N_1   0.646000 0.633914 0.015422 -0.194261
C158  C     C_1   0.376456 0.666126 0.989500 0.167382
N6    N     N_1   0.354016 0.633921 0.984603 -0.194948
C159  C     C_1   0.124009 0.166172 0.011342 0.167898
N7    N     N_1   0.146614 0.133981 0.016548 -0.193951
C160  C     C_1   0.877281 0.166081 0.990985 0.172995
N8    N     N_1   0.855217 0.133819 0.986706 -0.217859
C161  C     C_1   0.307297 0.894760 0.316806 0.263568
N9    N     N_1   0.272289 0.922240 0.294609 -0.202021
C162  C     C_1   0.525667 0.836909 0.548558 0.205741
N10   N     N_1   0.531677 0.834459 0.501250 -0.194673
C163  C     C_1   0.823084 0.377836 0.366688 0.249236
N11   N     N_1   0.793853 0.393283 0.377311 -0.207493
C164  C     C_1   0.044277 0.328394 0.527334 0.215789
N12   N     N_1   0.041693 0.323101 0.471686 -0.194346

loop_
_geom_bond_atom_site_label_1
_geom_bond_atom_site_label_2
_ccdc_geom_bond_type
C128  O16   A    
C99   C103  A    
C133  C137  A    
C55   C59   A    
O16   Zn11  S    
C142  C146  A    
C158  N6    T    
C64   H12   S    
C47   O27   A    
O34   Zn6   S    
C163  N11   T    
C135  C139  A    
C90   O30   A    
C120  H44   S    
C86   C110  A    
C20   C40   A    
C95   C99   A    
C123  O7    A    
C42   C162  S    
C29   C33   A    
C100  C104  A    
C121  O5    A    
C1    O1    A    
C54   C74   A    
C83   H19   S    
C70   C74   A    
C81   H17   S    
C136  C140  A    
C128  O12   A    
O24   Zn4   S    
C26   H54   S    
C107  C124  S    
C76   C83   A    
C41   C49   S    
C25   C29   A    
O42   Zn6   S    
C97   H21   S    
C27   C31   A    
C28   C32   A    
C67   C79   A    
C121  O45   A    
C30   C34   A    
C98   C102  A    
C124  O48   A    
C17   C21   A    
C49   H65   S    
C19   C23   A    
O3    Zn3   S    
O4    Zn4   S    
C41   H61   S    
C78   C82   A    
C164  N12   T    
C68   C72   A    
C33   C125  S    
C35   C127  S    
C28   H56   S    
C74   C81   A    
O27   Zn7   S    
C44   H64   S    
C127  O15   A    
O45   Zn11  S    
C15   H51   S    
C57   C61   A    
C116  H32   S    
C59   C63   A    
C44   C164  S    
O11   Zn11  S    
C60   C64   A    
C1    O17   A    
O12   Zn12  S    
C18   C38   A    
C48   O28   A    
C2    C22   S    
C66   C70   A    
C91   O35   A    
C31   C35   A    
O9    Zn9   S    
O5    Zn12  S    
C50   H66   S    
C119  H43   S    
C69   C70   A    
C117  H41   S    
C61   C65   A    
O36   Zn8   S    
C103  C107  A    
C79   H15   S    
C16   H52   S    
C80   H16   S    
C52   H8    S    
C47   O23   A    
O19   Zn7   S    
C2    O2    A    
C43   C51   S    
C5    C149  A    
C132  O40   A    
C62   H10   S    
C50   H6    S    
C5    C133  A    
O44   Zn8   S    
O10   Zn10  S    
C32   C36   A    
C8    C152  A    
C125  O9    A    
C65   C69   A    
C75   C84   A    
C58   C129  S    
C77   H13   S    
C92   C96   S    
C85   C93   A    
C113  H29   S    
C87   C95   A    
C47   C140  S    
C9    C10   A    
C110  C114  S    
C103  H27   S    
C55   C75   A    
C44   C52   S    
C90   O34   A    
C146  C150  A    
C13   C14   A    
C49   H5    S    
C36   C128  S    
C118  H42   S    
C130  O38   A    
C11   H47   S    
C9    H45   S    
C131  O43   A    
C92   O32   A    
C62   C66   A    
C80   C84   A    
C57   C130  S    
C46   O26   A    
C17   C49   S    
C143  C159  S    
C51   H67   S    
C116  C120  S    
C6    C150  A    
C147  C151  A    
C87   C119  S    
C159  N7    T    
C115  H35   S    
C113  H33   S    
C157  N5    T    
C12   H48   S    
C117  H37   S    
C10   C146  A    
C46   C137  S    
C113  C117  S    
C42   C50   S    
C26   C30   A    
C115  C119  S    
C102  H26   S    
O37   Zn1   S    
C93   C97   A    
C112  C116  S    
O39   Zn3   S    
C122  O46   A    
C54   C154  S    
C105  C109  A    
C3    O3    A    
C18   C22   A    
C107  C111  A    
O17   Zn5   S    
C24   C28   A    
C84   H20   S    
C29   H57   S    
C141  C145  A    
O43   Zn7   S    
C71   C72   A    
C14   H50   S    
C45   C138  S    
O21   Zn1   S    
C105  C122  S    
O6    Zn11  S    
C136  H4    S    
C37   C41   S    
C126  O14   A    
O7    Zn10  S    
C91   C95   S    
C40   C44   S    
C56   C60   A    
C154  N2    T    
C58   C62   A    
C88   C96   A    
C8    C136  A    
C48   O24   A    
C91   O31   A    
O13   Zn10  S    
C89   O29   A    
C85   C109  A    
C54   C58   A    
C4    C24   S    
C25   H53   S    
C87   C111  A    
C94   C98   A    
C122  O6    A    
O48   Zn10  S    
C55   C155  S    
C21   C25   A    
C41   C161  S    
C100  H24   S    
C151  C152  A    
C69   C73   A    
C88   C120  S    
C63   H11   S    
C72   C76   A    
C132  O44   A    
C129  O41   A    
C60   C131  S    
C90   C94   S    
C66   C78   A    
C59   C132  S    
C78   H14   S    
O29   Zn1   S    
C65   C77   A    
C138  C142  A    
C45   O25   A    
C160  N8    T    
C53   C57   A    
C114  H30   S    
C33   C37   A    
C108  C112  A    
O35   Zn7   S    
O40   Zn4   S    
C35   C39   A    
C162  N10   T    
C134  C138  A    
C155  N3    T    
C43   C163  S    
C156  N4    T    
O26   Zn6   S    
C34   C126  S    
C4    O20   A    
C86   C118  S    
C53   C153  S    
C5    C14   A    
C130  O42   A    
C7    C151  A    
C92   O36   A    
C7    C16   A    
C8    C15   A    
C133  H1    S    
C46   O22   A    
C108  C123  S    
C64   C68   A    
C73   C82   A    
C104  C108  A    
C18   C50   S    
C137  C141  A    
C140  C144  A    
C115  H31   S    
C38   C42   S    
C129  O37   A    
C114  H34   S    
O33   Zn5   S    
C149  C150  A    
C79   C83   A    
C118  H38   S    
C11   C147  A    
C134  H2    S    
C98   H22   S    
C9    C145  A    
C67   C71   A    
O38   Zn2   S    
O23   Zn3   S    
C101  H25   S    
C88   C112  A    
C123  O47   A    
C6    C134  A    
C77   C81   A    
C22   C26   A    
O18   Zn6   S    
C145  C149  A    
C3    O19   A    
C68   C80   A    
C82   H18   S    
C1    C21   S    
C56   C76   A    
C161  N9    T    
C3    C23   S    
C144  C148  A    
C43   H63   S    
C143  C147  A    
C116  H36   S    
C61   H9    S    
O15   Zn12  S    
O22   Zn2   S    
C126  O10   A    
C119  H39   S    
O28   Zn8   S    
C120  H40   S    
C32   H60   S    
O41   Zn5   S    
C144  C160  S    
C15   C16   A    
C96   C100  A    
C135  H3    S    
O25   Zn5   S    
C86   C94   A    
C20   C24   A    
C23   C27   A    
C109  C113  S    
O14   Zn9   S    
C89   O33   A    
C89   C93   S    
C139  C143  A    
C10   H46   S    
C124  O8    A    
C101  C105  A    
C63   C67   A    
C148  C152  A    
C52   H68   S    
C36   C40   A    
O31   Zn3   S    
O32   Zn4   S    
C39   C43   S    
O46   Zn12  S    
C153  N1    T    
C4    O4    A    
O47   Zn9   S    
O20   Zn8   S    
C85   C117  S    
C7    C135  A    
C42   H62   S    
C127  O11   A    
C99   H23   S    
C17   C37   A    
C114  C118  S    
C19   C39   A    
C131  O39   A    
O30   Zn2   S    
C45   O21   A    
O1    Zn1   S    
C106  C110  A    
C142  C158  S    
C48   C139  S    
C34   C38   A    
C53   C73   A    
C30   H58   S    
C11   C12   A    
C141  C157  S    
O8    Zn9   S    
C12   C148  A    
C20   C52   S    
C6    C13   A    
C71   C75   A    
C104  H28   S    
C106  C121  S    
C51   H7    S    
C13   H49   S    
C102  C106  A    
C56   C156  S    
C27   H55   S    
C125  O13   A    
O2    Zn2   S    
C19   C51   S    
C31   H59   S    
C111  C115  S    
C2    O18   A    
C97   C101  A    
