data_mof_unit_68052.cif
_audit_creation_date              2012-12-11T14:39:20-0500
_audit_creation_method            fapswitch 2.2
_symmetry_space_group_name_H-M    P1
_symmetry_Int_Tables_number       1
_space_group_crystal_system       triclinic
_cell_length_a                    7.274226
_cell_length_b                    13.998551
_cell_length_c                    16.635193
_cell_angle_alpha                 90.000225
_cell_angle_beta                  97.976189
_cell_angle_gamma                 89.999454
_cell_volume                      1677.55133968

loop_
_atom_site_label
_atom_site_type_symbol
_atom_type_description
_atom_site_fract_x
_atom_site_fract_y
_atom_site_fract_z
_atom_type_partial_charge
O1    O     O_R   0.525340 0.338340 0.164530 -0.540536
O2    O     O_R   0.474660 0.661660 0.835470 -0.551937
O3    O     O_R   0.974660 0.838340 0.835470 -0.540537
O4    O     O_R   0.025340 0.161660 0.164530 -0.551953
O5    O     O_R   0.253520 0.352000 0.336710 -0.572444
O6    O     O_R   0.746480 0.648000 0.663290 -0.543651
O7    O     O_R   0.246480 0.852000 0.663290 -0.572450
O8    O     O_R   0.753520 0.148000 0.336710 -0.543639
O9    O     O_R   0.083330 0.168380 0.337300 -0.545778
O10   O     O_R   0.916670 0.831620 0.662700 -0.510588
O11   O     O_R   0.416670 0.668380 0.662700 -0.545769
O12   O     O_R   0.583330 0.331620 0.337300 -0.510589
C1    C     C_R   0.434767 0.369183 0.363740 0.739590
C2    C     C_R   0.566923 0.633278 0.635054 0.800997
C3    C     C_R   0.065232 0.869184 0.636260 0.739570
C4    C     C_R   0.933076 0.133284 0.364950 0.800990
O13   O     O_R   0.195840 0.349670 0.165140 -0.528037
O14   O     O_R   0.804160 0.650330 0.834860 -0.527606
O15   O     O_R   0.304160 0.849670 0.834860 -0.528023
O16   O     O_R   0.695840 0.150330 0.165140 -0.527582
C5    C     C_R   0.357145 0.373668 0.139111 0.665121
C6    C     C_R   0.641496 0.624475 0.859369 0.723374
C7    C     C_R   0.142854 0.873671 0.860886 0.665115
C8    C     C_R   0.858506 0.124469 0.140633 0.723335
O17   O     O_3   0.387830 0.193120 0.250910 -0.384237
O18   O     O_3   0.612170 0.806880 0.749090 -0.377065
O19   O     O_3   0.112170 0.693120 0.749090 -0.384230
O20   O     O_3   0.887830 0.306880 0.250910 -0.377070
V1    V     V_3+5 0.113010 0.264540 0.250910 1.370482
V2    V     V_3+5 0.886990 0.735460 0.749090 1.418697
V3    V     V_3+5 0.386990 0.764540 0.749090 1.370535
V4    V     V_3+5 0.613010 0.235460 0.250910 1.418693
C9    C     C_R   0.956839 0.199394 0.537281 0.067732
C10   C     C_R   0.062699 0.802007 0.463968 0.074594
C11   C     C_R   0.543144 0.699390 0.462725 0.067742
C12   C     C_R   0.437291 0.302001 0.536027 0.074584
C13   C     C_R   0.933381 0.223657 0.616763 -0.229565
C14   C     C_R   0.109190 0.780286 0.387046 -0.243169
C15   C     C_R   0.566580 0.723654 0.383242 -0.229593
C16   C     C_R   0.390779 0.280277 0.612944 -0.243163
C17   C     C_R   0.901339 0.154335 0.672199 0.402587
C18   C     C_R   0.078464 0.846163 0.324024 0.426515
C19   C     C_R   0.598625 0.654335 0.327803 0.402582
C20   C     C_R   0.421471 0.346153 0.675968 0.426533
C21   C     C_R   0.898920 0.058466 0.649997 0.328394
C22   C     C_R   0.997668 0.933390 0.338273 0.362947
C23   C     C_R   0.601059 0.558465 0.350004 0.328401
C24   C     C_R   0.502260 0.433385 0.661727 0.362949
C25   C     C_R   0.963094 0.029614 0.577066 -0.130702
C26   C     C_R   0.998721 0.967492 0.418953 -0.132128
C27   C     C_R   0.536898 0.529611 0.422938 -0.130704
C28   C     C_R   0.501253 0.467486 0.581050 -0.132130
C29   C     C_R   0.965472 0.099638 0.514903 -0.022531
C30   C     C_R   0.029899 0.900285 0.484201 -0.009257
C31   C     C_R   0.534521 0.599633 0.485102 -0.022532
C32   C     C_R   0.470090 0.400280 0.515800 -0.009258
C33   C     C_R   0.017890 0.933238 0.564632 -0.088990
C34   C     C_R   0.969465 0.066438 0.434205 -0.099669
C35   C     C_R   0.482107 0.433236 0.435369 -0.088994
C36   C     C_R   0.530530 0.566431 0.565799 -0.099650
H1    H     H_    0.927500 0.297685 0.634776 0.146208
H2    H     H_    0.161643 0.710098 0.375321 0.140357
H3    H     H_    0.572441 0.797683 0.365230 0.146195
H4    H     H_    0.338328 0.210088 0.624664 0.140361
C37   C     C_2   0.154484 0.943301 0.930020 0.258535
C38   C     C_2   0.854075 0.046534 0.078203 0.263264
C39   C     C_2   0.345523 0.443289 0.069972 0.258552
C40   C     C_2   0.645937 0.546546 0.921802 0.263179
C41   C     C_2   0.000615 0.976982 0.961071 0.035471
C42   C     C_2   0.011065 0.016697 0.047232 0.047656
C43   C     C_2   0.499401 0.476966 0.038923 0.035560
C44   C     C_2   0.488953 0.516697 0.952768 0.047639
O21   O     O_3   0.137811 0.831152 0.249432 -0.565261
C45   C     C_3   0.048744 0.751495 0.209875 -0.294927
H5    H     H_    0.896969 0.760789 0.200885 0.203517
H6    H     H_    0.089289 0.683669 0.242015 0.134472
H7    H     H_    0.090898 0.746776 0.148492 0.133504
O22   O     O_3   0.841731 0.179826 0.744203 -0.564050
C46   C     C_3   0.997309 0.201542 0.801104 -0.358057
H8    H     H_    0.104637 0.144909 0.803231 0.142610
H9    H     H_    0.952907 0.206144 0.862116 0.149988
H10   H     H_    0.055571 0.271939 0.787617 0.195304
O23   O     O_3   0.362107 0.331136 0.750555 -0.565263
C47   C     C_3   0.451183 0.251481 0.790111 -0.294970
H11   H     H_    0.602959 0.260782 0.799109 0.203512
H12   H     H_    0.410653 0.183655 0.757967 0.134488
H13   H     H_    0.409018 0.246759 0.851492 0.133494
O24   O     O_3   0.658222 0.679828 0.255798 -0.564047
C48   C     C_3   0.502639 0.701548 0.198900 -0.358048
H14   H     H_    0.395307 0.644920 0.196774 0.142592
H15   H     H_    0.547035 0.706150 0.137886 0.149974
H16   H     H_    0.444381 0.771945 0.212390 0.195317
C49   C     C_3   0.974771 0.283986 0.482161 -0.733459
H17   H     H_    0.983811 0.353146 0.515291 0.187321
H18   H     H_    0.101331 0.278961 0.453935 0.222912
H19   H     H_    0.854642 0.290040 0.434583 0.211996
C50   C     C_3   0.036180 0.716532 0.517042 -0.714869
H20   H     H_    0.043723 0.647892 0.484109 0.181774
H21   H     H_    0.141061 0.712076 0.570950 0.216145
H22   H     H_    0.898007 0.718714 0.536351 0.215301
C51   C     C_3   0.525222 0.783982 0.517847 -0.733447
H23   H     H_    0.516187 0.853143 0.484719 0.187309
H24   H     H_    0.398661 0.778962 0.546073 0.222915
H25   H     H_    0.645352 0.790032 0.565424 0.212001
C52   C     C_3   0.463819 0.216529 0.482952 -0.714880
H26   H     H_    0.456286 0.147888 0.515884 0.181771
H27   H     H_    0.358936 0.212073 0.429045 0.216150
H28   H     H_    0.601991 0.218714 0.463642 0.215303
O25   O     O_3   0.808429 0.995691 0.694843 -0.548378
C53   C     C_3   0.614986 0.003357 0.669256 -0.110767
H29   H     H_    0.574786 0.959461 0.614072 0.124385
H30   H     H_    0.566035 0.078027 0.657276 0.093435
H31   H     H_    0.539925 0.976886 0.718334 0.161917
O26   O     O_3   0.898344 0.978925 0.272634 -0.566559
C54   C     C_3   0.710658 0.950538 0.269454 -0.258766
H32   H     H_    0.624091 0.989409 0.220142 0.191140
H33   H     H_    0.653734 0.967069 0.326669 0.136717
H34   H     H_    0.695215 0.873331 0.255861 0.143183
O27   O     O_3   0.691550 0.495694 0.305155 -0.548375
C55   C     C_3   0.884994 0.503360 0.330740 -0.110767
H35   H     H_    0.925199 0.459466 0.385923 0.124386
H36   H     H_    0.933941 0.578030 0.342718 0.093437
H37   H     H_    0.960054 0.476889 0.281661 0.161913
O28   O     O_3   0.601530 0.478926 0.727376 -0.566555
C56   C     C_3   0.789209 0.450511 0.730605 -0.258735
H38   H     H_    0.846195 0.466987 0.673393 0.136662
H39   H     H_    0.804614 0.373314 0.744247 0.143227
H40   H     H_    0.875754 0.489414 0.779901 0.191125
C57   C     C_3   0.190377 0.005688 0.105387 -0.619726
H41   H     H_    0.250601 0.934063 0.097847 0.212340
H42   H     H_    0.290913 0.062407 0.094875 0.233266
H43   H     H_    0.167572 0.007289 0.169943 0.224580
C58   C     C_3   0.827981 0.998094 0.901444 -0.679307
H44   H     H_    0.764200 0.066297 0.916793 0.198427
H45   H     H_    0.864889 0.010119 0.840161 0.243861
H46   H     H_    0.725274 0.939373 0.898675 0.242329
C59   C     C_3   0.309653 0.505676 0.894608 -0.619807
H47   H     H_    0.249462 0.434044 0.902147 0.212351
H48   H     H_    0.209094 0.562385 0.905118 0.233285
H49   H     H_    0.332465 0.507281 0.830053 0.224628
C60   C     C_3   0.672017 0.498083 0.098558 -0.679302
H50   H     H_    0.735839 0.566271 0.083200 0.198452
H51   H     H_    0.635075 0.510142 0.159832 0.243842
H52   H     H_    0.774696 0.439347 0.101356 0.242263
O29   O     O_3   0.683074 0.004634 0.052744 -0.547683
C61   C     C_3   0.690044 0.905482 0.070262 -0.157754
H53   H     H_    0.553372 0.882454 0.085390 0.149339
H54   H     H_    0.795522 0.886408 0.122484 0.137893
H55   H     H_    0.718062 0.863601 0.016827 0.132724
O30   O     O_3   0.329567 0.975367 0.961319 -0.535238
C62   C     C_3   0.354327 0.065876 0.926886 -0.194891
H56   H     H_    0.241372 0.116556 0.936238 0.103068
H57   H     H_    0.368508 0.058424 0.861496 0.105895
H58   H     H_    0.482366 0.099477 0.957506 0.185753
O31   O     O_3   0.816943 0.504652 0.947259 -0.547712
C63   C     C_3   0.810044 0.405504 0.929717 -0.157375
H59   H     H_    0.946445 0.382624 0.914161 0.148964
H60   H     H_    0.703913 0.386320 0.877753 0.137689
H61   H     H_    0.783080 0.363581 0.983299 0.132957
O32   O     O_3   0.170443 0.475360 0.038671 -0.535213
C64   C     C_3   0.145687 0.565869 0.073108 -0.194894
H62   H     H_    0.258654 0.616545 0.063764 0.103056
H63   H     H_    0.131489 0.558414 0.138496 0.105892
H64   H     H_    0.017662 0.599480 0.042485 0.185751

loop_
_geom_bond_atom_site_label_1
_geom_bond_atom_site_label_2
_ccdc_geom_bond_type
O1    C5    A    
C49   H17   S    
C29   C34   A    
O13   V1    S    
O21   C45   S    
C52   H26   S    
O3    C7    A    
C47   H13   S    
C20   O23   S    
O15   V3    S    
C64   H64   S    
O29   C61   S    
C38   C42   D    
C52   H27   S    
C51   H23   S    
C45   H6    S    
C19   O24   S    
O20   V1    S    
O9    C4    A    
C47   H12   S    
C14   C18   A    
O10   C3    A    
C60   H51   S    
O4    C8    A    
O11   C2    A    
C21   O25   S    
C54   H32   S    
C10   C50   S    
C25   C33   A    
C18   C22   A    
C62   H58   S    
C37   O30   S    
C53   H29   S    
C38   O29   S    
C28   C36   A    
C50   H21   S    
O16   C8    A    
C54   H33   S    
C45   H7    S    
O2    C6    A    
C56   H40   S    
C62   H56   S    
C39   O32   S    
O14   V2    S    
C48   H15   S    
C16   C20   A    
O5    V1    S    
O4    V1    S    
C55   H37   S    
C8    C38   S    
C43   C60   S    
C57   H43   S    
C40   O31   S    
O17   V4    S    
O7    C3    A    
O11   V3    S    
O18   V3    S    
C51   H24   S    
C10   C14   A    
C31   C36   A    
C5    C39   S    
O19   V2    S    
C3    C33   S    
C62   H57   S    
C64   H63   S    
C55   H36   S    
C50   H20   S    
C61   H54   S    
C9    C29   A    
C49   H18   S    
C52   H28   S    
O7    V3    S    
C45   H5    S    
C22   O26   S    
C11   C31   A    
C26   C34   A    
C12   C16   A    
C47   H11   S    
C60   H52   S    
C17   O22   S    
C46   H9    S    
O22   C46   S    
C23   C27   A    
C27   C31   A    
C42   C57   S    
O13   C5    A    
O2    V3    S    
O8    V4    S    
O3    V2    S    
C11   C15   A    
C12   C32   A    
O6    C2    A    
C61   H55   S    
C59   H48   S    
O10   V2    S    
O23   C47   S    
C21   C25   A    
C40   C44   D    
C54   H34   S    
C4    C34   S    
O24   C48   S    
C48   H16   S    
C56   H39   S    
C53   H31   S    
C6    C40   S    
C58   H46   S    
C44   C59   S    
O6    V2    S    
C10   C30   A    
C49   H19   S    
C56   H38   S    
C27   C35   A    
C50   H22   S    
C15   H3    S    
C55   H35   S    
O15   C7    A    
C9    C13   A    
C61   H53   S    
O16   V4    S    
C37   C41   D    
C63   H59   S    
C18   O21   S    
C41   C58   S    
C12   C52   S    
O14   C6    A    
O5    C1    A    
C63   H61   S    
C11   C51   S    
C9    C49   S    
C24   O28   S    
C46   H10   S    
C13   H1    S    
O27   C55   S    
O26   C54   S    
C1    C35   S    
O9    V1    S    
C51   H25   S    
C2    C36   S    
C59   H47   S    
C22   C26   A    
C16   H4    S    
C32   C35   A    
O32   C64   S    
C7    C37   S    
C63   H60   S    
C57   H41   S    
C43   C44   S    
C26   C30   A    
C64   H62   S    
O25   C53   S    
C58   H44   S    
C25   C29   A    
C59   H49   S    
C23   O27   S    
C39   C43   D    
O1    V4    S    
C13   C17   A    
C41   C42   S    
C53   H30   S    
C46   H8    S    
C28   C32   A    
C24   C28   A    
O12   C1    A    
C15   C19   A    
O8    C4    A    
O31   C63   S    
C58   H45   S    
C17   C21   A    
O30   C62   S    
C14   H2    S    
C48   H14   S    
C60   H50   S    
C19   C23   A    
O12   V4    S    
C20   C24   A    
O28   C56   S    
C57   H42   S    
C30   C33   A    
