data_mof_unit_54125.cif
_audit_creation_date              2012-10-26T18:29:54-0400
_audit_creation_method            fapswitch 2.2
_symmetry_space_group_name_H-M    P1
_symmetry_Int_Tables_number       1
_space_group_crystal_system       triclinic
_cell_length_a                    10.758723
_cell_length_b                    13.034247
_cell_length_c                    11.730147
_cell_angle_alpha                 99.109544
_cell_angle_beta                  93.176138
_cell_angle_gamma                 90.778999
_cell_volume                      1621.28103087

loop_
_atom_site_label
_atom_site_type_symbol
_atom_type_description
_atom_site_fract_x
_atom_site_fract_y
_atom_site_fract_z
_atom_type_partial_charge
C1    C     C_R   0.502153 0.299776 0.479572 0.549533
C2    C     C_R   0.562326 0.024782 0.534715 0.071188
C3    C     C_R   0.470261 0.971480 0.453380 -0.004596
C4    C     C_R   0.259780 0.500393 0.500278 0.641807
C5    C     C_R   0.442974 0.865431 0.453201 -0.012384
C6    C     C_R   0.609465 0.862025 0.601775 -0.128364
C7    C     C_R   0.640317 0.965588 0.600432 0.031301
C8    C     C_R   0.380370 0.404023 0.027208 -0.079745
C9    C     C_R   0.392126 0.412996 0.147522 0.100402
C10   C     C_R   0.553614 0.539713 0.155639 0.087261
C11   C     C_R   0.545175 0.533497 0.033549 -0.051346
C12   C     C_3   0.877203 0.498214 0.497127 -0.109577
C13   C     C_R   0.455088 0.466441 0.968301 -0.041077
C14   C     C_R   0.442988 0.462720 0.846008 0.102262
C15   C     C_R   0.612029 0.583465 0.853896 0.562435
C16   C     C_R   0.501231 0.700064 0.520470 0.595809
C17   C     C_R   0.623684 0.592374 0.975371 0.380454
C18   C     C_R   0.739719 0.500104 0.499072 0.612277
C19   C     C_3   0.073110 0.398930 0.539099 0.182497
C20   C     C_3   0.928544 0.397993 0.540102 -0.146408
C21   C     C_3   0.076713 0.595782 0.581167 0.183732
C22   C     C_3   0.062807 0.502997 0.373851 0.669766
C23   C     C_3   0.933166 0.595047 0.580012 0.216971
C24   C     C_3   0.121240 0.499513 0.498870 0.021914
C25   C     C_2   0.338712 0.811100 0.377578 0.288440
C26   C     C_2   0.763939 0.001756 0.655529 0.324917
C27   C     C_2   0.635033 0.197015 0.653124 0.283600
C28   C     C_2   0.337292 0.402481 0.781262 0.309412
C29   C     C_2   0.872373 0.295331 0.477743 0.308993
C30   C     C_3   0.920263 0.503698 0.373933 -0.120165
C31   C     C_R   0.512455 0.812210 0.529561 0.017353
C32   C     C_R   0.502397 0.186831 0.468854 0.000634
C33   C     C_R   0.405626 0.025913 0.375337 -0.107639
C34   C     C_R   0.425467 0.131117 0.380363 -0.085450
C35   C     C_R   0.569631 0.135027 0.549157 0.024789
Cu1   Cu    Cu3+1 0.509350 0.507730 0.615930 1.092858
Cu2   Cu    Cu3+1 0.490650 0.492270 0.384070 1.087127
F1    F     F_    0.888695 0.685916 0.546618 -0.618128
F2    F     F_    0.116527 0.311852 0.469772 -0.598066
F3    F     F_    0.688836 0.641212 0.800239 -0.565366
F4    F     F_    0.712014 0.657930 0.035501 -0.572268
F5    F     F_    0.125044 0.596617 0.693468 -0.594303
F6    F     F_    0.103921 0.591503 0.334140 -0.552954
F7    F     F_    0.097493 0.417327 0.297034 -0.536328
H1    H     H_    0.111084 0.396160 0.628000 0.211833
H2    H     H_    0.904119 0.401857 0.631733 0.091399
H3    H     H_    0.904149 0.593360 0.669332 0.248001
H4    H     H_    0.880189 0.437850 0.310101 0.209934
H5    H     H_    0.328800 0.817701 0.286556 0.129036
H6    H     H_    0.798890 0.972684 0.732680 0.156029
H7    H     H_    0.695242 0.262434 0.644523 0.124942
H8    H     H_    0.350534 0.343090 0.708178 0.145429
H9    H     H_    0.899396 0.224169 0.508457 0.199134
H10   H     H_    0.885225 0.575635 0.344319 0.200786
H11   H     H_    0.110652 0.668070 0.552713 0.251128
H12   H     H_    0.668625 0.816954 0.652253 0.193147
H13   H     H_    0.337787 0.988762 0.309964 0.132606
H14   H     H_    0.372740 0.170470 0.319378 0.167939
H15   H     H_    0.313605 0.347098 0.981813 0.165739
H16   H     H_    0.333816 0.365286 0.191313 0.182033
H17   H     H_    0.621447 0.591772 0.207673 0.179641
N1    N     N_R   0.523430 0.519360 0.790130 -0.297040
N2    N     N_R   0.476570 0.480640 0.209880 -0.256749
O1    O     O_R   0.506640 0.354460 0.582000 -0.569091
O2    O     O_2   0.831261 0.058405 0.611114 -0.491533
O3    O     O_2   0.618197 0.177550 0.749644 -0.493819
O4    O     O_2   0.231654 0.418701 0.811583 -0.468755
O5    O     O_2   0.797399 0.290012 0.394931 -0.488922
O6    O     O_R   0.490840 0.341410 0.386200 -0.492387
O7    O     O_R   0.325590 0.506510 0.597900 -0.481239
O8    O     O_R   0.309790 0.493450 0.402100 -0.415728
O9    O     O_R   0.509160 0.658590 0.613800 -0.449787
O10   O     O_R   0.493360 0.645540 0.418000 -0.505039
O11   O     O_R   0.690210 0.506550 0.597900 -0.475733
O12   O     O_R   0.674410 0.493490 0.402100 -0.503525
O13   O     O_2   0.262303 0.758800 0.417483 -0.422977

loop_
_geom_bond_atom_site_label_1
_geom_bond_atom_site_label_2
_ccdc_geom_bond_type
C2    C35   A    
C8    C13   A    
Cu2   O6    S    
C11   C13   A    
C10   N2    A    
C16   O9    A    
C4    O7    A    
C16   C31   S    
C30   H10   S    
C12   C23   S    
C18   O12   A    
C7    C26   S    
C19   F2    S    
C30   H4    S    
Cu1   Cu2   S    
C26   H6    S    
C8    H15   S    
C4    C24   S    
C3    C33   A    
C14   N1    A    
C2    C7    A    
C22   F7    S    
C19   C20   S    
C27   H7    S    
C8    C9    A    
C6    C31   A    
Cu2   O12   S    
C18   O11   A    
C13   C14   A    
Cu1   N1    S    
Cu2   N2    S    
Cu1   O7    S    
C17   F4    S    
C20   C29   S    
C23   H3    S    
C16   O10   A    
C32   C35   A    
C28   O4    D    
C21   H11   S    
C27   C35   S    
C1    C32   S    
C1    O6    A    
C32   C34   A    
C29   O5    D    
C22   F6    S    
C12   C20   S    
C33   C34   A    
Cu1   O11   S    
C5    C25   S    
Cu2   O8    S    
C22   C24   S    
C10   H17   S    
C1    O1    A    
C15   C17   A    
Cu2   O10   S    
C11   C17   A    
C33   H13   S    
C22   C30   S    
C12   C30   S    
C9    N2    A    
C26   O2    D    
C6    H12   S    
C3    C5    A    
C19   H1    S    
C6    C7    A    
C23   F1    S    
C25   O13   D    
C9    H16   S    
C21   C23   S    
C2    C3    A    
C27   O3    D    
C28   H8    S    
C29   H9    S    
C15   N1    A    
C19   C24   S    
C25   H5    S    
C15   F3    S    
C10   C11   A    
C21   F5    S    
C21   C24   S    
C12   C18   S    
C34   H14   S    
C14   C28   S    
Cu1   O1    S    
C4    O8    A    
C20   H2    S    
Cu1   O9    S    
C5    C31   A    
