data_mof_unit_58565.cif
_audit_creation_date              2012-12-11T15:17:31-0500
_audit_creation_method            fapswitch 2.2
_symmetry_space_group_name_H-M    P1
_symmetry_Int_Tables_number       1
_space_group_crystal_system       triclinic
_cell_length_a                    15.742715
_cell_length_b                    15.742717
_cell_length_c                    34.406881
_cell_angle_alpha                 90.000033
_cell_angle_beta                  89.999979
_cell_angle_gamma                 120.000213
_cell_volume                      7384.72498867

loop_
_atom_site_label
_atom_site_type_symbol
_atom_type_description
_atom_site_fract_x
_atom_site_fract_y
_atom_site_fract_z
_atom_type_partial_charge
C1    C     C_R   0.578639 0.441294 0.555129 0.551959
C2    C     C_R   0.495862 0.971761 0.213463 0.333582
C3    C     C_3   0.339954 0.993457 0.171717 -0.388025
C4    C     C_3   0.653502 0.660046 0.171717 -0.388025
C5    C     C_3   0.006544 0.346498 0.171718 -0.388026
C6    C     C_3   0.027629 0.362194 0.825148 -0.383168
C7    C     C_3   0.637809 0.665433 0.825149 -0.383168
C8    C     C_3   0.334567 0.972373 0.825149 -0.383168
C9    C     C_3   0.362186 0.027618 0.325150 -0.383168
C10   C     C_3   0.665434 0.637807 0.325149 -0.383168
C11   C     C_3   0.972369 0.334566 0.325148 -0.383168
C12   C     C_3   0.036192 0.671666 0.922731 -0.376343
C13   C     C_R   0.475898 0.504137 0.213463 0.333582
C14   C     C_3   0.328330 0.364526 0.922730 -0.376343
C15   C     C_3   0.635474 0.963806 0.922731 -0.376343
C16   C     C_3   0.671672 0.036199 0.422729 -0.376342
C17   C     C_3   0.364526 0.328331 0.422731 -0.376343
C18   C     C_3   0.963809 0.635474 0.422731 -0.376344
C19   C     C_3   0.952302 0.639650 0.843134 -0.386290
C20   C     C_3   0.360347 0.312652 0.843133 -0.386289
C21   C     C_3   0.687349 0.047697 0.843133 -0.386289
C22   C     C_3   0.639652 0.952306 0.343133 -0.386288
C23   C     C_3   0.312652 0.360347 0.343134 -0.386289
C24   C     C_R   0.028239 0.524103 0.213463 0.333582
C25   C     C_3   0.047699 0.687349 0.343134 -0.386290
C26   C     C_R   0.027518 0.442420 0.849287 -0.017587
C27   C     C_R   0.557581 0.585098 0.849288 -0.017587
C28   C     C_R   0.414903 0.972483 0.849288 -0.017587
C29   C     C_R   0.442416 0.027512 0.349289 -0.017587
C30   C     C_R   0.585098 0.557581 0.349288 -0.017587
C31   C     C_R   0.972480 0.414902 0.349287 -0.017587
C32   C     C_R   0.064538 0.457147 0.886873 -0.125164
C33   C     C_R   0.558706 0.137345 0.555129 0.551958
C34   C     C_R   0.542854 0.607390 0.886874 -0.125165
C35   C     C_R   0.392610 0.935463 0.886874 -0.125164
C36   C     C_R   0.457143 0.064533 0.386875 -0.125165
C37   C     C_R   0.607391 0.542853 0.386874 -0.125164
C38   C     C_R   0.935461 0.392609 0.386873 -0.125164
C39   C     C_R   0.034803 0.593599 0.896409 0.003006
C40   C     C_R   0.406399 0.441204 0.896408 0.003006
C41   C     C_R   0.558796 0.965196 0.896409 0.003006
C42   C     C_R   0.593602 0.034806 0.396408 0.003006
C43   C     C_R   0.441204 0.406399 0.396409 0.003006
C44   C     C_R   0.862655 0.421361 0.555129 0.551958
C45   C     C_R   0.965197 0.558796 0.396409 0.003006
C46   C     C_R   0.995410 0.578559 0.858127 0.014037
C47   C     C_R   0.421440 0.416851 0.858127 0.014037
C48   C     C_R   0.583150 0.004589 0.858127 0.014037
C49   C     C_R   0.578560 0.995411 0.358127 0.014037
C50   C     C_R   0.416851 0.421440 0.358127 0.014037
C51   C     C_R   0.004591 0.583150 0.358127 0.014036
C52   C     C_R   0.997466 0.506422 0.834011 0.058654
C53   C     C_R   0.493578 0.491043 0.834011 0.058654
C54   C     C_R   0.508957 0.002534 0.834011 0.058654
C55   C     C_R   0.441294 0.578639 0.055129 0.551958
C56   C     C_R   0.506420 0.997464 0.334012 0.058654
C57   C     C_R   0.491043 0.493577 0.334011 0.058654
C58   C     C_R   0.002534 0.508957 0.334011 0.058655
C59   C     C_R   0.074770 0.535368 0.909732 0.006484
C60   C     C_R   0.464632 0.539401 0.909732 0.006484
C61   C     C_R   0.460599 0.925230 0.909732 0.006484
C62   C     C_R   0.535368 0.074769 0.409732 0.006484
C63   C     C_R   0.539401 0.464631 0.409732 0.006484
C64   C     C_R   0.925230 0.460598 0.409732 0.006485
C65   C     C_R   0.577530 0.442418 0.445489 0.550884
C66   C     C_R   0.137345 0.558706 0.055129 0.551958
C67   C     C_R   0.557581 0.135111 0.445489 0.550884
C68   C     C_R   0.864889 0.422470 0.445489 0.550883
C69   C     C_R   0.442418 0.577529 0.945489 0.550884
C70   C     C_R   0.135111 0.557581 0.945489 0.550883
C71   C     C_R   0.422470 0.864889 0.945489 0.550884
C72   C     C_R   0.914994 0.453969 0.592399 0.009021
C73   C     C_R   0.546031 0.461025 0.592399 0.009021
C74   C     C_R   0.538974 0.085006 0.592399 0.009021
C75   C     C_R   0.453969 0.914994 0.092399 0.009021
C76   C     C_R   0.461025 0.546031 0.092399 0.009021
C77   C     C_R   0.421361 0.862655 0.055129 0.551958
C78   C     C_R   0.085006 0.538974 0.092399 0.009021
C79   C     C_R   0.941016 0.392750 0.612484 -0.109275
C80   C     C_R   0.607251 0.548266 0.612484 -0.109275
C81   C     C_R   0.451733 0.058984 0.612484 -0.109275
C82   C     C_R   0.392749 0.941016 0.112484 -0.109275
C83   C     C_R   0.548266 0.607251 0.112484 -0.109275
C84   C     C_R   0.058984 0.451734 0.112484 -0.109275
C85   C     C_R   0.967800 0.409381 0.651685 0.004042
C86   C     C_R   0.590620 0.558420 0.651685 0.004042
C87   C     C_R   0.441580 0.032200 0.651685 0.004042
C88   C     C_R   0.971761 0.495863 0.713463 0.333582
C89   C     C_R   0.409380 0.967800 0.151685 0.004042
C90   C     C_R   0.558420 0.590620 0.151685 0.004043
C91   C     C_R   0.032200 0.441580 0.151685 0.004042
C92   C     C_R   0.967632 0.488579 0.671035 0.060102
C93   C     C_R   0.511422 0.479054 0.671035 0.060102
C94   C     C_R   0.520946 0.032368 0.671035 0.060102
C95   C     C_R   0.488577 0.967632 0.171035 0.060102
C96   C     C_R   0.479054 0.511422 0.171035 0.060102
C97   C     C_R   0.032368 0.520947 0.171035 0.060102
C98   C     C_R   0.951470 0.555268 0.649917 -0.129545
C99   C     C_R   0.504137 0.475898 0.713463 0.333582
C100  C     C_R   0.444732 0.396202 0.649917 -0.129545
C101  C     C_R   0.603797 0.048529 0.649917 -0.129545
C102  C     C_R   0.555267 0.951470 0.149917 -0.129545
C103  C     C_R   0.396202 0.444731 0.149917 -0.129545
C104  C     C_R   0.048529 0.603798 0.149917 -0.129545
C105  C     C_R   0.925129 0.538061 0.610847 -0.138014
C106  C     C_R   0.461939 0.387069 0.610847 -0.138014
C107  C     C_R   0.612930 0.074870 0.610847 -0.138014
C108  C     C_R   0.538060 0.925129 0.110847 -0.138014
C109  C     C_R   0.387069 0.461939 0.110847 -0.138014
C110  C     C_R   0.524102 0.028239 0.713463 0.333582
C111  C     C_R   0.074870 0.612931 0.110847 -0.138014
C112  C     C_R   0.981217 0.505270 0.791874 0.330130
C113  C     C_R   0.494730 0.475948 0.791874 0.330130
C114  C     C_R   0.524053 0.018782 0.791874 0.330130
C115  C     C_R   0.505267 0.981217 0.291874 0.330130
C116  C     C_R   0.475948 0.494730 0.291874 0.330129
C117  C     C_R   0.018783 0.524053 0.291874 0.330130
C118  C     C_3   0.993457 0.339956 0.671717 -0.388025
C119  C     C_3   0.660046 0.653502 0.671718 -0.388025
C120  C     C_3   0.346498 0.006544 0.671718 -0.388025
Cr1   Cr    Cr6+3 0.522350 0.263930 0.500020 1.004822
Cr2   Cr    Cr6+3 0.736070 0.258420 0.500020 1.004821
Cr3   Cr    Cr6+3 0.741580 0.477650 0.500020 1.004822
Cr4   Cr    Cr6+3 0.263930 0.522350 0.000020 1.004822
Cr5   Cr    Cr6+3 0.258420 0.736070 0.000020 1.004822
Cr6   Cr    Cr6+3 0.477650 0.741580 0.000020 1.004822
H1    H     H_    0.906108 0.586835 0.595912 0.126748
H2    H     H_    0.616736 0.952093 0.164370 0.123246
H3    H     H_    0.335356 0.383262 0.164370 0.123246
H4    H     H_    0.047906 0.664644 0.164370 0.123247
H5    H     H_    0.935614 0.328748 0.598287 0.128030
H6    H     H_    0.671253 0.606867 0.598287 0.128030
H7    H     H_    0.393133 0.064387 0.598287 0.128030
H8    H     H_    0.328748 0.935615 0.098286 0.128030
H9    H     H_    0.606867 0.671253 0.098287 0.128030
H10   H     H_    0.064386 0.393133 0.098287 0.128030
H11   H     H_    0.091724 0.410315 0.897445 0.135383
H12   H     H_    0.413165 0.319273 0.595912 0.126747
H13   H     H_    0.589687 0.681408 0.897445 0.135383
H14   H     H_    0.318592 0.908277 0.897445 0.135384
H15   H     H_    0.410310 0.091716 0.397446 0.135383
H16   H     H_    0.681408 0.589686 0.397445 0.135384
H17   H     H_    0.908273 0.318590 0.397444 0.135383
H18   H     H_    0.026917 0.366665 0.700733 0.156996
H19   H     H_    0.926430 0.267012 0.674959 0.139824
H20   H     H_    0.047821 0.331672 0.653975 0.123227
H21   H     H_    0.633336 0.660252 0.700733 0.156997
H22   H     H_    0.732989 0.659419 0.674959 0.139823
H23   H     H_    0.680726 0.093891 0.595912 0.126747
H24   H     H_    0.668330 0.716150 0.653976 0.123227
H25   H     H_    0.339748 0.973085 0.700733 0.156996
H26   H     H_    0.340582 0.073571 0.674959 0.139823
H27   H     H_    0.283850 0.952181 0.653976 0.123227
H28   H     H_    0.366663 0.026916 0.200733 0.156997
H29   H     H_    0.331671 0.047821 0.153975 0.123227
H30   H     H_    0.267010 0.926430 0.174958 0.139823
H31   H     H_    0.660252 0.633336 0.200733 0.156996
H32   H     H_    0.716150 0.668330 0.153975 0.123227
H33   H     H_    0.659419 0.732989 0.174958 0.139823
H34   H     H_    0.586834 0.906108 0.095912 0.126748
H35   H     H_    0.973084 0.339748 0.200733 0.156996
H36   H     H_    0.952180 0.283851 0.153976 0.123227
H37   H     H_    0.073571 0.340583 0.174959 0.139824
H38   H     H_    0.059191 0.323156 0.841180 0.111997
H39   H     H_    0.951331 0.306953 0.817075 0.156119
H40   H     H_    0.072191 0.393789 0.798467 0.159230
H41   H     H_    0.676848 0.736033 0.841181 0.111996
H42   H     H_    0.693049 0.644376 0.817076 0.156119
H43   H     H_    0.606216 0.678402 0.798468 0.159230
H44   H     H_    0.263967 0.940812 0.841181 0.111997
H45   H     H_    0.319273 0.413165 0.095912 0.126747
H46   H     H_    0.355624 0.048671 0.817076 0.156119
H47   H     H_    0.321598 0.927811 0.798467 0.159230
H48   H     H_    0.323146 0.059177 0.341183 0.111996
H49   H     H_    0.393778 0.072180 0.298469 0.159230
H50   H     H_    0.306947 0.951319 0.317078 0.156119
H51   H     H_    0.736034 0.676846 0.341181 0.111997
H52   H     H_    0.678402 0.606214 0.298467 0.159230
H53   H     H_    0.644377 0.693048 0.317076 0.156119
H54   H     H_    0.940806 0.263965 0.341180 0.111997
H55   H     H_    0.927807 0.321599 0.298467 0.159230
H56   H     H_    0.093891 0.680726 0.095911 0.126747
H57   H     H_    0.048666 0.355621 0.317075 0.156119
H58   H     H_    0.988045 0.699915 0.913003 0.110647
H59   H     H_    0.010114 0.640911 0.952217 0.133326
H60   H     H_    0.111823 0.735309 0.924459 0.153153
H61   H     H_    0.300078 0.288129 0.913001 0.110646
H62   H     H_    0.359084 0.369201 0.952216 0.133326
H63   H     H_    0.264688 0.376516 0.924458 0.153154
H64   H     H_    0.711871 0.011951 0.913002 0.110646
H65   H     H_    0.630799 0.989885 0.952216 0.133326
H66   H     H_    0.623485 0.888174 0.924458 0.153154
H67   H     H_    0.952094 0.616738 0.664370 0.123246
H68   H     H_    0.699926 0.988057 0.413000 0.110645
H69   H     H_    0.735313 0.111832 0.424457 0.153155
H70   H     H_    0.640919 0.010120 0.452215 0.133326
H71   H     H_    0.288129 0.300079 0.413002 0.110646
H72   H     H_    0.376515 0.264689 0.424458 0.153154
H73   H     H_    0.369201 0.359085 0.452216 0.133326
H74   H     H_    0.011956 0.711871 0.413003 0.110647
H75   H     H_    0.888178 0.623487 0.424459 0.153153
H76   H     H_    0.989887 0.630797 0.452217 0.133326
H77   H     H_    0.922555 0.620322 0.813255 0.155715
H78   H     H_    0.383262 0.335356 0.664370 0.123246
H79   H     H_    0.889613 0.627646 0.861721 0.125613
H80   H     H_    0.009316 0.718531 0.843276 0.132312
H81   H     H_    0.379676 0.302233 0.813254 0.155715
H82   H     H_    0.372348 0.261965 0.861721 0.125612
H83   H     H_    0.281466 0.290786 0.843274 0.132312
H84   H     H_    0.697767 0.077443 0.813254 0.155715
H85   H     H_    0.738035 0.110385 0.861720 0.125612
H86   H     H_    0.709214 0.990681 0.843275 0.132312
H87   H     H_    0.620322 0.922557 0.313254 0.155715
H88   H     H_    0.718533 0.009323 0.343273 0.132312
H89   H     H_    0.664643 0.047905 0.664370 0.123246
H90   H     H_    0.627653 0.889619 0.361720 0.125611
H91   H     H_    0.302233 0.379676 0.313255 0.155715
H92   H     H_    0.290786 0.281466 0.343275 0.132312
H93   H     H_    0.261965 0.372349 0.361721 0.125612
H94   H     H_    0.077445 0.697768 0.313255 0.155715
H95   H     H_    0.990685 0.709216 0.343276 0.132311
H96   H     H_    0.110389 0.738035 0.361721 0.125612
N1    N     N_R   0.914749 0.421636 0.773837 -0.231802
N2    N     N_R   0.417124 0.909949 0.235273 -0.218762
N3    N     N_R   0.492825 0.582874 0.235273 -0.218763
N4    N     N_R   0.090050 0.507177 0.235273 -0.218763
N5    N     N_R   0.036084 0.580619 0.731438 -0.232190
N6    N     N_R   0.419381 0.455465 0.731438 -0.232190
N7    N     N_R   0.544534 0.963916 0.731437 -0.232189
N8    N     N_R   0.580617 0.036084 0.231438 -0.232189
N9    N     N_R   0.455465 0.419381 0.231437 -0.232190
N10   N     N_R   0.963916 0.544536 0.231438 -0.232190
N11   N     N_R   0.041290 0.584925 0.770058 -0.226889
N12   N     N_R   0.578364 0.493113 0.773837 -0.231802
N13   N     N_R   0.415075 0.456365 0.770058 -0.226889
N14   N     N_R   0.543635 0.958710 0.770058 -0.226889
N15   N     N_R   0.584923 0.041290 0.270058 -0.226888
N16   N     N_R   0.456365 0.415075 0.270058 -0.226888
N17   N     N_R   0.958710 0.543636 0.270058 -0.226889
N18   N     N_R   0.506889 0.085251 0.773837 -0.231801
N19   N     N_R   0.421634 0.914748 0.273837 -0.231802
N20   N     N_R   0.493113 0.578363 0.273837 -0.231802
N21   N     N_R   0.085251 0.506889 0.273837 -0.231801
N22   N     N_R   0.909950 0.417125 0.735273 -0.218763
N23   N     N_R   0.582875 0.492825 0.735273 -0.218763
N24   N     N_R   0.507177 0.090050 0.735273 -0.218763
O1    O     O_R   0.498680 0.159540 0.541860 -0.522155
O2    O     O_R   0.358060 0.532760 0.040030 -0.505041
O3    O     O_R   0.174700 0.641940 0.040030 -0.505041
O4    O     O_R   0.467240 0.825300 0.040030 -0.505041
O5    O     O_R   0.498590 0.161190 0.456930 -0.528475
O6    O     O_R   0.838810 0.337400 0.456930 -0.528476
O7    O     O_R   0.662600 0.501410 0.456930 -0.528475
O8    O     O_R   0.161190 0.498590 0.956930 -0.528476
O9    O     O_R   0.337400 0.838810 0.956930 -0.528475
O10   O     O_R   0.501410 0.662600 0.956930 -0.528475
O11   O     O_R   0.532680 0.359580 0.461300 -0.502087
O12   O     O_R   0.840460 0.339140 0.541860 -0.522154
O13   O     O_R   0.640420 0.173100 0.461300 -0.502088
O14   O     O_R   0.826900 0.467320 0.461300 -0.502087
O15   O     O_R   0.359580 0.532680 0.961300 -0.502087
O16   O     O_R   0.173100 0.640420 0.961300 -0.502087
O17   O     O_R   0.467320 0.826900 0.961300 -0.502088
O18   O     O_3   0.666667 0.333333 0.499990 -0.232420
O19   O     O_3   0.333333 0.666667 0.999990 -0.232421
O20   O     O_R   0.660860 0.501320 0.541860 -0.522155
O21   O     O_R   0.159540 0.498680 0.041860 -0.522155
O22   O     O_R   0.339140 0.840460 0.041860 -0.522155
O23   O     O_R   0.501320 0.660860 0.041860 -0.522155
O24   O     O_R   0.532760 0.358060 0.540030 -0.505041
O25   O     O_R   0.641940 0.174700 0.540030 -0.505040
O26   O     O_R   0.825300 0.467240 0.540030 -0.505041

loop_
_geom_bond_atom_site_label_1
_geom_bond_atom_site_label_2
_ccdc_geom_bond_type
Cr3   O26   S    
C101  C107  A    
C40   C47   A    
N18   N24   A    
C15   H66   S    
C23   H91   S    
C82   H8    S    
C80   H6    S    
C22   H90   S    
Cr3   O20   S    
C100  H78   S    
C38   H17   S    
Cr4   O19   S    
Cr6   O23   S    
C11   H55   S    
C75   C82   A    
C41   C61   A    
C7    H42   S    
Cr2   O18   S    
C70   O8    A    
C63   C65   S    
C73   C106  A    
C19   C46   S    
C43   C63   A    
C12   H58   S    
C48   C54   A    
Cr2   O13   S    
C29   C36   A    
C98   C105  A    
C62   C67   S    
N9    N16   A    
C40   C60   A    
C10   H53   S    
C64   C68   S    
C31   C58   A    
C114  N18   A    
C2    C95   S    
C110  N7    A    
C14   C40   S    
C101  H89   S    
C72   C79   A    
C102  H2    S    
N12   N23   A    
C13   N3    A    
C36   C62   A    
C116  N16   A    
C106  H12   S    
C4    H33   S    
C13   N9    A    
C45   C51   A    
C119  H21   S    
C112  N11   A    
C87   C94   A    
C46   C52   A    
C34   H13   S    
C7    C27   S    
C21   H84   S    
C9    H50   S    
C70   O16   A    
C71   O9    A    
Cr5   O9    S    
C3    H30   S    
N6    N13   A    
C80   C86   A    
C74   C107  A    
C115  N19   A    
C44   C72   S    
Cr2   O12   S    
C4    H32   S    
C1    O20   A    
C88   C92   S    
C94   C101  A    
C53   C113  S    
C6    H40   S    
C65   O7    A    
Cr5   O16   S    
C19   H80   S    
C18   H76   S    
Cr6   O19   S    
C102  C108  A    
C78   C111  A    
C55   O23   A    
C84   C91   A    
C25   H95   S    
C99   N23   A    
C93   C99   S    
C83   H9    S    
C99   N6    A    
C95   C102  A    
C9    C29   S    
C42   C62   A    
C47   C53   A    
C21   C48   S    
C23   H92   S    
C68   O6    A    
C119  H24   S    
C110  N24   A    
C6    H39   S    
C11   C31   S    
C75   C108  A    
C103  C109  A    
C104  H4    S    
C27   C53   A    
C33   O25   A    
C34   C60   A    
C50   C57   A    
C31   C38   A    
C24   N4    A    
C76   C83   A    
C3    H29   S    
C37   C63   A    
C85   C92   A    
C8    H44   S    
C73   C80   A    
C57   C116  S    
C4    C90   S    
C27   C34   A    
C71   O17   A    
C113  N12   A    
N5    N11   A    
C23   H93   S    
C120  H26   S    
C37   H16   S    
C105  H1    S    
C13   C96   S    
C92   C98   A    
C24   C97   S    
C10   H52   S    
C9    H48   S    
C11   H57   S    
C28   C35   A    
Cr4   O8    S    
Cr1   O1    S    
C115  N15   A    
C28   C54   A    
C8    H47   S    
C76   C109  A    
C23   C50   S    
C114  N14   A    
C1    O24   A    
C59   C70   S    
N3    N20   A    
C3    H28   S    
C44   O12   A    
C94   C110  S    
C58   C117  S    
C21   H85   S    
C98   H67   S    
C30   C57   A    
C77   O4    A    
C5    H35   S    
C97   C104  A    
C89   C95   A    
C65   O11   A    
C36   H15   S    
C25   C51   S    
C16   H70   S    
C86   C93   A    
C26   C52   A    
C35   H14   S    
N10   N17   A    
C14   H62   S    
C10   C30   S    
C4    H31   S    
C118  H20   S    
N1    N22   A    
C39   C59   A    
C17   H72   S    
C19   H77   S    
C22   H87   S    
C25   H96   S    
C35   C61   A    
C51   C58   A    
C81   C87   A    
C20   H83   S    
C91   C97   A    
C17   H71   S    
C103  H3    S    
C93   C100  A    
C15   C41   S    
C86   C119  S    
Cr2   O25   S    
C22   C49   S    
C55   C76   S    
C117  N21   A    
C66   C78   S    
Cr4   O15   S    
C15   H64   S    
C6    H38   S    
C55   O2    A    
C22   H88   S    
Cr5   O22   S    
C18   H74   S    
C8    C28   S    
C112  N1    A    
C39   C46   A    
C20   H82   S    
C33   O1    A    
C109  H45   S    
C18   C45   S    
C5    H37   S    
C79   C85   A    
C68   O14   A    
C113  N13   A    
C83   C90   A    
C7    H41   S    
C84   H10   S    
C120  H25   S    
C79   H5    S    
C45   C64   A    
Cr5   O19   S    
C10   H51   S    
C100  C106  A    
C81   H7    S    
C118  H19   S    
C66   O3    A    
C24   N10   A    
C2    N2    A    
C88   N22   A    
C104  C111  A    
C69   O15   A    
C77   O22   A    
C43   C50   A    
C90   C96   A    
C108  H34   S    
C29   C56   A    
Cr3   O14   S    
C49   C56   A    
C15   H65   S    
Cr4   O21   S    
C118  H18   S    
C20   H81   S    
C21   H86   S    
C44   O26   A    
C12   H60   S    
C3    C89   S    
C14   H63   S    
C1    C73   S    
C5    H36   S    
Cr4   O2    S    
C12   C39   S    
C7    H43   S    
C119  H22   S    
C32   H11   S    
Cr1   O18   S    
C16   H69   S    
C30   C37   A    
C14   H61   S    
C116  N20   A    
Cr3   O18   S    
C61   C71   S    
N4    N21   A    
C6    C26   S    
C82   C89   A    
C60   C69   S    
N7    N14   A    
C12   H59   S    
C54   C114  S    
Cr5   O3    S    
C120  H27   S    
C56   C115  S    
C41   C48   A    
Cr6   O17   S    
C9    H49   S    
C18   H75   S    
C16   C42   S    
C111  H56   S    
C85   C118  S    
N2    N19   A    
C16   H68   S    
Cr3   O7    S    
C20   C47   S    
Cr1   O5    S    
C2    N8    A    
C42   C49   A    
Cr2   O6    S    
C88   N5    A    
C78   C84   A    
C33   C74   S    
C87   C120  S    
C107  H23   S    
C72   C105  A    
C5    C91   S    
Cr6   O4    S    
C75   C77   S    
C17   C43   S    
C19   H79   S    
C38   C64   A    
C52   C112  S    
N8    N15   A    
Cr6   O10   S    
C11   H54   S    
C74   C81   A    
C32   C59   A    
C96   C103  A    
C17   H73   S    
C25   H94   S    
Cr1   O24   S    
C26   C32   A    
C67   O13   A    
C66   O21   A    
C8    H46   S    
C69   O10   A    
Cr1   O11   S    
C117  N17   A    
C67   O5    A    
