data_mof_unit_14485.cif
_audit_creation_date              2012-12-11T17:43:41-0500
_audit_creation_method            fapswitch 2.2
_symmetry_space_group_name_H-M    P1
_symmetry_Int_Tables_number       1
_space_group_crystal_system       triclinic
_cell_length_a                    15.049991
_cell_length_b                    15.238852
_cell_length_c                    16.882954
_cell_angle_alpha                 108.71794
_cell_angle_beta                  105.778643
_cell_angle_gamma                 109.47259
_cell_volume                      3130.75944889

loop_
_atom_site_label
_atom_site_type_symbol
_atom_type_description
_atom_site_fract_x
_atom_site_fract_y
_atom_site_fract_z
_atom_type_partial_charge
Br1   Br    Br    0.617024 0.002686 0.081891 -0.395840
Br2   Br    Br    0.406122 0.044423 0.864908 -0.439984
Br3   Br    Br    0.358449 0.719341 0.987974 -0.525806
Br4   Br    Br    0.655517 0.358193 0.077193 -0.540845
C1    C     C_R   0.090664 0.279075 0.046669 0.477351
C2    C     C_R   0.055718 0.048325 0.930535 -0.279689
C3    C     C_R   0.995497 0.890340 0.945254 0.131845
C4    C     C_R   0.005672 0.083470 0.982873 0.069289
C5    C     C_R   0.052685 0.951134 0.911972 0.123145
C6    C     C_R   0.950712 0.022478 0.016869 0.078295
C7    C     C_R   0.803414 0.028188 0.055832 -0.182259
C8    C     C_R   0.211962 0.984056 0.881318 -0.171074
C9    C     C_R   0.827850 0.090703 0.215055 -0.387476
C10   C     C_R   0.219570 0.847733 0.764523 -0.354287
C11   C     C_R   0.534654 0.794107 0.343079 0.606964
C12   C     C_R   0.913569 0.708198 0.918777 0.384548
C13   C     C_R   0.417962 0.271652 0.736236 0.614512
C14   C     C_R   0.533274 0.745503 0.256743 -0.193247
C15   C     C_R   0.463865 0.339423 0.830473 -0.191222
C16   C     C_R   0.935376 0.452634 0.734676 -0.103016
C17   C     C_R   0.065481 0.483428 0.254566 -0.150333
C18   C     C_R   0.546920 0.655092 0.231199 -0.178355
C19   C     C_R   0.510201 0.448058 0.862583 -0.169703
C20   C     C_R   0.562260 0.612769 0.294560 0.540238
C21   C     C_R   0.514976 0.489651 0.798766 0.543194
C22   C     C_R   0.566230 0.663631 0.381773 -0.142614
C23   C     C_R   0.026509 0.461145 0.725177 0.079718
C24   C     C_R   0.473344 0.421043 0.704873 -0.172823
C25   C     C_R   0.551989 0.752914 0.405916 -0.403621
C26   C     C_R   0.423505 0.313165 0.673378 -0.415218
C27   C     C_R   0.626150 0.592954 0.126378 -0.203577
C28   C     C_R   0.450216 0.529920 0.969806 -0.172585
C29   C     C_R   0.618732 0.545115 0.037128 0.106612
C30   C     C_R   0.455045 0.573683 0.057777 0.116600
C31   C     C_R   0.530275 0.512948 0.958249 0.041706
C32   C     C_R   0.542450 0.606203 0.137606 0.056433
C33   C     C_R   0.762740 0.045889 0.121203 0.395458
C34   C     C_R   0.976020 0.418840 0.255232 0.055371
C35   C     C_R   0.266599 0.950320 0.833974 0.439808
C36   C     C_R   0.967646 0.377508 0.322249 -0.066934
C37   C     C_R   0.035336 0.412294 0.638627 -0.036624
C38   C     C_R   0.140530 0.430868 0.553171 -0.113955
C39   C     C_R   0.861555 0.313396 0.396047 -0.138889
C40   C     C_R   0.720944 0.215786 0.823133 -0.022866
C41   C     C_R   0.220404 0.795323 0.187419 -0.107011
C42   C     C_R   0.133324 0.446559 0.636463 -0.252111
C43   C     C_R   0.869875 0.333008 0.323038 -0.218068
C44   C     C_R   0.945257 0.346619 0.554354 0.473512
C45   C     C_R   0.667482 0.215885 0.742633 0.008327
C46   C     C_R   0.056761 0.393386 0.392784 0.501303
C47   C     C_R   0.951672 0.347887 0.473836 -0.005375
C48   C     C_R   0.050259 0.389833 0.472843 0.031087
C49   C     C_R   0.561663 0.138815 0.673656 0.131448
C50   C     C_R   0.279772 0.895366 0.360062 0.126126
C51   C     C_R   0.388216 0.082288 0.442844 -0.189893
C52   C     C_R   0.416856 0.965925 0.604619 -0.178661
C53   C     C_R   0.315820 0.993698 0.361075 -0.108704
C54   C     C_R   0.509063 0.046461 0.678451 -0.070707
C55   C     C_R   0.301723 0.889095 0.443591 -0.263304
C56   C     C_R   0.237446 0.800573 0.274023 0.069458
C57   C     C_R   0.516142 0.153163 0.597841 -0.246430
C58   C     C_R   0.378407 0.976228 0.524718 0.148577
C59   C     C_R   0.425854 0.072118 0.522900 0.136735
C60   C     C_R   0.935125 0.121420 0.244347 0.549714
C61   C     C_R   0.116704 0.778197 0.741299 0.563913
C62   C     C_R   0.976063 0.108593 0.178756 -0.216960
C63   C     C_R   0.062081 0.812970 0.788272 -0.184743
C64   C     C_R   0.301903 0.599308 0.007294 0.272031
C65   C     C_R   0.730531 0.456175 0.042153 0.327225
C66   C     C_R   0.910532 0.060606 0.084255 -0.019750
C67   C     C_R   0.359887 0.569117 0.059190 -0.063810
C68   C     C_R   0.109374 0.915576 0.859420 0.019364
C69   C     C_R   0.728091 0.308920 0.745428 -0.136408
C70   C     C_R   0.217144 0.701170 0.265225 -0.102043
C71   C     C_R   0.296455 0.502644 0.081514 -0.112869
C72   C     C_R   0.746589 0.558944 0.971835 -0.220796
C73   C     C_R   0.108335 0.531098 0.811869 -0.063200
C74   C     C_R   0.894552 0.392565 0.175380 -0.061086
C75   C     C_R   0.917756 0.193957 0.966276 0.493094
C76   C     C_R   0.084505 0.793788 0.995765 0.387571
C77   C     C_R   0.005533 0.180828 0.995777 -0.276097
C78   C     C_R   0.703019 0.528682 0.026038 -0.023617
C79   C     C_R   0.999371 0.797784 0.944302 -0.085765
C80   C     C_R   0.943873 0.924998 0.995243 -0.219500
H1    H     H_    0.750953 0.985640 0.983160 0.185379
H2    H     H_    0.379824 0.501356 0.908891 0.139008
H3    H     H_    0.799406 0.316831 0.269243 0.190060
H4    H     H_    0.204751 0.491138 0.699004 0.159850
H5    H     H_    0.217072 0.461516 0.554004 0.188564
H6    H     H_    0.785126 0.280721 0.395063 0.206158
H7    H     H_    0.856710 0.409461 0.682069 0.152802
H8    H     H_    0.144922 0.510853 0.300507 0.152129
H9    H     H_    0.553783 0.224160 0.593215 0.133631
H10   H     H_    0.269535 0.814855 0.444790 0.123911
H11   H     H_    0.541113 0.033354 0.736535 0.146535
H12   H     H_    0.250203 0.063170 0.936154 0.164134
H13   H     H_    0.295833 0.002141 0.298406 0.129107
H14   H     H_    0.421708 0.156453 0.441479 0.143105
H15   H     H_    0.380373 0.893102 0.607329 0.136676
H16   H     H_    0.794659 0.099880 0.264728 0.176962
H17   H     H_    0.262957 0.822427 0.728751 0.157465
H18   H     H_    0.058074 0.129517 0.201047 0.162575
H19   H     H_    0.982459 0.759507 0.769059 0.168553
H20   H     H_    0.687979 0.166408 0.851801 0.179300
H21   H     H_    0.227166 0.857857 0.169183 0.130024
H22   H     H_    0.704595 0.343459 0.702211 0.109318
H23   H     H_    0.553888 0.789486 0.473371 0.160912
H24   H     H_    0.223509 0.676481 0.318629 0.097101
H25   H     H_    0.321204 0.473053 0.128955 0.188520
H26   H     H_    0.736068 0.611195 0.944215 0.167759
H27   H     H_    0.189578 0.553928 0.829975 0.132270
H28   H     H_    0.818917 0.326578 0.144901 0.163564
H29   H     H_    0.904129 0.878577 0.023714 0.141797
H30   H     H_    0.096292 0.096604 0.903975 0.151285
H31   H     H_    0.194839 0.239432 0.093486 0.331253
H32   H     H_    0.782185 0.593868 0.825024 0.319814
H33   H     H_    0.520825 0.905464 0.426593 0.316267
H34   H     H_    0.388138 0.262202 0.599932 0.166099
H35   H     H_    0.328697 0.129703 0.639338 0.318213
H36   H     H_    0.547655 0.483057 0.206786 0.345308
H37   H     H_    0.583480 0.635415 0.891785 0.330436
H38   H     H_    0.132327 0.368876 0.320024 0.325846
H39   H     H_    0.865491 0.263942 0.599451 0.312458
H40   H     H_    0.959149 0.158076 0.372034 0.318696
H41   H     H_    0.116707 0.663598 0.647880 0.317323
H42   H     H_    0.815964 0.050022 0.889054 0.321012
H43   H     H_    0.226163 0.819490 0.028483 0.353810
H44   H     H_    0.521009 0.778318 0.208943 0.199153
H45   H     H_    0.456736 0.307205 0.878435 0.203878
H46   H     H_    0.578299 0.632278 0.430685 0.175493
H47   H     H_    0.476261 0.451689 0.655452 0.177060
H48   H     H_    0.695805 0.618059 0.186292 0.161988
N1    N     N_R   0.055660 0.348550 0.045620 -0.103529
N2    N     N_R   0.185200 0.638170 0.176300 -0.044523
N3    N     N_R   0.201680 0.494570 0.045620 -0.059189
N4    N     N_R   0.798320 0.505430 0.954380 -0.062580
N5    N     N_R   0.068420 0.560530 0.871650 -0.046100
N6    N     N_R   0.931580 0.439470 0.128350 -0.055502
N7    N     N_R   0.948070 0.295860 0.997670 -0.107094
N8    N     N_R   0.051930 0.704140 0.002330 -0.127976
N9    N     N_R   0.944340 0.651450 0.954380 -0.124906
N10   N     N_R   0.960830 0.507850 0.823700 -0.058913
N11   N     N_R   0.039170 0.492150 0.176300 -0.053881
N12   N     N_R   0.811290 0.303410 0.871650 -0.046292
N13   N     N_R   0.188710 0.696590 0.128350 -0.046769
N14   N     N_R   0.205200 0.552990 0.997670 -0.085369
N15   N     N_R   0.794800 0.447010 0.002330 -0.071563
N16   N     N_R   0.814800 0.361830 0.823700 -0.056452
Ni1   Ni    Ni4+2 0.119340 0.493420 0.109960 0.232418
Ni2   Ni    Ni4+2 0.880660 0.506580 0.890040 0.199729
Ni3   Ni    Ni4+2 0.872590 0.372590 0.000000 0.262415
Ni4   Ni    Ni4+2 0.127410 0.627410 0.000000 0.246752
O1    O     O_3   0.190890 0.304991 0.100906 -0.767528
O2    O     O_3   0.067627 0.676310 0.673409 -0.743601
O3    O     O_3   0.816059 0.118179 0.915793 -0.776567
O4    O     O_3   0.184999 0.855406 0.013253 -0.724112
O5    O     O_3   0.819685 0.670079 0.846117 -0.728175
O6    O     O_3   0.518883 0.881344 0.363852 -0.733807
O7    O     O_3   0.364705 0.165966 0.707705 -0.725099
O8    O     O_3   0.571059 0.521576 0.274129 -0.726562
O9    O     O_3   0.555797 0.595309 0.824019 -0.727355
O10   O     O_3   0.149564 0.411845 0.385497 -0.769213
O11   O     O_3   0.850877 0.284585 0.549162 -0.776475
O12   O     O_3   0.000844 0.159856 0.335569 -0.745565

loop_
_geom_bond_atom_site_label_1
_geom_bond_atom_site_label_2
_ccdc_geom_bond_type
C40   C45   A    
C15   H45   S    
C36   C43   A    
C75   N7    A    
N5    N10   A    
C45   C49   S    
C41   C56   A    
C80   H29   S    
C46   O10   S    
C62   H18   S    
C11   C14   A    
C3    C79   S    
Br3   C64   S    
C5    C68   S    
C60   O12   S    
C45   C69   A    
C39   C47   A    
C2    C5    A    
C40   H20   S    
C7    C66   A    
C63   H19   S    
C44   O11   S    
C50   C56   S    
C21   C24   A    
C1    N1    A    
C61   O2    S    
C41   N13   A    
C34   C36   S    
C73   N5    A    
N12   Ni3   S    
N6    N11   A    
C71   N3    A    
H39   O11   S    
C57   C59   A    
C63   C68   A    
C38   C42   A    
N7    Ni3   S    
C73   H27   S    
C2    H30   S    
C65   C78   A    
C6    C80   A    
C14   H44   S    
C10   C35   A    
C49   C57   A    
Br2   C35   S    
C10   C61   A    
C44   C47   A    
C17   C34   A    
C21   O9    S    
C61   C63   A    
C51   C59   A    
C46   C48   A    
C37   C42   A    
C27   C29   A    
N5    Ni4   S    
C76   O4    S    
C55   H10   S    
C29   C78   S    
N8    Ni4   S    
C9    C33   A    
C22   H46   S    
N12   N16   A    
C7    H1    S    
H42   O3    S    
C3    C80   A    
C8    C68   A    
C53   H13   S    
H31   O1    S    
C13   C26   A    
C76   C79   A    
C74   N6    A    
Br4   C65   S    
C41   H21   S    
N9    Ni2   S    
C11   C25   A    
C42   H4    S    
C50   C55   A    
C72   N4    A    
C16   H7    S    
C71   H25   S    
C39   H6    S    
C69   N16   A    
C4    C77   S    
N4    N15   A    
C28   C31   A    
C16   N10   A    
N1    Ni1   S    
N8    N9    A    
C17   N11   A    
C11   O6    S    
C72   C78   A    
C75   C77   A    
C13   C15   A    
C10   H17   S    
C2    C4    A    
C34   C74   A    
N3    Ni1   S    
N2    Ni1   S    
C70   H24   S    
C12   C79   A    
C47   C48   A    
C28   C30   A    
C15   C19   A    
C54   H11   S    
C27   H48   S    
C1    C77   A    
C23   C37   S    
C40   N12   A    
N3    N14   A    
C28   H2    S    
C58   C59   A    
C36   C46   A    
N14   Ni4   S    
C6    C66   S    
C72   H26   S    
N1    N7    A    
C19   C31   S    
C51   C53   A    
C65   N15   A    
C52   C58   A    
C64   N14   A    
H41   O2    S    
C7    C33   A    
C3    C5    A    
N2    N13   A    
C55   C58   A    
C12   O5    S    
C14   C18   A    
C4    C6    A    
C8    H12   S    
C20   C22   A    
N16   Ni2   S    
C23   C73   A    
H43   O4    S    
N4    Ni2   S    
C49   C54   A    
C20   O8    S    
C16   C23   A    
Br1   C33   S    
N6    Ni3   S    
C18   C32   S    
H38   O10   S    
C24   H47   S    
C38   H5    S    
C8    C35   A    
C24   C26   A    
C12   N9    A    
H32   O5    S    
C76   N8    A    
C26   H34   S    
C67   C71   A    
H33   O6    S    
N10   Ni2   S    
C69   H22   S    
C62   C66   A    
C9    C60   A    
C9    H16   S    
C64   C67   A    
C1    O1    S    
N15   Ni3   S    
C70   N2    A    
C51   H14   S    
C56   C70   A    
C29   C31   A    
C37   C44   A    
C52   C54   A    
C18   C20   A    
C19   C21   A    
C13   O7    S    
N13   Ni4   S    
C75   O3    S    
N11   Ni1   S    
C30   C32   A    
C22   C25   A    
H35   O7    S    
C38   C48   A    
H36   O8    S    
C27   C32   A    
C25   H23   S    
C74   H28   S    
C52   H15   S    
C57   H9    S    
C39   C43   A    
C30   C67   S    
C17   H8    S    
H37   O9    S    
C60   C62   A    
H40   O12   S    
C50   C53   A    
C43   H3    S    
