data_mof_unit_63171.cif
_audit_creation_date              2013-03-05T16:07:50-0500
_audit_creation_method            fapswitch 2.2
_symmetry_space_group_name_H-M    P1
_symmetry_Int_Tables_number       1
_space_group_crystal_system       triclinic
_cell_length_a                    19.194737
_cell_length_b                    11.570686
_cell_length_c                    10.782165
_cell_angle_alpha                 89.983915
_cell_angle_beta                  89.630656
_cell_angle_gamma                 90.135812
_cell_volume                      2394.62209276

loop_
_atom_site_label
_atom_site_type_symbol
_atom_site_description
_atom_site_fract_x
_atom_site_fract_y
_atom_site_fract_z
_atom_type_partial_charge
O1    O     O_R   0.500000 0.334450 0.602530 -0.630092
O2    O     O_R   0.500000 0.665550 0.397470 -0.619082
O3    O     O_R   0.500000 0.665550 0.602530 -0.587274
O4    O     O_R   0.500000 0.334450 0.397470 -0.568536
C1    C     C_R   0.500313 0.281184 0.500022 0.967453
C2    C     C_R   0.499774 0.718818 0.499984 0.994525
O5    O     O_R   0.398140 0.500000 0.602560 -0.594894
O6    O     O_R   0.601860 0.500000 0.397440 -0.568595
O7    O     O_R   0.601860 0.500000 0.602560 -0.619654
O8    O     O_R   0.398140 0.500000 0.397440 -0.591781
C3    C     C_R   0.365252 0.500027 0.500542 0.995194
C4    C     C_R   0.634535 0.497790 0.499640 0.992155
Zn1   Zn    Zn3+2 0.500000 0.500000 0.636920 1.069303
Zn2   Zn    Zn3+2 0.500000 0.500000 0.363080 1.096769
C5    C     C_1   0.500399 0.161064 0.500040 -0.065486
C6    C     C_1   0.499916 0.838954 0.499963 -0.055784
C7    C     C_1   0.500336 0.059168 0.500011 0.072926
C8    C     C_1   0.500123 0.940851 0.499979 0.072979
N1    N     N_1   0.500000 0.500000 0.180630 -0.061853
N2    N     N_1   0.500000 0.500000 0.819370 -0.066690
C9    C     C_1   0.499995 0.499997 0.069771 0.110033
C10   C     C_1   0.499995 0.500000 0.930229 0.101505
C11   C     C_R   0.253777 0.576148 0.581751 0.274254
C12   C     C_R   0.744035 0.388341 0.476768 0.255360
C13   C     C_R   0.747095 0.592032 0.540802 0.267619
C14   C     C_R   0.252903 0.413431 0.435621 0.270691
C15   C     C_R   0.181833 0.566246 0.594098 -0.184890
C16   C     C_R   0.815694 0.381965 0.494773 -0.172806
C17   C     C_R   0.818588 0.582723 0.558866 -0.183618
C18   C     C_R   0.180686 0.407734 0.447257 -0.182783
H1    H     H_    0.154439 0.625888 0.654405 0.204453
H2    H     H_    0.842288 0.301256 0.476244 0.204928
H3    H     H_    0.847555 0.658359 0.587890 0.206038
H4    H     H_    0.152526 0.342770 0.395298 0.203285
C19   C     C_R   0.145124 0.482558 0.527404 -0.043452
C20   C     C_R   0.853113 0.478667 0.534861 -0.047343
C21   C     C_R   0.289704 0.498008 0.503594 -0.283324
C22   C     C_R   0.709724 0.494151 0.499929 -0.263974
N3    N     N_R   0.033676 0.388321 0.484901 -0.149398
N4    N     N_R   0.964555 0.560279 0.598931 -0.149053
N5    N     N_R   0.964568 0.387023 0.487519 -0.148862
N6    N     N_R   0.033623 0.561453 0.596509 -0.150360
C23   C     C_R   0.928834 0.473629 0.543473 0.346812
C24   C     C_R   0.069371 0.476273 0.538148 0.348647
N7    N     N_R   0.289228 0.667462 0.646661 0.225171
O9    O     O_R   0.266667 0.701501 0.754683 -0.342278
O10   O     O_R   0.337609 0.727517 0.591159 -0.402891
N8    N     N_R   0.706961 0.286004 0.439179 0.197099
O11   O     O_R   0.660006 0.291144 0.352954 -0.371358
O12   O     O_R   0.726933 0.185019 0.478268 -0.338475
N9    N     N_R   0.713460 0.701271 0.563060 0.217163
O13   O     O_R   0.663952 0.736710 0.490638 -0.400580
O14   O     O_R   0.738011 0.772076 0.645841 -0.335164
N10   N     N_R   0.287910 0.329755 0.358980 0.224244
O15   O     O_R   0.341285 0.273400 0.401315 -0.398285
O16   O     O_R   0.259776 0.296056 0.255586 -0.339992

loop_
_geom_bond_atom_site_label_1
_geom_bond_atom_site_label_2
_geom_bond_distance
_ccdc_geom_bond_type
N7    O9    1.301452 A    
C12   C22   1.413105 A    
C13   N9    1.440167 S    
C14   C21   1.413367 A    
N3    C24   1.355277 A    
C11   N7    1.439573 S    
C11   C15   1.390942 A    
C13   C22   1.411357 A    
O3    Zn1   1.950984 S    
C16   H2    1.083346 S    
O6    C4    1.271711 A    
O3    C2    1.265733 A    
N4    N6    1.325872 A    
C7    C8    1.369011 S    
N3    N5    1.326685 A    
C9    C10   1.504565 S    
O5    C3    1.271770 A    
C19   C24   1.459572 S    
N5    C23   1.355325 A    
C17   C20   1.399114 A    
O2    C2    1.265695 A    
N6    C24   1.355049 A    
C18   C19   1.399234 A    
O1    C1    1.265617 A    
C14   N10   1.438102 S    
N8    O12   1.301472 A    
N8    O11   1.300466 A    
N1    C9    1.195298 T    
N2    C10   1.195303 T    
C14   C18   1.392462 A    
N7    O10   1.301114 A    
O4    Zn2   1.950985 S    
O2    Zn2   1.951188 S    
O7    C4    1.271452 A    
N10   O16   1.301336 A    
C1    C5    1.389879 S    
O1    Zn1   1.951189 S    
O8    C3    1.274849 A    
C18   H4    1.083165 S    
C15   H1    1.083098 S    
N9    O13   1.300833 A    
C12   N8    1.439709 S    
C4    C22   1.443972 S    
C17   H3    1.083090 S    
O5    Zn1   1.992313 S    
C16   C20   1.398262 A    
C13   C17   1.391709 A    
C6    C8    1.179013 T    
O8    Zn2   1.987620 S    
C5    C7    1.179005 T    
O7    Zn1   1.987618 S    
N10   O15   1.300848 A    
C20   C23   1.458308 S    
O6    Zn2   1.992311 S    
Zn1   N2    1.967205 S    
C15   C19   1.398196 A    
C11   C21   1.413880 A    
C2    C6    1.390052 S    
Zn2   N1    1.967206 S    
C3    C21   1.450420 S    
N4    C23   1.354706 A    
C12   C16   1.392470 A    
O4    C1    1.265802 A    
N9    O14   1.301513 A    
