data_mof_unit_45804.cif
_audit_creation_date              2012-12-11T14:17:26-0500
_audit_creation_method            fapswitch 2.2
_symmetry_space_group_name_H-M    P1
_symmetry_Int_Tables_number       1
_space_group_crystal_system       triclinic
_cell_length_a                    6.944658
_cell_length_b                    13.628998
_cell_length_c                    20.414847
_cell_angle_alpha                 102.129621
_cell_angle_beta                  90.182517
_cell_angle_gamma                 90.556055
_cell_volume                      1888.98564914

loop_
_atom_site_label
_atom_site_type_symbol
_atom_type_description
_atom_site_fract_x
_atom_site_fract_y
_atom_site_fract_z
_atom_type_partial_charge
O1    O     O_R   0.506860 0.599390 0.449240 -0.538578
O2    O     O_R   0.180220 0.594600 0.586780 -0.541827
O3    O     O_R   0.004500 0.400610 0.550760 -0.539364
C1    C     C_R   0.349709 0.617628 0.612711 0.750623
O4    O     O_R   0.177490 0.611290 0.451970 -0.537176
O5    O     O_R   0.001750 0.417420 0.414990 -0.542236
C2    C     C_R   0.346590 0.638093 0.435346 0.701715
O6    O     O_R   0.509610 0.582580 0.585010 -0.537932
O7    O     O_3   0.337420 0.436370 0.488020 -0.377138
V1    V     V_3+5 0.064680 0.511800 0.502220 1.459320
O8    O     O_R   0.671710 0.405400 0.413220 -0.549436
C3    C     C_R   0.839613 0.384046 0.386531 0.733735
O9    O     O_R   0.674440 0.388710 0.548030 -0.540466
C4    C     C_R   0.842970 0.361963 0.564718 0.711050
V2    V     V_3+5 0.564010 0.488200 0.497780 1.445537
O10   O     O_3   0.841140 0.563630 0.511980 -0.365260
C5    C     C_R   0.873806 0.109746 0.610734 0.167529
H1    H     H_    0.866840 0.162664 0.518747 0.131787
H2    H     H_    0.891440 0.984500 0.697037 0.163993
C6    C     C_R   0.851184 0.284513 0.604440 -0.070636
C7    C     C_R   0.848365 0.314813 0.927985 -0.180067
C8    C     C_R   0.838249 0.390479 0.892014 -0.098718
C9    C     C_R   0.840957 0.367393 0.822218 -0.136456
C10   C     C_R   0.854273 0.266655 0.786156 0.081291
C11   C     C_R   0.864708 0.189513 0.823527 0.071015
C12   C     C_R   0.857348 0.240030 0.714480 0.048172
C13   C     C_R   0.870737 0.136943 0.681628 0.098109
C14   C     C_R   0.880947 0.063241 0.720062 -0.165162
C15   C     C_R   0.877983 0.088885 0.789485 -0.207420
C16   C     C_R   0.847780 0.312538 0.674191 -0.207494
C17   C     C_R   0.864043 0.183752 0.572953 -0.185937
C18   C     C_R   0.861466 0.214649 0.894528 -0.073817
H3    H     H_    0.837987 0.391730 0.695124 0.113024
H4    H     H_    0.845624 0.334381 0.982245 0.105064
H5    H     H_    0.832211 0.430493 0.798349 0.135914
H6    H     H_    0.827920 0.467922 0.918446 0.141413
H7    H     H_    0.886282 0.028486 0.816359 0.119862
C19   C     C_2   0.005187 0.288622 0.285262 -0.131642
C20   C     C_2   0.841868 0.315657 0.319747 -0.305456
H8    H     H_    0.142361 0.317105 0.307458 0.132876
H9    H     H_    0.703172 0.287636 0.299253 0.125789
C21   C     C_2   0.013869 0.220542 0.217661 -0.133034
C22   C     C_2   0.858861 0.183283 0.180345 -0.303931
H10   H     H_    0.156796 0.201242 0.197929 0.130844
H11   H     H_    0.714692 0.201785 0.198537 0.125860
C23   C     C_2   0.224240 0.801406 0.777999 -0.153274
C24   C     C_2   0.357324 0.801613 0.826392 0.018798
H12   H     H_    0.115541 0.859447 0.785713 0.118666
C25   C     C_2   0.210046 0.724608 0.714626 -0.083908
C26   C     C_2   0.364349 0.691336 0.676910 -0.270971
H13   H     H_    0.066363 0.700967 0.696356 0.150723
H14   H     H_    0.506584 0.720946 0.692650 0.167063
C27   C     C_R   0.379482 0.888994 0.387686 -0.123902
H15   H     H_    0.375675 0.838789 0.480498 0.141327
H16   H     H_    0.393322 0.014246 0.304523 0.123949
H17   H     H_    0.390811 0.967279 0.412760 0.131024
C28   C     C_R   0.356395 0.714979 0.395257 -0.041583
C29   C     C_R   0.342136 0.684801 0.071425 -0.156689
C30   C     C_R   0.332617 0.608758 0.107172 -0.119366
C31   C     C_R   0.337662 0.631471 0.176977 -0.157844
C32   C     C_R   0.352523 0.732156 0.213182 0.081484
C33   C     C_R   0.361899 0.809856 0.176096 0.064849
C34   C     C_R   0.358463 0.758321 0.284776 0.073872
C35   C     C_R   0.373364 0.861201 0.317434 0.127243
C36   C     C_R   0.382042 0.935734 0.279921 -0.191962
C37   C     C_R   0.376463 0.910688 0.210446 -0.193330
C38   C     C_R   0.350188 0.686087 0.325372 -0.214803
C39   C     C_R   0.370980 0.816223 0.426353 -0.120200
C40   C     C_R   0.356629 0.784998 0.105116 -0.079074
H18   H     H_    0.338753 0.606757 0.304576 0.093336
H19   H     H_    0.338177 0.665492 0.017149 0.126889
H20   H     H_    0.329629 0.568272 0.200859 0.107048
H21   H     H_    0.321281 0.531316 0.080548 0.122445
H22   H     H_    0.383740 0.971461 0.183828 0.114746
O11   O     O_R   0.203230 0.917310 0.915020 -0.543961
O12   O     O_R   0.535500 0.888690 0.048040 -0.537194
O13   O     O_R   0.711080 0.082610 0.085000 -0.547430
C41   C     C_R   0.366502 0.862295 0.065013 0.696914
O14   O     O_R   0.532630 0.905370 0.913230 -0.526735
O15   O     O_R   0.708190 0.099410 0.949230 -0.539477
C42   C     C_R   0.363584 0.881607 0.887638 0.721806
O16   O     O_R   0.206120 0.900510 0.050790 -0.538983
O17   O     O_3   0.375360 0.063570 0.011990 -0.378155
V3    V     V_3+5 0.648170 0.988200 0.997780 1.462619
O18   O     O_R   0.038240 0.111390 0.951940 -0.543072
C43   C     C_R   0.869735 0.137583 0.934871 0.685141
O19   O     O_R   0.041120 0.094710 0.086750 -0.544763
C44   C     C_R   0.872684 0.115704 0.113532 0.735744
V4    V     V_3+5 0.148810 0.011930 0.002180 1.435308
O20   O     O_3   0.871750 0.936430 0.988010 -0.361396
I1    I     I_    0.555085 0.681933 0.825518 -0.473384
I2    I     I_    0.893318 0.959044 0.555585 -0.484877

loop_
_geom_bond_atom_site_label_1
_geom_bond_atom_site_label_2
_ccdc_geom_bond_type
O19   C44   A    
O15   V3    S    
O12   V3    S    
C20   H9    S    
C6    C16   A    
O18   C43   A    
C23   C25   S    
C12   C13   A    
O16   V4    S    
V3    O20   S    
C22   C44   S    
C14   C15   A    
O12   C41   A    
C19   C21   S    
O5    C3    A    
O14   V3    S    
C27   C35   A    
C29   H19   S    
H15   C39   S    
C31   H20   S    
V2    O10   S    
C37   H22   S    
C32   C34   A    
C27   C39   A    
O15   C43   A    
O8    V2    S    
O13   C44   A    
C25   H13   S    
C26   H14   S    
C9    C10   A    
O1    V2    S    
O7    V1    S    
C30   H21   S    
C1    O6    A    
C11   C18   A    
C30   C31   A    
O9    C4    A    
C40   C41   S    
C5    I2    S    
C21   H10   S    
C28   C38   A    
H16   C36   S    
C23   H12   S    
C11   C15   A    
O17   V4    S    
C7    C18   A    
C34   C38   A    
C33   C37   A    
C5    C13   A    
C4    C6    S    
C10   C11   A    
O4    C2    A    
O18   V4    S    
O11   C42   A    
C7    H4    S    
O13   V3    S    
C29   C30   A    
C33   C40   A    
C1    C26   S    
C31   C32   A    
O2    C1    A    
C41   O16   A    
O17   V3    S    
C18   C43   S    
H2    C14   S    
C22   H11   S    
O3    C4    A    
C12   C16   A    
O6    V2    S    
C9    H5    S    
O9    V2    S    
C5    C17   A    
C21   C22   D    
C28   C39   A    
O2    V1    S    
O14   C42   A    
C27   H17   S    
C23   C24   D    
C16   H3    S    
O1    C2    A    
C24   I1    S    
C10   C12   A    
O5    V1    S    
O8    C3    A    
C29   C40   A    
C8    H6    S    
C38   H18   S    
C35   C36   A    
C3    C20   S    
O19   V4    S    
O7    V2    S    
O4    V1    S    
C36   C37   A    
O3    V1    S    
V1    O10   S    
C19   H8    S    
C19   C20   D    
C24   C42   S    
C32   C33   A    
O11   V4    S    
C34   C35   A    
C25   C26   D    
C15   H7    S    
C13   C14   A    
C8    C9    A    
H1    C17   S    
V4    O20   S    
C7    C8    A    
C2    C28   S    
C6    C17   A    
