data_mof_unit_42362.cif
_audit_creation_date              2013-03-05T16:40:15-0500
_audit_creation_method            fapswitch 2.2
_symmetry_space_group_name_H-M    P1
_symmetry_Int_Tables_number       1
_space_group_crystal_system       triclinic
_cell_length_a                    19.317548
_cell_length_b                    18.446472
_cell_length_c                    8.908297
_cell_angle_alpha                 90.021895
_cell_angle_beta                  90.095001
_cell_angle_gamma                 89.90463
_cell_volume                      3174.37898229

loop_
_atom_site_label
_atom_site_type_symbol
_atom_site_description
_atom_site_fract_x
_atom_site_fract_y
_atom_site_fract_z
_atom_type_partial_charge
O1    O     O_R   0.398180 0.560840 0.499960 -0.597811
O2    O     O_R   0.601820 0.439160 0.500040 -0.597858
O3    O     O_R   0.601820 0.560840 0.500040 -0.599837
O4    O     O_R   0.398180 0.439160 0.499960 -0.599772
C1    C     C_R   0.365897 0.500046 0.499835 0.996880
C2    C     C_R   0.634103 0.499953 0.500163 0.997273
O5    O     O_R   0.500000 0.560800 0.285330 -0.641361
O6    O     O_R   0.500000 0.439200 0.714670 -0.641331
O7    O     O_R   0.500000 0.560800 0.714670 -0.590929
O8    O     O_R   0.500000 0.439200 0.285330 -0.590920
C3    C     C_R   0.499949 0.500000 0.218393 1.013027
C4    C     C_R   0.500038 0.500000 0.781607 1.013035
Zn1   Zn    Zn3+2 0.500000 0.581210 0.500000 1.019714
Zn2   Zn    Zn3+2 0.500000 0.418790 0.500000 1.019742
C5    C     C_1   0.499973 0.499998 0.065322 -0.101413
C6    C     C_1   0.500009 0.500002 0.934678 -0.101463
C7    C     C_R   0.745261 0.455464 0.397450 0.286590
C8    C     C_R   0.254701 0.544645 0.602200 0.286643
C9    C     C_R   0.254796 0.455542 0.396828 0.293205
C10   C     C_R   0.745234 0.544337 0.603270 0.292956
C11   C     C_R   0.817212 0.455164 0.400652 -0.212327
C12   C     C_R   0.182749 0.544950 0.598864 -0.212462
C13   C     C_R   0.182842 0.455294 0.399654 -0.210032
C14   C     C_R   0.817189 0.544604 0.600277 -0.209996
H1    H     H_    0.845530 0.422015 0.321131 0.184774
H2    H     H_    0.154406 0.578179 0.678190 0.184745
H3    H     H_    0.154576 0.421978 0.320316 0.185005
H4    H     H_    0.845493 0.577830 0.679710 0.185132
C15   C     C_R   0.852956 0.499871 0.500506 -0.018965
C16   C     C_R   0.147036 0.500146 0.499132 -0.018871
C17   C     C_R   0.709035 0.499877 0.500355 -0.290556
C18   C     C_R   0.290963 0.500120 0.499567 -0.290587
C19   C     C_R   0.963971 0.565873 0.497912 -0.165618
C20   C     C_R   0.036010 0.434146 0.501585 -0.165657
C21   C     C_R   0.035676 0.565937 0.497355 -0.165893
C22   C     C_R   0.964306 0.434081 0.502122 -0.165859
H5    H     H_    0.936426 0.617059 0.494672 0.156056
H6    H     H_    0.063549 0.382957 0.504861 0.156034
H7    H     H_    0.062952 0.617176 0.493776 0.155951
H8    H     H_    0.937025 0.382843 0.505699 0.155969
C23   C     C_R   0.071816 0.500074 0.499216 0.145077
C24   C     C_R   0.928171 0.499945 0.500297 0.145013
C25   C     C_R   0.540982 0.725750 0.598765 -0.111943
C26   C     C_R   0.459018 0.274250 0.401234 -0.111800
C27   C     C_R   0.459093 0.725919 0.401203 -0.116571
C28   C     C_R   0.540906 0.274081 0.598799 -0.116695
H9    H     H_    0.574049 0.694686 0.672744 0.181432
H10   H     H_    0.425953 0.305314 0.327253 0.181650
H11   H     H_    0.426011 0.695026 0.327113 0.151959
H12   H     H_    0.573987 0.304973 0.672890 0.152012
C29   C     C_R   0.540832 0.802516 0.604332 0.344530
C30   C     C_R   0.459166 0.197485 0.395670 0.344563
C31   C     C_R   0.459354 0.802656 0.395647 0.349164
C32   C     C_R   0.540643 0.197343 0.604357 0.349143
C33   C     C_R   0.500093 0.841448 0.500007 -0.092991
C34   C     C_R   0.499904 0.158552 0.499996 -0.093021
N1    N     N_R   0.500000 0.689440 0.500000 -0.126446
N2    N     N_R   0.500000 0.310560 0.500000 -0.126494
C35   C     C_R   0.515359 0.961889 0.368533 -0.140739
C36   C     C_R   0.484638 0.038111 0.631471 -0.140715
C37   C     C_R   0.484742 0.961969 0.631501 -0.136896
C38   C     C_R   0.515254 0.038031 0.368503 -0.136924
H13   H     H_    0.528164 0.933384 0.266007 0.140759
H14   H     H_    0.471832 0.066616 0.733997 0.140764
H15   H     H_    0.472040 0.933527 0.734058 0.141174
H16   H     H_    0.527956 0.066472 0.265946 0.141166
C39   C     C_R   0.499910 0.077171 0.499980 0.235639
C40   C     C_R   0.500086 0.922829 0.500023 0.235632
N3    N     N_R   0.710137 0.412829 0.285621 0.221287
O9    O     O_R   0.659900 0.440926 0.207364 -0.399205
O10   O     O_R   0.735167 0.350217 0.245533 -0.380490
N4    N     N_R   0.289783 0.587390 0.713905 0.221308
O11   O     O_R   0.339988 0.559365 0.792377 -0.399240
O12   O     O_R   0.264745 0.650046 0.753662 -0.380485
N5    N     N_R   0.290000 0.412487 0.285867 0.211170
O13   O     O_R   0.265437 0.349490 0.247447 -0.393742
O14   O     O_R   0.339980 0.440341 0.207090 -0.415393
N6    N     N_R   0.710069 0.587223 0.714586 0.211215
O15   O     O_R   0.734768 0.650054 0.753744 -0.393633
O16   O     O_R   0.659976 0.559319 0.792951 -0.415254
O17   O     O_3   0.584252 0.840869 0.700230 -0.587087
C41   C     C_3   0.580344 0.814144 0.848697 0.108601
H17   H     H_    0.617036 0.768178 0.863158 0.193566
H18   H     H_    0.527045 0.796152 0.878532 0.114728
C42   C     C_3   0.600966 0.874030 0.957361 -0.791604
H19   H     H_    0.564598 0.920480 0.947334 0.234803
H20   H     H_    0.599422 0.853259 0.074292 0.202391
H21   H     H_    0.654257 0.892935 0.932291 0.280239
O18   O     O_3   0.415746 0.159131 0.299773 -0.587010
C43   C     C_3   0.419652 0.185856 0.151306 0.108688
H22   H     H_    0.472952 0.203847 0.121470 0.114656
H23   H     H_    0.382961 0.231823 0.136845 0.193699
C44   C     C_3   0.399030 0.125971 0.042642 -0.791596
H24   H     H_    0.345738 0.107067 0.067714 0.280264
H25   H     H_    0.400574 0.146741 0.925711 0.202393
H26   H     H_    0.435396 0.079520 0.052670 0.234796
O19   O     O_3   0.416045 0.841075 0.299481 -0.589419
C45   C     C_3   0.421372 0.815113 0.150587 0.099298
H27   H     H_    0.385693 0.768567 0.134037 0.174433
H28   H     H_    0.475195 0.798215 0.121975 0.115804
C46   C     C_3   0.400246 0.875089 0.042518 -0.777698
H29   H     H_    0.435658 0.922120 0.054392 0.232529
H30   H     H_    0.402859 0.854813 0.925271 0.207104
H31   H     H_    0.346460 0.892960 0.066463 0.277610
O20   O     O_3   0.583951 0.158925 0.700523 -0.589442
C47   C     C_3   0.578624 0.184887 0.849417 0.099322
H32   H     H_    0.524802 0.201785 0.878028 0.115819
H33   H     H_    0.614304 0.231432 0.865968 0.174453
C48   C     C_3   0.599749 0.124911 0.957487 -0.777766
H34   H     H_    0.653535 0.107039 0.933543 0.277601
H35   H     H_    0.597136 0.145187 0.074734 0.207088
H36   H     H_    0.564337 0.077880 0.945613 0.232540

loop_
_geom_bond_atom_site_label_1
_geom_bond_atom_site_label_2
_geom_bond_distance
_ccdc_geom_bond_type
C7    N3    1.438834 S    
C44   H24   1.110539 S    
C15   C24   1.452963 S    
C22   C24   1.400278 A    
O3    C2    1.283752 A    
C33   C40   1.501188 S    
C42   H19   1.110648 S    
O5    C3    1.270002 A    
C27   N1    1.359497 A    
C46   H29   1.110619 S    
C38   C39   1.407384 A    
C41   C42   1.521652 S    
O1    C1    1.284076 A    
C19   C24   1.400211 A    
C48   H35   1.110478 S    
N6    O16   1.301093 A    
Zn1   N1    1.996460 S    
C47   H32   1.114853 S    
C5    C6    1.163824 T    
O19   C45   1.413883 S    
N3    O10   1.301411 A    
O7    Zn1   1.949194 S    
C14   C15   1.395635 A    
C3    C5    1.363601 S    
C4    C6    1.363600 S    
C36   C39   1.407405 A    
C26   N2    1.359586 A    
C16   C23   1.453066 S    
C13   H3    1.083910 S    
C29   O17   1.390320 S    
C20   C22   1.385176 A    
O3    Zn1   2.001868 S    
C1    C18   1.447547 S    
C26   C30   1.416907 A    
C42   H20   1.110489 S    
C2    C17   1.447505 S    
C27   C31   1.416434 A    
C46   H30   1.110478 S    
C20   H6    1.083396 S    
C28   N2    1.359494 A    
C30   O18   1.390322 S    
O2    C2    1.284065 A    
C20   C23   1.400269 A    
O2    Zn2   2.003096 S    
C9    C18   1.414628 A    
O7    C4    1.270411 A    
O17   C41   1.413829 S    
C31   C33   1.412306 A    
C8    N4    1.438816 S    
Zn2   N2    1.996460 S    
C32   C34   1.412306 A    
C38   H16   1.082440 S    
C30   C34   1.412444 A    
C13   C16   1.395649 A    
C10   C14   1.390324 A    
C22   H8    1.083423 S    
N4    O12   1.301379 A    
O8    Zn2   1.949195 S    
C48   H36   1.110620 S    
N6    O15   1.301393 A    
O4    C1    1.283750 A    
C31   O19   1.390020 S    
C11   C15   1.395519 A    
C19   H5    1.083425 S    
C36   C37   1.404549 A    
C21   H7    1.083397 S    
N5    O13   1.301417 A    
C35   C40   1.407403 A    
C43   H23   1.111641 S    
C27   H11   1.080873 S    
O6    C4    1.270003 A    
C28   C32   1.416437 A    
N5    O14   1.301077 A    
C41   H17   1.111642 S    
C44   H26   1.110647 S    
C41   H18   1.114905 S    
C7    C17   1.414539 A    
C8    C18   1.414508 A    
C45   C46   1.521626 S    
C9    C13   1.390258 A    
C43   C44   1.521653 S    
C42   H21   1.110538 S    
C11   H1    1.083891 S    
C35   C38   1.404549 A    
O6    Zn2   1.948912 S    
C12   C16   1.395588 A    
C32   O20   1.390019 S    
C8    C12   1.390193 A    
C14   H4    1.083885 S    
N4    O11   1.301099 A    
C46   H31   1.110528 S    
C34   C39   1.501188 S    
O20   C47   1.413883 S    
C28   H12   1.080872 S    
C35   H13   1.082495 S    
C10   N6    1.438907 S    
C36   H14   1.082495 S    
C9    N5    1.438804 S    
C48   H34   1.110528 S    
C37   C40   1.407383 A    
C25   C29   1.416909 A    
C43   H22   1.114905 S    
C47   H33   1.111538 S    
C19   C21   1.385181 A    
C29   C33   1.412444 A    
O4    Zn2   2.001868 S    
N3    O9    1.301078 A    
C21   C23   1.400321 A    
C45   H28   1.114855 S    
C7    C11   1.390174 A    
O8    C3    1.270413 A    
C25   N1    1.359586 A    
C37   H15   1.082440 S    
O5    Zn1   1.948913 S    
O1    Zn1   2.003096 S    
C44   H25   1.110488 S    
C45   H27   1.111538 S    
C12   H2    1.083829 S    
O18   C43   1.413829 S    
C25   H9    1.080904 S    
C47   C48   1.521626 S    
C26   H10   1.080900 S    
C10   C17   1.414674 A    
