data_mof_unit_6316.cif
_audit_creation_date              2012-12-11T19:20:28-0500
_audit_creation_method            fapswitch 2.2
_symmetry_space_group_name_H-M    P1
_symmetry_Int_Tables_number       1
_space_group_crystal_system       triclinic
_cell_length_a                    8.237579
_cell_length_b                    14.966087
_cell_length_c                    18.791128
_cell_angle_alpha                 101.799569
_cell_angle_beta                  91.468223
_cell_angle_gamma                 98.444558
_cell_volume                      2239.40456281

loop_
_atom_site_label
_atom_site_type_symbol
_atom_type_description
_atom_site_fract_x
_atom_site_fract_y
_atom_site_fract_z
_atom_type_partial_charge
Ba1   Ba    Ba6+2 0.853510 0.540900 0.466480 1.594052
Ba2   Ba    Ba6+2 0.336320 0.459170 0.533530 1.583070
C1    C     C_3   0.540162 0.815504 0.238307 0.366243
C2    C     C_R   0.896961 0.404573 0.088889 0.034459
C3    C     C_R   0.739368 0.359284 0.061831 -0.084889
C4    C     C_3   0.116696 0.720567 0.274737 0.428258
C5    C     C_R   0.678154 0.364397 0.993036 -0.075015
C6    C     C_R   0.775715 0.411880 0.948408 0.016926
C7    C     C_R   0.936214 0.455097 0.973498 0.040830
C8    C     C_R   0.716014 0.414292 0.878481 -0.113095
C9    C     C_R   0.816639 0.455574 0.830682 -0.042346
C10   C     C_R   0.978225 0.500096 0.855658 0.000037
C11   C     C_R   0.036617 0.500233 0.927634 -0.019573
C12   C     C_3   0.614278 0.770898 0.295089 0.686167
C13   C     C_R   0.762111 0.451209 0.757952 0.003495
C14   C     C_R   0.869845 0.487189 0.710625 -0.300491
C15   C     C_R   0.026730 0.535683 0.734631 0.047386
C16   C     C_3   0.095793 0.741680 0.199481 -0.335576
C17   C     C_R   0.081764 0.543714 0.808873 -0.051485
C18   C     C_R   0.156186 0.495695 0.070123 -0.016537
C19   C     C_R   0.214002 0.495910 0.142176 0.002512
C20   C     C_R   0.109761 0.452512 0.188944 -0.043129
C21   C     C_R   0.955514 0.403249 0.159666 -0.055990
C22   C     C_R   0.237779 0.591835 0.837743 -0.024007
C23   C     C_3   0.510085 0.322710 0.305056 0.352623
C24   C     C_R   0.297852 0.588692 0.907887 0.019891
C25   C     C_R   0.197183 0.542830 0.953092 0.001293
C26   C     C_R   0.257373 0.539959 0.023983 0.025951
C27   C     C_R   0.459013 0.629494 0.933181 -0.066737
C28   C     C_3   0.245449 0.745216 0.630311 0.297468
C29   C     C_R   0.519579 0.625033 0.002429 -0.098566
C30   C     C_R   0.419303 0.581133 0.048464 0.041980
C31   C     C_R   0.375918 0.539674 0.167103 -0.034750
C32   C     C_R   0.478316 0.579019 0.118735 -0.123074
C33   C     C_R   0.429106 0.544462 0.240148 -0.028971
C34   C     C_3   0.553024 0.299125 0.226323 -0.370751
C35   C     C_R   0.320171 0.509433 0.287378 -0.269158
C36   C     C_R   0.163404 0.460842 0.263338 0.026906
C37   C     C_R   0.337847 0.821446 0.453978 -0.021775
C38   C     C_R   0.577705 0.792003 0.517260 0.037313
C39   C     C_R   0.790190 0.220540 0.493674 -0.285746
C40   C     C_3   0.279566 0.850182 0.652787 -0.389078
C41   C     C_R   0.865812 0.171263 0.537488 0.047628
C42   C     C_R   0.782946 0.087191 0.549212 0.290995
C43   C     C_R   0.633940 0.044427 0.507137 -0.045731
C44   C     C_R   0.551287 0.100396 0.469787 -0.046961
C45   C     C_3   0.054172 0.277437 0.724170 0.373386
C46   C     C_R   0.564796 0.948797 0.499600 0.038845
C47   C     C_R   0.407503 0.915259 0.462349 -0.010013
C48   C     C_R   0.324956 0.975127 0.432216 -0.079043
C49   C     C_R   0.397429 0.064425 0.433728 -0.022605
C50   C     C_R   0.649443 0.884061 0.524393 -0.141811
C51   C     C_R   0.425207 0.760560 0.480154 -0.285118
C52   C     C_3   0.088473 0.237287 0.308531 0.224194
C53   C     C_R   0.625695 0.190850 0.467671 0.029339
C54   C     C_3   0.122906 0.207574 0.228713 -0.376146
C55   C     C_3   0.729560 0.674692 0.688456 0.309900
C56   C     C_3   0.055084 0.253534 0.799009 -0.366636
C57   C     C_3   0.746634 0.706001 0.770938 -0.382337
C58   C     C_3   0.886793 0.303733 0.473230 -0.215192
C59   C     C_3   0.525134 0.223004 0.683033 0.341896
C60   C     C_3   0.470733 0.128451 0.700186 -0.329424
C61   C     C_R   0.996274 0.452346 0.044388 -0.000554
H1    H     H_    0.376153 0.871802 0.697887 0.121015
H2    H     H_    0.629701 0.614500 0.674220 0.067219
H3    H     H_    0.851668 0.763083 0.786955 0.125127
H4    H     H_    0.768297 0.647988 0.796508 0.054750
H5    H     H_    0.632174 0.730618 0.791258 0.115149
H6    H     H_    0.510657 0.741460 0.324537 -0.065459
H7    H     H_    0.464676 0.866635 0.265879 0.034332
H8    H     H_    0.396448 0.353144 0.307735 -0.086242
H9    H     H_    0.607293 0.376368 0.334363 0.106592
H10   H     H_    0.453321 0.249650 0.192752 0.101443
H11   H     H_    0.571524 0.363556 0.205109 0.074195
H12   H     H_    0.322164 0.880703 0.606337 0.067235
H13   H     H_    0.666600 0.267165 0.222520 0.134147
H14   H     H_    0.457626 0.762073 0.198168 -0.100437
H15   H     H_    0.127765 0.684252 0.157464 0.058048
H16   H     H_    0.147721 0.339502 0.725933 0.083541
H17   H     H_    0.930531 0.293084 0.711268 -0.067996
H18   H     H_    0.177880 0.237872 0.813475 0.137747
H19   H     H_    0.027391 0.312477 0.840578 0.075065
H20   H     H_    0.960634 0.192427 0.799116 0.124939
H21   H     H_    0.660399 0.232842 0.678538 -0.062062
H22   H     H_    0.464160 0.224213 0.629998 0.087689
H23   H     H_    0.165577 0.877090 0.671161 0.142443
H24   H     H_    0.543344 0.120989 0.748660 0.100388
H25   H     H_    0.489046 0.073413 0.653091 0.052764
H26   H     H_    0.029027 0.657605 0.277068 0.097028
H27   H     H_    0.338326 0.119735 0.711328 0.162794
H28   H     H_    0.662888 0.319263 0.093404 0.062265
H29   H     H_    0.555152 0.329596 0.974175 0.068095
H30   H     H_    0.827757 0.480968 0.654559 0.066564
H31   H     H_    0.591535 0.381467 0.861553 0.114685
H32   H     H_    0.878627 0.364976 0.192053 0.096134
H33   H     H_    0.316442 0.630211 0.805650 0.095042
H34   H     H_    0.043803 0.173983 0.328927 0.058914
H35   H     H_    0.539073 0.664224 0.899120 0.061481
H36   H     H_    0.644730 0.656807 0.020274 0.067337
H37   H     H_    0.603675 0.610415 0.135512 0.096883
H38   H     H_    0.243781 0.706756 0.282438 -0.141795
H39   H     H_    0.361350 0.516627 0.343705 0.072961
H40   H     H_    0.370711 0.689017 0.474764 0.076653
H41   H     H_    0.205666 0.953091 0.403903 0.117083
H42   H     H_    0.773782 0.901765 0.547274 0.155850
H43   H     H_    0.330715 0.103911 0.404543 0.086793
H44   H     H_    0.966683 0.749964 0.188168 0.155752
H45   H     H_    0.197907 0.271067 0.343104 0.072615
H46   H     H_    0.177256 0.806508 0.196110 0.109564
H47   H     H_    0.360745 0.719314 0.614310 0.015298
H48   H     H_    0.152959 0.725507 0.583589 0.073862
H49   H     H_    0.747744 0.809391 0.384421 0.319552
H50   H     H_    0.697912 0.813927 0.163450 0.301012
H51   H     H_    0.013965 0.292288 0.461231 0.128517
H52   H     H_    0.835726 0.315840 0.422553 0.132321
H53   H     H_    0.883825 0.366263 0.516304 0.132875
H54   H     H_    0.749281 0.027284 0.630160 0.285409
H55   H     H_    0.007552 0.172414 0.196846 0.131383
H56   H     H_    0.212905 0.158540 0.223203 0.111284
H57   H     H_    0.172435 0.268475 0.206433 0.071362
H58   H     H_    0.846854 0.654587 0.668679 0.010829
O1    O     O_2   0.871970 0.437290 0.322980 -0.459235
O2    O     O_2   0.206942 0.180739 0.544239 -0.478729
O3    O     O_3   0.092361 0.202144 0.673000 -0.556590
O4    O     O_3   0.121420 0.444460 0.412460 -0.489363
O5    O     O_3   0.580410 0.613230 0.540280 -0.490002
O6    O     O_2   0.337420 0.273080 0.457680 -0.478824
O7    O     O_3   0.490374 0.242218 0.333442 -0.647628
O8    O     O_2   0.426139 0.461184 0.755938 -0.492388
O9    O     O_3   0.479152 0.291166 0.738668 -0.606532
O10   O     O_3   0.661430 0.607560 0.372520 -0.478349
O11   O     O_2   0.766421 0.536612 0.244138 -0.492076
O12   O     O_3   0.693060 0.748227 0.658649 -0.628621
O13   O     O_3   0.963900 0.291732 0.315525 -0.632962
O14   O     O_3   0.708760 0.705208 0.259919 -0.619198
O15   O     O_2   0.852280 0.726960 0.542370 -0.457402
O16   O     O_3   0.083990 0.657360 0.410240 -0.490964
O17   O     O_2   0.002377 0.821799 0.462843 -0.473738
O18   O     O_3   0.716622 0.839544 0.344981 -0.681991
O19   O     O_3   0.664040 0.861327 0.202966 -0.679674
O20   O     O_3   0.844228 0.053574 0.605603 -0.726229
O21   O     O_3   0.084960 0.796061 0.327707 -0.576927
O22   O     O_2   0.317740 0.562750 0.677070 -0.464432
O23   O     O_3   0.068290 0.555610 0.587550 -0.495975
O24   O     O_3   0.528280 0.392520 0.627490 -0.476773
O25   O     O_3   0.187286 0.710050 0.689817 -0.636486
O26   O     O_3   0.609300 0.386850 0.459730 -0.494622
O27   O     O_3   0.105720 0.342720 0.589770 -0.510364
P1    P     P_3+3 0.039440 0.410950 0.333260 0.960592
P2    P     P_3+3 0.676740 0.714970 0.563520 0.980006
P3    P     P_3+3 0.127728 0.775253 0.414216 0.958175
P4    P     P_3+3 0.150270 0.589130 0.666750 0.969536
P5    P     P_3+3 0.067617 0.223426 0.585510 1.014239
P6    P     P_3+3 0.639521 0.596408 0.278415 0.908743
P7    P     P_3+3 0.515386 0.271414 0.428720 0.929543
P8    P     P_3+3 0.550483 0.400136 0.720852 0.936470

loop_
_geom_bond_atom_site_label_1
_geom_bond_atom_site_label_2
_ccdc_geom_bond_type
C48   H41   S    
Ba2   O23   S    
C58   H51   S    
C16   H46   S    
C45   H16   S    
C5    C6    A    
C43   C44   A    
Ba2   O24   S    
C53   P7    S    
C2    C61   A    
C14   H30   S    
O14   P6    S    
C27   H35   S    
C28   H47   S    
C33   C35   A    
C23   O7    S    
Ba1   O4    S    
C56   H19   S    
C57   H3    S    
C35   H39   S    
C59   H22   S    
C55   C57   S    
C19   C31   A    
C12   O14   S    
C8    H31   S    
Ba2   O27   S    
C13   C14   A    
C20   C36   A    
C37   P3    S    
Ba1   Ba2   S    
C4    H38   S    
C7    C11   A    
C16   H44   S    
C39   C53   A    
C34   H13   S    
O7    P7    S    
C57   H4    S    
Ba1   O1    S    
O24   P8    S    
C9    C13   A    
C6    C7    A    
C44   C53   A    
O11   P6    D    
C33   P6    S    
C52   H34   S    
Ba1   P1    S    
C23   H8    S    
C29   H36   S    
C4    O21   S    
Ba1   O15   S    
O26   P7    S    
C36   P1    S    
O16   P3    S    
Ba2   O6    S    
O3    P5    S    
C27   C29   A    
Ba2   O22   S    
C39   C41   A    
H49   O18   S    
C55   O12   S    
C45   H17   S    
C28   O25   S    
Ba2   P4    S    
C4    C16   S    
C52   C54   S    
O1    P1    D    
C26   C30   A    
C1    H7    S    
Ba1   O5    S    
C34   H10   S    
C56   H18   S    
O6    P7    D    
C3    C5    A    
C2    C21   A    
C14   C15   A    
C18   C26   A    
C48   C49   A    
Ba2   O26   S    
C38   C50   A    
O13   P1    S    
C60   H25   S    
C44   C49   A    
C30   C32   A    
O21   P3    S    
H54   O20   S    
C41   C42   A    
C35   C36   A    
C57   H5    S    
C32   H37   S    
C29   C30   A    
C16   H15   S    
C55   H2    S    
C31   C32   A    
C40   H12   S    
H50   O19   S    
C38   P2    S    
Ba1   P2    S    
C23   H9    S    
C10   C11   A    
C1    O19   S    
C13   P8    S    
C3    H28   S    
C1    C12   S    
C34   H11   S    
C59   O9    S    
C40   H23   S    
Ba2   O5    S    
O22   P4    D    
C37   C47   A    
C50   H42   S    
C38   C51   A    
C24   C25   A    
C12   H6    S    
O25   P4    S    
C58   H53   S    
C15   P4    S    
O27   P5    S    
C15   C17   A    
C1    H14   S    
C40   H1    S    
Ba1   O16   S    
C42   C43   A    
O2    P5    D    
C43   C46   A    
C46   C47   A    
C7    C61   A    
C54   H55   S    
O10   P6    S    
C28   C40   S    
O12   P2    S    
C39   C58   S    
C22   C24   A    
C2    C3    A    
Ba1   O10   S    
C59   H21   S    
O8    P8    D    
O15   P2    D    
C9    C10   A    
C54   H57   S    
O17   P3    D    
C4    H26   S    
C60   H24   S    
C52   H45   S    
C28   H48   S    
C18   C61   A    
C22   H33   S    
C17   C22   A    
O23   P4    S    
Ba1   O23   S    
C41   P5    S    
C56   H20   S    
C45   C56   S    
O5    P2    S    
C31   C33   A    
C45   O3    S    
C37   C51   A    
C51   H40   S    
C49   H43   S    
C5    H29   S    
C60   H27   S    
C10   C17   A    
C54   H56   S    
C21   H32   S    
C59   C60   S    
O4    P1    S    
C12   O18   S    
Ba1   O26   S    
C8    C9    A    
C23   C34   S    
C55   H58   S    
Ba2   O4    S    
C46   C50   A    
C18   C19   A    
C24   C27   A    
C6    C8    A    
C47   C48   A    
C25   C26   A    
C20   C21   A    
C11   C25   A    
C58   H52   S    
O9    P8    S    
C42   O20   S    
C19   C20   A    
C52   O13   S    
