data_mof_unit_10121.cif
_audit_creation_date              2013-03-05T16:11:55-0500
_audit_creation_method            fapswitch 2.2
_symmetry_space_group_name_H-M    P1
_symmetry_Int_Tables_number       1
_space_group_crystal_system       triclinic
_cell_length_a                    8.70805
_cell_length_b                    16.336541
_cell_length_c                    22.95708
_cell_angle_alpha                 108.26626
_cell_angle_beta                  90.515435
_cell_angle_gamma                 83.996069
_cell_volume                      3083.30470885

loop_
_atom_site_label
_atom_site_type_symbol
_atom_site_description
_atom_site_fract_x
_atom_site_fract_y
_atom_site_fract_z
_atom_type_partial_charge
P1    P     P_3+3 0.594550 0.425840 0.359090 0.547379
O1    O     O_2   0.414630 0.451750 0.353890 -0.354942
O2    O     O_3   0.654720 0.452660 0.425060 -0.335288
O3    O     O_3   0.116150 0.611500 0.411510 -0.365822
O4    O     O_2   0.249301 0.547395 0.300680 -0.403338
O5    O     O_3   0.634953 0.318625 0.306375 -0.608657
O6    O     O_3   0.110559 0.705825 0.328659 -0.474612
H1    H     H_    0.091453 0.761339 0.423895 0.090901
C1    C     C_3   0.071062 0.861388 0.382584 -0.043399
H2    H     H_    0.043521 0.907020 0.429515 0.056735
H3    H     H_    0.194782 0.863397 0.374427 0.145216
P2    P     P_3+3 0.065650 0.701630 0.573510 0.541400
P3    P     P_3+3 0.501901 0.770799 0.466980 0.458516
O7    O     O_2   0.236590 0.714510 0.558180 -0.368845
O8    O     O_3   0.511480 0.656670 0.446630 -0.326676
O9    O     O_2   0.358460 0.806288 0.509756 -0.409297
O10   O     O_3   0.069368 0.737779 0.654002 -0.591213
O11   O     O_3   0.452443 0.810382 0.405299 -0.565680
C2    C     C_3   0.484133 0.746627 0.347847 0.180043
H4    H     H_    0.395624 0.700566 0.338778 0.153185
H5    H     H_    0.595544 0.707318 0.348129 0.069300
C3    C     C_3   0.486692 0.789329 0.295220 0.368480
C4    C     C_3   0.471012 0.740709 0.679562 0.549095
H6    H     H_    0.370288 0.703191 0.669656 0.065187
C5    C     C_3   0.462982 0.801969 0.747195 -0.016345
H7    H     H_    0.562391 0.841490 0.754681 0.206279
Ba1   Ba    Ba6+2 0.335320 0.541410 0.478120 1.641030
C6    C     C_3   0.618202 0.240943 0.319812 0.850495
C7    C     C_3   0.648330 0.166082 0.258751 -0.780026
H8    H     H_    0.569935 0.176571 0.222850 0.232752
H9    H     H_    0.633060 0.102233 0.264344 0.264045
H10   H     H_    0.768101 0.162138 0.241232 0.256489
C8    C     C_3   0.053073 0.673725 0.681488 0.352229
H11   H     H_    0.169360 0.649227 0.692007 0.008838
H12   H     H_    0.998463 0.618086 0.651921 0.144452
C9    C     C_3   0.957862 0.716514 0.741540 -0.362614
H13   H     H_    0.963529 0.787744 0.757520 0.232645
H14   H     H_    0.835263 0.706661 0.733166 0.223625
P4    P     P_3+3 0.595130 0.574230 0.640920 0.539017
O12   O     O_2   0.775060 0.548280 0.646150 -0.317378
O13   O     O_3   0.534950 0.547420 0.574950 -0.332225
O14   O     O_3   0.073530 0.388570 0.588510 -0.326520
O15   O     O_3   0.611635 0.686834 0.668639 -0.564132
P5    P     P_3+3 0.686800 0.229617 0.541108 0.553415
O16   O     O_3   0.168220 0.394330 0.455930 -0.358490
O17   O     O_3   0.678190 0.343400 0.553390 -0.321467
O18   O     O_2   0.816341 0.193444 0.491359 -0.319785
O19   O     O_3   0.772093 0.193508 0.602371 -0.482693
Ba2   Ba    Ba6+2 0.854470 0.458670 0.521900 1.665958
P6    P     P_3+3 0.100243 0.601071 0.333811 0.491330
C10   C     C_3   0.040258 0.769456 0.381305 0.549493
O20   O     O_3   0.021450 0.605740 0.544090 -0.329927
C11   C     C_3   0.131844 0.303834 0.310763 0.481685
H15   H     H_    0.191003 0.360485 0.336883 0.136572
C12   C     C_3   0.213207 0.260429 0.246396 0.252584
H16   H     H_    0.325285 0.227260 0.252319 0.132124
P7    P     P_3+3 0.127466 0.284744 0.423442 0.563032
O21   O     O_2   0.953100 0.285520 0.441860 -0.370767
O22   O     O_3   0.132366 0.241977 0.342052 -0.508653
C13   C     C_3   0.681187 0.216778 0.658019 0.551238
H17   H     H_    0.571198 0.191380 0.646831 -0.068240
C14   C     C_3   0.745880 0.171298 0.706463 0.447339
P8    P     P_3+3 0.099946 0.420730 0.668129 0.522784
C15   C     C_3   0.201234 0.255097 0.658403 0.983204
O23   O     O_2   0.944342 0.467185 0.696298 -0.344860
O24   O     O_3   0.105924 0.329922 0.693847 -0.529698
H18   H     H_    0.349614 0.151897 0.680756 0.238064
C16   C     C_3   0.276790 0.212618 0.704495 -0.794249
H19   H     H_    0.192499 0.196179 0.733495 0.244284
H20   H     H_    0.348641 0.258141 0.736156 0.304126
H21   H     H_    0.406697 0.317598 0.923890 0.190044
C17   C     C_R   0.826853 0.523481 0.336331 -0.419018
C18   C     C_R   0.541461 0.591270 0.959678 -0.079675
C19   C     C_R   0.481775 0.594875 0.902864 0.528683
O25   O     O_2   0.469071 0.663683 0.891866 -0.599109
N1    N     N_R   0.439195 0.521140 0.859453 -0.171502
C20   C     C_R   0.425569 0.448032 0.877016 0.622177
O26   O     O_2   0.373794 0.385259 0.841337 -0.534025
C21   C     C_R   0.471416 0.445197 0.936138 -0.121125
C22   C     C_R   0.535562 0.516042 0.976773 -0.005878
C23   C     C_R   0.611178 0.660713 0.998723 -0.185007
C24   C     C_R   0.680834 0.655251 0.052654 0.371666
C25   C     C_R   0.670455 0.580895 0.071976 -0.190535
C26   C     C_R   0.592833 0.512181 0.034606 -0.055935
C27   C     C_R   0.457073 0.372323 0.954839 -0.070338
C28   C     C_R   0.505173 0.368459 0.012858 0.220177
C29   C     C_R   0.575719 0.439096 0.054049 -0.067680
C30   C     C_R   0.628931 0.439868 0.113722 0.567317
N2    N     N_R   0.700503 0.508958 0.151440 -0.163682
C31   C     C_R   0.733163 0.574325 0.127796 0.542414
C32   C     C_2   0.272037 0.500192 0.770694 -0.181959
C33   C     C_3   0.240772 0.498394 0.705221 0.076446
C34   C     C_1   0.502874 0.529160 0.695667 0.228204
C35   C     C_2   0.531911 0.538213 0.755459 0.146651
C36   C     C_2   0.409297 0.520769 0.796056 0.179137
C37   C     C_R   0.884925 0.542536 0.239269 -0.208456
C38   C     C_R   0.922385 0.552567 0.300244 0.191873
C39   C     C_R   0.686479 0.491224 0.315714 0.302627
C40   C     C_R   0.643227 0.488397 0.255057 -0.221986
C41   C     C_R   0.742921 0.512782 0.215078 0.102065
O27   O     O_2   0.615023 0.378037 0.131483 -0.584331
O28   O     O_2   0.816640 0.627987 0.155617 -0.539144
C42   C     C_2   0.388170 0.486201 0.668711 -0.404598
H22   H     H_    0.970127 0.556526 0.210866 0.214259
H23   H     H_    0.619299 0.718597 0.985877 0.201381
H24   H     H_    0.180522 0.488893 0.798156 0.165050
H25   H     H_    0.535259 0.463843 0.238429 0.188587
H26   H     H_    0.877080 0.511836 0.376071 0.210158
H27   H     H_    0.397044 0.445706 0.620979 0.153668
C43   C     C_2   0.406482 0.238459 0.482323 -0.375611
C44   C     C_R   0.791774 0.754651 0.521162 0.008856
C45   C     C_2   0.231361 0.127132 0.438152 -0.134464
C46   C     C_2   0.256420 0.210742 0.454171 0.382853
C47   C     C_2   0.514892 0.183764 0.497640 0.143861
C48   C     C_3   0.473489 0.093985 0.491656 -0.060862
C49   C     C_3   0.356527 0.059025 0.442338 0.087179
C50   C     C_2   0.603404 0.025917 0.490466 -0.182507
C51   C     C_2   0.586572 0.969796 0.521503 0.290783
C52   C     C_R   0.858677 0.922614 0.539935 0.256237
C53   C     C_R   0.710315 0.900281 0.520782 -0.139592
C54   C     C_R   0.971183 0.862110 0.551377 -0.337729
C55   C     C_R   0.936474 0.777937 0.544079 0.194044
C56   C     C_R   0.678467 0.813677 0.508224 0.052940
H28   H     H_    0.128310 0.105947 0.413502 0.177821
H29   H     H_    0.081467 0.882411 0.568858 0.209503
H30   H     H_    0.425344 0.306140 0.493198 0.175968
H31   H     H_    0.704997 0.018569 0.461410 0.165496
C57   C     C_3   0.314292 0.865211 0.762384 -0.813666
H32   H     H_    0.312330 0.913073 0.737104 0.260727
H33   H     H_    0.211380 0.829444 0.750928 0.262756
H34   H     H_    0.307176 0.902981 0.811990 0.266009
C58   C     C_3   0.477642 0.750750 0.792631 -0.786146
H35   H     H_    0.463848 0.795054 0.840556 0.287252
H36   H     H_    0.388674 0.704888 0.784215 0.227690
H37   H     H_    0.594168 0.715045 0.788161 0.239294
N3    N     N_R   0.466522 0.241607 0.343800 0.180655
O29   O     O_R   0.414767 0.167812 0.338980 -0.446650
O30   O     O_R   0.416812 0.309538 0.388526 -0.458220
C59   C     C_3   0.730938 0.224143 0.365710 -0.747008
H38   H     H_    0.708006 0.278273 0.409033 0.260398
H39   H     H_    0.711872 0.163176 0.375151 0.230616
H40   H     H_    0.849911 0.215626 0.347148 0.255251
C60   C     C_3   0.011623 0.682031 0.793638 -0.986756
H41   H     H_    0.131646 0.696137 0.805749 0.279727
H42   H     H_    0.935540 0.713944 0.834775 0.288744
H43   H     H_    0.005550 0.611410 0.780501 0.271563
C61   C     C_3   0.867568 0.763485 0.382214 -1.045874
H44   H     H_    0.829148 0.746088 0.334746 0.271136
H45   H     H_    0.841229 0.711938 0.400989 0.244236
H46   H     H_    0.804019 0.825909 0.408625 0.225380
N4    N     N_R   0.979795 0.892363 0.338314 0.279482
O31   O     O_R   0.906021 0.969865 0.355626 -0.408386
O32   O     O_R   0.973340 0.844029 0.281442 -0.233711
C62   C     C_3   0.966799 0.334443 0.302081 -0.938759
H47   H     H_    0.905670 0.279326 0.275753 0.285187
H48   H     H_    0.910579 0.364753 0.347793 0.242895
H49   H     H_    0.962310 0.379497 0.275022 0.218125
N5    N     N_R   0.125351 0.193456 0.206285 0.267760
O33   O     O_R   0.059880 0.203290 0.157342 -0.345956
O34   O     O_R   0.112893 0.122593 0.219574 -0.298353
C63   C     C_3   0.250910 0.326842 0.215081 -0.977635
H50   H     H_    0.145175 0.361540 0.203051 0.272637
H51   H     H_    0.321300 0.374799 0.245405 0.267223
H52   H     H_    0.319825 0.293092 0.172234 0.282028
C64   C     C_3   0.583999 0.728440 0.240991 -0.816435
H53   H     H_    0.706885 0.722720 0.252383 0.269114
H54   H     H_    0.542703 0.663247 0.227499 0.219239
H55   H     H_    0.573764 0.753131 0.201043 0.300474
N6    N     N_R   0.662480 0.310952 0.686663 0.179036
O35   O     O_R   0.576119 0.346261 0.735744 -0.447213
O36   O     O_R   0.745586 0.359224 0.667707 -0.303424
C65   C     C_3   0.876919 0.218651 0.742730 -0.771019
H56   H     H_    0.838057 0.285973 0.771533 0.265618
H57   H     H_    0.931479 0.183528 0.773243 0.253269
H58   H     H_    0.960155 0.222563 0.709416 0.246945
N7    N     N_R   0.622868 0.173321 0.751508 0.229416
O37   O     O_R   0.556918 0.104061 0.748090 -0.357490
O38   O     O_R   0.598448 0.238703 0.801597 -0.347008
N8    N     N_R   0.802903 0.080207 0.674276 0.264844
O39   O     O_R   0.942079 0.047955 0.681838 -0.348679
O40   O     O_R   0.705120 0.027150 0.646456 -0.422919
C66   C     C_3   0.330577 0.272420 0.621829 -1.064510
H59   H     H_    0.290706 0.300156 0.586362 0.240966
H60   H     H_    0.404649 0.316850 0.651431 0.262962
H61   H     H_    0.388621 0.208908 0.596675 0.206072
N9    N     N_R   0.108474 0.195429 0.614304 0.230231
O41   O     O_R   0.050249 0.217901 0.568629 -0.320765
O42   O     O_R   0.113802 0.114353 0.611457 -0.406151
C67   C     C_3   0.479815 0.287322 0.028186 -0.754974
H62   H     H_    0.423956 0.240090 0.990463 0.221339
H63   H     H_    0.592203 0.254138 0.036109 0.275828
H64   H     H_    0.402528 0.304078 0.069347 0.256912
N10   N     N_R   0.760553 0.726868 0.087045 0.265415
O43   O     O_R   0.686369 0.804187 0.106262 -0.341688
O44   O     O_R   0.910844 0.718712 0.085663 -0.281863
C68   C     C_3   0.692514 0.547327 0.779433 -0.792864
H65   H     H_    0.757294 0.580536 0.754545 0.253860
H66   H     H_    0.694169 0.588890 0.827454 0.221308
H67   H     H_    0.751348 0.482810 0.776981 0.294967
N11   N     N_R   0.756054 0.670319 0.513729 0.255108
O45   O     O_R   0.801565 0.609166 0.464314 -0.400426
O46   O     O_R   0.728923 0.650508 0.562199 -0.328408
C69   C     C_3   0.444876 0.981553 0.562176 -0.634545
H68   H     H_    0.430917 0.048225 0.594569 0.223116
H69   H     H_    0.339925 0.970987 0.534144 0.237558
H70   H     H_    0.455966 0.936868 0.589936 0.235756
N12   N     N_R   0.330858 0.802979 0.272067 0.266757
O47   O     O_R   0.262563 0.736228 0.240786 -0.298214
O48   O     O_R   0.276344 0.879097 0.269429 -0.301497
C70   C     C_3   0.558436 0.876307 0.317046 -0.638439
H71   H     H_    0.485216 0.924537 0.353626 0.231691
H72   H     H_    0.674335 0.868516 0.335234 0.234218
H73   H     H_    0.569147 0.903266 0.278587 0.272074
C71   C     C_3   0.471962 0.795601 0.636671 -0.778314
H74   H     H_    0.358948 0.834369 0.637918 0.231860
H75   H     H_    0.564718 0.839490 0.648628 0.216406
H76   H     H_    0.495365 0.752322 0.589440 0.282731

loop_
_geom_bond_atom_site_label_1
_geom_bond_atom_site_label_2
_geom_bond_distance
_ccdc_geom_bond_type
C60   H43   1.104141 S    
P5    O19   1.813087 S    
C69   H68   1.104671 S    
P8    O23   1.524195 D    
C64   H53   1.100725 S    
C70   H71   1.105590 S    
N6    O35   1.298046 A    
C2    H4    1.106271 S    
C1    C10   1.544298 S    
C26   C29   1.421067 A    
C61   H44   1.095152 S    
C22   C26   1.431597 A    
C57   H32   1.109041 S    
C34   C42   1.317743 D    
C47   C48   1.511103 S    
C11   O22   1.411066 S    
P4    O13   1.542084 S    
C17   C39   1.401399 A    
C11   H15   1.108042 S    
C65   H56   1.109789 S    
C69   H69   1.109936 S    
O17   Ba2   2.811257 S    
O16   P7    1.782793 S    
C34   C35   1.358064 D    
C19   N1    1.384177 Am   
P3    O11   1.764512 S    
C35   C68   1.503100 S    
C13   N6    1.463285 S    
C15   C16   1.544801 S    
C6    C7    1.547354 S    
C61   H45   1.103288 S    
C5    C57   1.538810 S    
C45   H28   1.085522 S    
C7    H10   1.109480 S    
N1    C36   1.474458 S    
P3    C56   1.880056 S    
C59   H40   1.102226 S    
C71   H75   1.111595 S    
P7    O22   1.777097 S    
O12   Ba2   2.821990 S    
C39   C40   1.427239 A    
C37   C41   1.420563 A    
C8    C9    1.540082 S    
C4    O15   1.406692 S    
C13   C14   1.589131 S    
P1    O1    1.593019 D    
C18   C19   1.415727 A    
C18   C23   1.398523 A    
C67   H63   1.110149 S    
C66   H59   1.087245 S    
P4    C34   1.867922 S    
C24   N10   1.433555 S    
C33   C42   1.500294 S    
C63   H51   1.106815 S    
H21   C27   1.083862 S    
C3    C64   1.524374 S    
C18   C22   1.408167 A    
C12   N5    1.470104 S    
C31   O28   1.216070 D    
C17   H26   1.069587 S    
P5    O17   1.784095 S    
N11   O45   1.287195 A    
C48   C50   1.495149 S    
P8    C33   1.862295 S    
N4    O31   1.301037 A    
O1    Ba1   2.821570 S    
O16   Ba2   3.055963 S    
O7    Ba1   2.894080 S    
O11   C2    1.409196 S    
C1    H2    1.112565 S    
C43   C47   1.351949 D    
C62   H48   1.104038 S    
C32   C33   1.516875 S    
C65   H58   1.079205 S    
C20   O26   1.220381 D    
C15   C66   1.512059 S    
Ba1   O16   2.846223 S    
C11   C12   1.563723 S    
P8    O24   1.756234 S    
P5    C47   1.880697 S    
C11   C62   1.504122 S    
C64   H54   1.109446 S    
C6    N3    1.433296 S    
C44   C55   1.404330 A    
N5    O34   1.301270 A    
N6    O36   1.294284 A    
C32   H24   1.085981 S    
C35   C36   1.529014 S    
C6    C59   1.501876 S    
O10   C8    1.399954 S    
C68   H67   1.107655 S    
O13   Ba2   3.072006 S    
C45   C46   1.339606 D    
P2    O20   1.586342 S    
C65   H57   1.111116 S    
O19   C13   1.433189 S    
C23   H23   1.084144 S    
C17   C38   1.395005 A    
C20   C21   1.424592 A    
O2    Ba2   2.794111 S    
C69   H70   1.106415 S    
O5    C6    1.418408 S    
C19   O25   1.221046 D    
N2    C41   1.487487 S    
C44   C56   1.402431 A    
N12   O47   1.302154 A    
C2    C3    1.574438 S    
N1    C20   1.391215 Am   
C12   C63   1.539298 S    
C62   H49   1.099674 S    
N3    O30   1.290889 A    
C14   N8    1.473014 S    
C71   H74   1.108690 S    
C16   H19   1.102832 S    
P4    O15   1.769014 S    
P2    Ba1   3.517763 S    
N10   O44   1.301222 A    
C5    H7    1.113751 S    
C27   C28   1.410905 A    
C23   C24   1.397559 A    
Ba2   O21   2.894364 S    
H18   C16   1.104042 S    
O3    P6    1.743534 S    
C13   H17   1.080447 S    
P1    O2    1.542054 S    
C66   H61   1.088786 S    
C15   O24   1.421810 S    
P2    O10   1.755916 S    
C67   H64   1.109759 S    
C54   H29   1.081478 S    
C7    H8    1.108424 S    
C44   N11   1.401856 S    
C50   H31   1.086373 S    
Ba1   O13   2.793284 S    
O8    Ba1   2.810483 S    
C25   C26   1.413366 A    
H1    C10   1.110583 S    
P3    O8    1.767380 S    
C10   C61   1.517845 S    
C4    H6    1.103720 S    
Ba2   O20   2.845459 S    
C14   N7    1.486285 S    
C37   C38   1.397104 A    
C61   H46   1.101912 S    
C12   H16   1.094449 S    
C8    H11   1.102417 S    
C62   H47   1.101257 S    
C52   C53   1.408322 A    
C1    H3    1.100783 S    
C43   C46   1.501815 S    
C54   C55   1.397113 A    
C52   C54   1.400475 A    
C43   H30   1.084443 S    
C68   H66   1.099585 S    
N7    O37   1.302177 A    
P4    Ba2   3.480722 S    
P2    O7    1.582813 D    
C24   C25   1.428969 A    
C64   H55   1.111129 S    
C70   H72   1.099085 S    
C37   H22   1.079577 S    
N5    O33   1.302204 A    
O4    P6    1.547196 D    
C51   C69   1.513264 S    
N9    O42   1.301419 A    
C57   H34   1.110957 S    
C45   C49   1.498876 S    
O3    Ba1   2.807123 S    
C14   C65   1.535431 S    
Ba1   O20   3.056848 S    
C63   H52   1.110450 S    
P1    Ba1   3.480331 S    
C60   H42   1.110403 S    
C25   C31   1.418880 A    
C9    H13   1.111394 S    
P6    C38   1.863580 S    
C28   C67   1.511463 S    
C66   H60   1.088822 S    
C2    H5    1.107178 S    
C28   C29   1.434227 A    
C9    C60   1.524511 S    
C30   O27   1.218984 D    
O6    P6    1.763484 S    
C68   H65   1.096869 S    
C71   H76   1.100173 S    
C57   H33   1.105739 S    
P1    C39   1.906127 S    
P7    C46   1.859183 S    
C59   H38   1.107408 S    
P5    O18   1.544899 D    
N8    O39   1.302509 A    
C70   H73   1.111763 S    
C40   H25   1.080283 S    
C40   C41   1.438951 A    
C1    N4    1.464349 S    
C42   H27   1.086637 S    
O2    Ba1   3.071167 S    
N2    C31   1.394818 Am   
O6    C10   1.417296 S    
C7    H9    1.111523 S    
C53   C56   1.409496 A    
C50   C51   1.345073 D    
C59   H39   1.112241 S    
P7    O21   1.577525 D    
C63   H50   1.108939 S    
C58   H37   1.104970 S    
C3    C70   1.547296 S    
C9    H14   1.102499 S    
C8    H12   1.100418 S    
C21   C27   1.403474 A    
C3    N12   1.473686 S    
C58   H35   1.110756 S    
N4    O32   1.301155 A    
C67   H62   1.110860 S    
C51   C53   1.477704 S    
O14   Ba2   2.806598 S    
C32   C36   1.352584 D    
C21   C22   1.403848 A    
P4    O12   1.593327 D    
Ba1   Ba2   4.741490 S    
C4    C5    1.558974 S    
P2    C55   1.869982 S    
C30   N2    1.391751 Am   
C29   C30   1.438923 A    
C58   H36   1.107643 S    
N10   O43   1.300975 A    
P3    O9    1.540897 D    
P1    O5    1.790567 S    
N12   O48   1.303278 A    
C16   H20   1.105963 S    
N3    O29   1.303021 A    
C48   C49   1.530031 S    
N9    O41   1.297748 A    
C5    C58   1.525380 S    
O14   P8    1.756598 S    
N11   O46   1.282655 A    
C15   N9    1.469330 S    
C60   H41   1.108049 S    
N7    O38   1.302037 A    
N8    O40   1.296853 A    
C4    C71   1.526096 S    
