data_mof_unit_52786.cif
_audit_creation_date              2012-12-10T17:14:43-0500
_audit_creation_method            fapswitch 2.2
_symmetry_space_group_name_H-M    P1
_symmetry_Int_Tables_number       1
_space_group_crystal_system       triclinic
_cell_length_a                    10.606116
_cell_length_b                    13.00488
_cell_length_c                    11.858988
_cell_angle_alpha                 100.405777
_cell_angle_beta                  93.745002
_cell_angle_gamma                 93.340393
_cell_volume                      1601.29136092

loop_
_atom_site_label
_atom_site_type_symbol
_atom_type_description
_atom_site_fract_x
_atom_site_fract_y
_atom_site_fract_z
_atom_type_partial_charge
C1    C     C_R   0.507514 0.299618 0.477719 0.857972
C2    C     C_R   0.492770 0.700356 0.522171 0.854330
C3    C     C_R   0.552454 0.140186 0.559580 0.407861
C4    C     C_R   0.457067 0.860441 0.439305 0.413825
C5    C     C_R   0.522833 0.032491 0.554262 -0.131303
C6    C     C_R   0.487461 0.967828 0.445746 -0.136486
C7    C     C_R   0.357998 0.420195 0.025029 0.268186
C8    C     C_R   0.641150 0.581890 0.974783 0.268136
C9    C     C_R   0.375944 0.422548 0.144258 0.130634
C10   C     C_R   0.621895 0.580074 0.855738 0.131747
C11   C     C_R   0.559661 0.538976 0.156719 0.098534
C12   C     C_R   0.441871 0.459916 0.843292 0.094342
C13   C     C_R   0.551424 0.530423 0.033481 -0.126282
C14   C     C_R   0.449410 0.469751 0.966533 -0.131163
C15   C     C_R   0.259645 0.500173 0.500259 0.781094
C16   C     C_R   0.740343 0.499525 0.499742 0.775472
C17   C     C_3   0.050411 0.528915 0.608925 -0.037951
C18   C     C_3   0.949631 0.470326 0.391301 -0.041668
C19   C     C_3   0.958064 0.431503 0.564356 -0.151126
C20   C     C_3   0.041903 0.567795 0.435859 -0.157005
C21   C     C_3   0.877320 0.498917 0.499162 0.007425
C22   C     C_3   0.122675 0.500392 0.501002 0.006216
C23   C     C_3   0.967355 0.596238 0.543652 -0.189419
C24   C     C_3   0.032663 0.403058 0.456611 -0.192941
C25   C     C_R   0.482297 0.814701 0.536614 -0.292307
C26   C     C_R   0.521715 0.185502 0.462659 -0.288403
C27   C     C_R   0.488629 0.010734 0.344679 0.386093
C28   C     C_R   0.527765 0.988278 0.654993 0.386760
C29   C     C_R   0.499218 0.120490 0.353295 0.246057
C30   C     C_R   0.501216 0.879280 0.646061 0.250900
Cu1   Cu    Cu3+1 0.509400 0.507730 0.615930 1.003440
Cu2   Cu    Cu3+1 0.490600 0.492270 0.384070 1.004692
H1    H     H_    0.920678 0.375759 0.616886 0.157325
H2    H     H_    0.079266 0.623521 0.383299 0.158560
H3    H     H_    0.093925 0.553582 0.698169 0.197032
H4    H     H_    0.906434 0.445163 0.302025 0.202818
H5    H     H_    0.937328 0.675196 0.579140 0.146012
H6    H     H_    0.062375 0.323965 0.421418 0.141954
N1    N     N_R   0.523540 0.519360 0.790140 -0.295540
N2    N     N_R   0.476460 0.480640 0.209860 -0.294554
O1    O     O_R   0.506670 0.354460 0.582000 -0.586330
O2    O     O_R   0.493330 0.645540 0.418000 -0.585192
O3    O     O_R   0.490800 0.341410 0.386200 -0.491858
O4    O     O_R   0.509200 0.658590 0.613800 -0.499433
O5    O     O_R   0.324790 0.506500 0.597880 -0.567198
O6    O     O_R   0.675210 0.493500 0.402120 -0.570897
O7    O     O_R   0.308910 0.493440 0.402080 -0.601856
O8    O     O_R   0.691090 0.506560 0.597920 -0.600672
O9    O     O_3   0.395907 0.802941 0.339252 -0.594873
H7    H     H_    0.333174 0.751562 0.360531 0.313428
O10   O     O_3   0.613609 0.199267 0.658677 -0.597651
H8    H     H_    0.673318 0.252255 0.636272 0.312601
O11   O     O_3   0.487516 0.835058 0.742471 -0.651580
H9    H     H_    0.457076 0.887633 0.804041 0.343517
O12   O     O_3   0.490290 0.165169 0.256189 -0.655613
H10   H     H_    0.435578 0.118001 0.195063 0.358833
O13   O     O_3   0.483283 0.944328 0.239058 -0.619421
H11   H     H_    0.534542 0.977749 0.186833 0.336184
O14   O     O_3   0.558249 0.052174 0.760881 -0.621278
H12   H     H_    0.603173 0.011628 0.812154 0.338519
C31   C     C_2   0.360260 0.372672 0.772518 0.987170
O15   O     O_2   0.395565 0.283846 0.760709 -0.506704
O16   O     O_R   0.238796 0.389055 0.729605 -0.785598
H13   H     H_    0.191812 0.322301 0.685378 0.324929
C32   C     C_2   0.644770 0.623487 0.227887 0.988178
O17   O     O_2   0.611855 0.713105 0.244057 -0.507804
O18   O     O_R   0.767052 0.603911 0.265402 -0.787791
H14   H     H_    0.816792 0.669158 0.310098 0.324692
C33   C     C_2   0.721172 0.635713 0.803288 0.988570
O19   O     O_2   0.826089 0.601602 0.797236 -0.605436
O20   O     O_R   0.699597 0.731130 0.770320 -0.700327
H15   H     H_    0.775962 0.762127 0.737652 0.311716
C34   C     C_2   0.272174 0.372126 0.196742 0.991041
O21   O     O_2   0.168048 0.407974 0.196232 -0.600620
O22   O     O_R   0.289486 0.280848 0.239961 -0.719162
H16   H     H_    0.210234 0.253203 0.271261 0.310766
O23   O     O_3   0.245369 0.373797 0.969411 -0.694512
H17   H     H_    0.204117 0.429415 0.936505 0.352201
O24   O     O_3   0.752583 0.630826 0.030108 -0.695164
H18   H     H_    0.798743 0.574967 0.057946 0.353357

loop_
_geom_bond_atom_site_label_1
_geom_bond_atom_site_label_2
_ccdc_geom_bond_type
O12   H10   S    
C16   C21   S    
C27   C29   A    
C18   C21   S    
C34   O21   D    
C15   O7    A    
C16   O8    A    
C4    C25   A    
O11   H9    S    
C17   C23   S    
C18   C24   S    
C19   C21   S    
C5    C6    A    
C33   O20   S    
C31   O16   S    
C1    O3    A    
C15   C22   S    
C6    C27   A    
C2    O4    A    
C32   O18   S    
C8    O24   S    
C24   H6    S    
O23   H17   S    
C7    O23   S    
C20   H2    S    
O14   H12   S    
C13   C14   A    
C34   O22   S    
C31   O15   D    
C9    C34   S    
O18   H14   S    
C7    C14   A    
C30   O11   S    
Cu1   O4    S    
C11   N2    A    
O24   H18   S    
C4    C6    A    
C19   H1    S    
C16   O6    A    
C3    O10   S    
C29   O12   S    
C23   H5    S    
C9    N2    A    
O10   H8    S    
C10   N1    A    
O22   H16   S    
C5    C28   A    
Cu1   Cu2   S    
C20   C23   S    
C1    O1    A    
C20   C22   S    
C32   O17   D    
Cu1   O8    S    
C21   C23   S    
C27   O13   S    
C1    C26   S    
Cu2   O7    S    
C22   C24   S    
C15   O5    A    
C28   O14   S    
C25   C30   A    
C7    C9    A    
Cu1   O1    S    
Cu2   O6    S    
C3    C26   A    
C12   C14   A    
C3    C5    A    
C17   C22   S    
C4    O9    S    
C12   N1    A    
C28   C30   A    
C19   C24   S    
O20   H15   S    
C12   C31   S    
C11   C13   A    
O13   H11   S    
C2    O2    A    
C17   C19   S    
Cu2   O3    S    
Cu1   N1    S    
C2    C25   S    
C18   C20   S    
Cu2   N2    S    
C8    C13   A    
C33   O19   D    
O16   H13   S    
C10   C33   S    
C26   C29   A    
C8    C10   A    
O9    H7    S    
Cu1   O5    S    
Cu2   O2    S    
C17   H3    S    
C18   H4    S    
C11   C32   S    
