data_mof_unit_13140.cif
_audit_creation_date              2013-03-05T15:41:40-0500
_audit_creation_method            fapswitch 2.2
_symmetry_space_group_name_H-M    P1
_symmetry_Int_Tables_number       1
_space_group_crystal_system       triclinic
_cell_length_a                    17.246033
_cell_length_b                    8.793017
_cell_length_c                    7.432334
_cell_angle_alpha                 102.980159
_cell_angle_beta                  90.164422
_cell_angle_gamma                 93.213125
_cell_volume                      1096.40969586

loop_
_atom_site_label
_atom_site_type_symbol
_atom_site_description
_atom_site_fract_x
_atom_site_fract_y
_atom_site_fract_z
_atom_type_partial_charge
O1    O     O_R   0.505650 0.286040 0.618880 -0.573436
O2    O     O_R   0.494350 0.713960 0.381120 -0.573437
O3    O     O_R   0.490960 0.256910 0.309800 -0.512138
O4    O     O_R   0.509040 0.743090 0.690200 -0.512138
C1    C     C_R   0.498009 0.200474 0.454082 0.815374
C2    C     C_R   0.501991 0.799526 0.545918 0.815374
O5    O     O_R   0.394600 0.516230 0.672450 -0.592508
O6    O     O_R   0.605400 0.483770 0.327550 -0.592509
O7    O     O_R   0.379910 0.487100 0.363380 -0.588672
O8    O     O_R   0.620090 0.512900 0.636620 -0.588672
C3    C     C_R   0.351208 0.506120 0.526729 0.788259
C4    C     C_R   0.648791 0.493880 0.473271 0.788260
Cu1   Cu    Cu3+1 0.508700 0.517250 0.683000 1.062410
Cu2   Cu    Cu3+1 0.491300 0.482750 0.317000 1.062410
C5    C     C_R   0.267620 0.521587 0.544889 -0.020863
C6    C     C_R   0.732380 0.478415 0.455111 -0.020864
C7    C     C_R   0.225446 0.555274 0.398254 -0.164118
C8    C     C_R   0.774554 0.444730 0.601747 -0.164117
C9    C     C_R   0.145780 0.566209 0.409529 -0.108396
C10   C     C_R   0.854221 0.433797 0.590472 -0.108396
C11   C     C_R   0.106885 0.540459 0.566023 0.118210
C12   C     C_R   0.893115 0.459546 0.433978 0.118210
C13   C     C_R   0.149034 0.514444 0.716672 -0.102750
C14   C     C_R   0.850966 0.485560 0.283328 -0.102749
C15   C     C_R   0.229361 0.504782 0.706207 -0.183406
C16   C     C_R   0.770639 0.495219 0.293793 -0.183406
C17   C     C_2   0.022133 0.538912 0.572427 0.419259
C18   C     C_2   0.977867 0.461094 0.427573 0.419260
H1    H     H_    0.253957 0.573334 0.274397 0.167323
H2    H     H_    0.746043 0.426670 0.725604 0.167323
H3    H     H_    0.738890 0.519113 0.178190 0.160719
H4    H     H_    0.261110 0.480887 0.821809 0.160718
H5    H     H_    0.119558 0.497057 0.839665 0.182964
H6    H     H_    0.880441 0.502946 0.160335 0.182964
H7    H     H_    0.885493 0.406378 0.704677 0.179836
H8    H     H_    0.114508 0.593629 0.295325 0.179835
C19   C     C_2   0.497877 0.033985 0.427138 0.016400
C20   C     C_2   0.502123 0.966015 0.572862 0.016399
N1    N     N_2   0.478180 0.456750 0.041980 -0.178689
N2    N     N_2   0.521820 0.543250 0.958020 -0.178689
H9    H     H_    0.437404 0.383537 0.958922 0.252220
H10   H     H_    0.562596 0.616463 0.041078 0.252220
F1    F     F_    0.010676 0.382485 0.269878 -0.676060
F2    F     F_    0.989324 0.617522 0.730122 -0.676060
N3    N     N_R   0.493306 0.945520 0.239367 0.152804
O9    O     O_R   0.425912 0.895335 0.163160 -0.305256
O10   O     O_R   0.555077 0.934846 0.138402 -0.309487
N4    N     N_R   0.506695 0.054480 0.760632 0.152804
O11   O     O_R   0.574089 0.104665 0.836838 -0.305256
O12   O     O_R   0.444924 0.065154 0.861599 -0.309486

loop_
_geom_bond_atom_site_label_1
_geom_bond_atom_site_label_2
_geom_bond_distance
_ccdc_geom_bond_type
O7    Cu2   1.953659 S    
C2    C20   1.432182 S    
C19   C20   1.353085 D    
C8    H2    1.083472 S    
C1    C19   1.432182 S    
C7    H1    1.083473 S    
C18   F1    1.362105 S    
C20   N4    1.436579 S    
O5    Cu1   1.968545 S    
O6    C4    1.298278 A    
C17   C18   1.347537 D    
C15   H4    1.083268 S    
N4    O12   1.300369 A    
C11   C17   1.461954 S    
C16   H3    1.083268 S    
N1    H9    1.028723 S    
C12   C18   1.461956 S    
N3    O9    1.301098 A    
O5    C3    1.298279 A    
O7    C3    1.291687 A    
O2    C2    1.287493 A    
O3    Cu2   1.974163 S    
O8    C4    1.291687 A    
O1    C1    1.287493 A    
C6    C8    1.403256 A    
N4    O11   1.301103 A    
C9    C11   1.399930 A    
C14   C16   1.393993 A    
C8    C10   1.384124 A    
C9    H8    1.083210 S    
C13   C15   1.393995 A    
C11   C13   1.401216 A    
C6    C16   1.402827 A    
O2    Cu2   1.978820 S    
C12   C14   1.401216 A    
C5    C15   1.402828 A    
O1    Cu1   1.978820 S    
C19   N3    1.436579 S    
O3    C1    1.286875 A    
N1    N2    1.298492 D    
O4    C2    1.286875 A    
N3    O10   1.300369 A    
O4    Cu1   1.974163 S    
C5    C7    1.403256 A    
Cu1   N2    2.015734 S    
O6    Cu2   1.968549 S    
C7    C9    1.384124 A    
Cu2   N1    2.015734 S    
Cu1   Cu2   2.682566 S    
C10   H7    1.083210 S    
C3    C5    1.459337 S    
C17   F2    1.362105 S    
C14   H6    1.083573 S    
C4    C6    1.459337 S    
C10   C12   1.399930 A    
N2    H10   1.028723 S    
C13   H5    1.083573 S    
O8    Cu1   1.953658 S    
