data_mof_unit_59632.cif
_audit_creation_date              2012-12-11T15:52:32-0500
_audit_creation_method            fapswitch 2.2
_symmetry_space_group_name_H-M    P1
_symmetry_Int_Tables_number       1
_space_group_crystal_system       triclinic
_cell_length_a                    6.929967
_cell_length_b                    14.591944
_cell_length_c                    15.980041
_cell_angle_alpha                 90.198955
_cell_angle_beta                  89.998567
_cell_angle_gamma                 90.21492
_cell_volume                      1615.90764771

loop_
_atom_site_label
_atom_site_type_symbol
_atom_type_description
_atom_site_fract_x
_atom_site_fract_y
_atom_site_fract_z
_atom_type_partial_charge
O1    O     O_R   0.494400 0.415640 0.412830 -0.539244
O2    O     O_R   0.823920 0.405510 0.586560 -0.542314
O3    O     O_R   0.994250 0.584360 0.587170 -0.542941
C1    C     C_R   0.654985 0.385049 0.616594 0.691627
O4    O     O_R   0.824110 0.404610 0.413450 -0.543161
O5    O     O_R   0.994440 0.583460 0.412820 -0.539883
C2    C     C_R   0.654890 0.382157 0.384377 0.688677
O6    O     O_R   0.494210 0.416540 0.587180 -0.537912
O7    O     O_3   0.660810 0.558680 0.500000 -0.370969
V1    V     V_3+5 0.935650 0.489110 0.500000 1.389866
O8    O     O_R   0.324150 0.594490 0.413440 -0.543211
C3    C     C_R   0.155217 0.616670 0.384368 0.686439
O9    O     O_R   0.323970 0.595390 0.586550 -0.544637
C4    C     C_R   0.155523 0.617081 0.615798 0.661421
V2    V     V_3+5 0.435660 0.510890 0.500000 1.386486
O10   O     O_3   0.160630 0.441320 0.500000 -0.366554
C5    C     C_3   0.037012 0.643977 0.766049 -0.020419
H1    H     H_    0.883030 0.635649 0.747151 0.124946
C6    C     C_3   0.043759 0.714226 0.840426 -0.363190
H2    H     H_    0.134347 0.688303 0.892676 0.127689
H3    H     H_    0.895357 0.722911 0.865819 0.136365
H4    H     H_    0.891247 0.752621 0.634307 0.146582
H5    H     H_    0.852554 0.840687 0.750961 0.200450
C7    C     C_3   0.035279 0.771587 0.660030 -0.381124
C8    C     C_3   0.351858 0.715823 0.715982 -0.388983
C9    C     C_3   0.146266 0.684636 0.688247 0.085978
H6    H     H_    0.435414 0.739306 0.660411 0.135500
H7    H     H_    0.432826 0.656595 0.741669 0.125452
C10   C     C_3   0.125930 0.808291 0.811510 0.033715
C11   C     C_3   0.007543 0.838641 0.734369 -0.366235
C12   C     C_3   0.340821 0.792782 0.783105 -0.070147
H8    H     H_    0.426041 0.770111 0.838420 0.124719
H9    H     H_    0.116147 0.806554 0.609041 0.141560
H10   H     H_    0.051725 0.908505 0.715614 0.141123
C13   C     C_R   0.953165 0.773718 0.216121 -0.160868
H11   H     H_    0.812322 0.791967 0.192204 0.115027
C14   C     C_R   0.964362 0.710576 0.281744 -0.154103
H12   H     H_    0.831524 0.681970 0.306175 0.118748
C15   C     C_R   0.144118 0.684655 0.315173 -0.048036
C16   C     C_R   0.312354 0.723672 0.281087 -0.160458
H13   H     H_    0.453197 0.705423 0.305004 0.116163
C17   C     C_R   0.301156 0.786817 0.215467 -0.154246
H14   H     H_    0.433993 0.815427 0.191037 0.117246
C18   C     C_R   0.121401 0.812727 0.182029 -0.044212
C19   C     C_R   0.774153 0.242887 0.684565 -0.165228
H15   H     H_    0.881197 0.238393 0.635391 0.131536
C20   C     C_R   0.757321 0.171143 0.742748 0.111033
C21   C     C_R   0.621509 0.178762 0.809457 -0.085458
C22   C     C_R   0.493447 0.253530 0.809207 -0.189911
H16   H     H_    0.386214 0.260575 0.858091 0.123063
C23   C     C_R   0.502331 0.320318 0.746485 -0.154902
H17   H     H_    0.400507 0.376423 0.747615 0.116017
C24   C     C_R   0.644716 0.316068 0.684260 -0.073474
C25   C     C_R   0.811947 0.274082 0.281657 -0.157439
H18   H     H_    0.952668 0.292591 0.305974 0.116829
C26   C     C_R   0.801068 0.210254 0.216088 -0.153231
H19   H     H_    0.933883 0.181444 0.192121 0.117607
C27   C     C_R   0.621607 0.183921 0.182116 -0.043881
C28   C     C_R   0.453329 0.223242 0.215685 -0.158261
H20   H     H_    0.312610 0.204719 0.191375 0.115804
C29   C     C_R   0.464209 0.287079 0.281252 -0.152919
H21   H     H_    0.331399 0.315889 0.305224 0.118749
C30   C     C_R   0.643678 0.313434 0.315202 -0.047697
O11   O     O_R   0.771300 0.080930 0.910090 -0.541634
O12   O     O_R   0.441270 0.092800 0.083770 -0.547351
O13   O     O_R   0.271080 0.913920 0.084380 -0.544332
C31   C     C_R   0.610453 0.115254 0.112893 0.671011
O14   O     O_R   0.441580 0.091910 0.910670 -0.534453
O15   O     O_R   0.271390 0.913020 0.910040 -0.517367
C32   C     C_R   0.610525 0.111629 0.879661 0.749912
O16   O     O_R   0.770990 0.081830 0.084440 -0.543857
O17   O     O_3   0.604750 0.938760 0.997250 -0.356274
V3    V     V_3+5 0.329850 0.008280 0.997210 1.436414
O18   O     O_R   0.941680 0.901940 0.910610 -0.531051
C33   C     C_R   0.111297 0.879165 0.881880 0.675807
O19   O     O_R   0.941370 0.902830 0.083720 -0.547041
C34   C     C_R   0.110303 0.880693 0.112820 0.669973
V4    V     V_3+5 0.829860 0.986420 0.997150 1.432621
O20   O     O_3   0.104830 0.056030 0.997180 -0.374746
C35   C     C_2   0.432286 0.879762 0.749613 0.299948
H22   H     H_    0.389714 0.906791 0.689212 0.046110
O21   O     O_2   0.554624 0.920447 0.790220 -0.551810
C36   C     C_3   0.874087 0.085483 0.725150 -0.353449
C37   C     C_3   0.817962 0.041931 0.639820 -0.298944
C38   C     C_3   0.983689 0.044446 0.576671 -0.785142
H23   H     H_    0.024585 0.116209 0.562093 0.228322
H24   H     H_    0.111891 0.008183 0.601527 0.218836
H25   H     H_    0.937869 0.010103 0.517785 0.218845
H26   H     H_    0.774112 0.969419 0.648967 0.196337
H27   H     H_    0.690463 0.076254 0.611762 0.199184
H28   H     H_    0.030068 0.103655 0.727210 0.172318
H29   H     H_    0.852447 0.032691 0.773561 0.190180
C39   C     C_3   0.109558 0.547857 0.792963 -0.379364
C40   C     C_3   0.965942 0.499924 0.851782 -0.311435
C41   C     C_3   0.030812 0.402623 0.872065 -0.758243
H30   H     H_    0.039432 0.360763 0.813973 0.231420
H31   H     H_    0.174248 0.403932 0.903075 0.219414
H32   H     H_    0.924942 0.369999 0.914905 0.218058
H33   H     H_    0.952473 0.539375 0.911076 0.194031
H34   H     H_    0.821407 0.496188 0.821682 0.185051
H35   H     H_    0.127948 0.503237 0.737153 0.168801
H36   H     H_    0.252410 0.553662 0.824195 0.172735

loop_
_geom_bond_atom_site_label_1
_geom_bond_atom_site_label_2
_ccdc_geom_bond_type
C8    C12   S    
C39   C40   S    
C1    C24   S    
C41   H30   S    
C13   H11   S    
C1    O6    A    
C41   H32   S    
C12   C35   S    
C38   H23   S    
C8    H7    S    
C36   H29   S    
C14   H12   S    
C17   C18   A    
C5    C9    S    
C21   C32   S    
C18   C34   S    
C6    H3    S    
O19   V4    S    
O5    C3    A    
C25   C30   A    
V2    O10   S    
O12   V3    S    
C26   H19   S    
C29   C30   A    
O17   V4    S    
O8    V2    S    
C36   C37   S    
C22   C23   A    
O15   V3    S    
O1    V2    S    
O11   C32   A    
O7    V1    S    
C16   C17   A    
C19   C24   A    
C28   H20   S    
O9    C4    A    
C29   H21   S    
C37   H27   S    
C8    C9    S    
C19   C20   A    
C14   C15   A    
C25   C26   A    
C28   C29   A    
O18   C33   A    
C11   H10   S    
C38   H24   S    
C23   H17   S    
H5    C11   S    
C37   C38   S    
C35   O21   D    
C39   H35   S    
C15   C16   A    
O4    C2    A    
V4    O20   S    
O17   V3    S    
O12   C31   A    
O14   V3    S    
C19   H15   S    
O13   V3    S    
C4    C9    S    
C23   C24   A    
O2    C1    A    
C10   C11   S    
C20   C21   A    
C40   H34   S    
C5    H1    S    
V3    O20   S    
O19   C34   A    
C13   C18   A    
C2    C30   S    
O3    C4    A    
C16   H13   S    
O6    V2    S    
C20   C36   S    
O9    V2    S    
O18   V4    S    
H4    C7    S    
C5    C39   S    
C37   H26   S    
O2    V1    S    
C38   H25   S    
O13   C34   A    
C25   H18   S    
C21   C22   A    
C13   C14   A    
O1    C2    A    
O11   V4    S    
C12   H8    S    
C7    C9    S    
C35   H22   S    
C39   H36   S    
O5    V1    S    
O8    C3    A    
C41   H31   S    
C10   C33   S    
C8    H6    S    
C36   H28   S    
C7    H9    S    
C6    H2    S    
C27   C28   A    
O4    V1    S    
C10   C12   S    
O3    V1    S    
V1    O10   S    
C40   H33   S    
C3    C15   S    
C5    C6    S    
C26   C27   A    
O15   C33   A    
C31   O16   A    
O7    V2    S    
C40   C41   S    
C7    C11   S    
C27   C31   S    
O14   C32   A    
C22   H16   S    
C17   H14   S    
O16   V4    S    
C6    C10   S    
