data_mof_unit_66862.cif
_audit_creation_date              2013-03-05T15:57:21-0500
_audit_creation_method            fapswitch 2.2
_symmetry_space_group_name_H-M    P1
_symmetry_Int_Tables_number       1
_space_group_crystal_system       triclinic
_cell_length_a                    17.279146
_cell_length_b                    18.683251
_cell_length_c                    8.494801
_cell_angle_alpha                 89.63908
_cell_angle_beta                  101.621414
_cell_angle_gamma                 90.139267
_cell_volume                      2686.10795729

loop_
_atom_site_label
_atom_site_type_symbol
_atom_site_description
_atom_site_fract_x
_atom_site_fract_y
_atom_site_fract_z
_atom_type_partial_charge
P1    P     P_3+3 0.834140 0.419320 0.003900 0.435793
P2    P     P_3+3 0.834140 0.580680 0.503900 0.440020
P3    P     P_3+3 0.334140 0.919320 0.003900 0.435674
P4    P     P_3+3 0.334140 0.080680 0.503900 0.443939
O1    O     O_2   0.841960 0.394640 0.833410 -0.373397
O2    O     O_2   0.841960 0.605360 0.333410 -0.370754
O3    O     O_2   0.341960 0.894640 0.833410 -0.368563
O4    O     O_2   0.341960 0.105360 0.333410 -0.364942
O5    O     O_3   0.907950 0.463080 0.102990 -0.430777
O6    O     O_3   0.907950 0.536920 0.602990 -0.449074
O7    O     O_3   0.407950 0.963080 0.102990 -0.437917
O8    O     O_3   0.407950 0.036920 0.602990 -0.452103
O9    O     O_3   0.972780 0.329600 0.629720 -0.398114
O10   O     O_3   0.972780 0.670400 0.129720 -0.379920
O11   O     O_3   0.472780 0.829600 0.629720 -0.400548
O12   O     O_3   0.472780 0.170400 0.129720 -0.380171
O13   O     O_2   0.842628 0.271070 0.700931 -0.379752
O14   O     O_2   0.842052 0.729181 0.191903 -0.385314
O15   O     O_2   0.340550 0.774242 0.698324 -0.371175
O16   O     O_2   0.337606 0.222427 0.182194 -0.366061
O17   O     O_3   0.751940 0.475964 0.965576 -0.568789
O18   O     O_3   0.748344 0.528411 0.471350 -0.567527
O19   O     O_3   0.252249 0.976359 0.964914 -0.566899
O20   O     O_3   0.248742 0.027879 0.470681 -0.569408
O21   O     O_3   0.939600 0.181420 0.614653 -0.535089
O22   O     O_3   0.944112 0.818455 0.116068 -0.531302
O23   O     O_3   0.437431 0.681789 0.624150 -0.535050
O24   O     O_3   0.438445 0.318041 0.134764 -0.525772
H1    H     H_    0.053043 0.210117 0.595499 0.108573
H2    H     H_    0.063467 0.797832 0.148336 0.115737
H3    H     H_    0.554608 0.705501 0.627129 0.117750
H4    H     H_    0.557215 0.299752 0.217732 0.147835
C1    C     C_3   0.030526 0.099099 0.535922 -0.987850
C2    C     C_3   0.033752 0.897238 0.019955 -1.028569
C3    C     C_3   0.526941 0.596752 0.551996 -1.019519
C4    C     C_3   0.536841 0.400317 0.089965 -1.057871
H5    H     H_    0.586298 0.591695 0.521694 0.254052
H6    H     H_    0.599934 0.405496 0.081451 0.245746
H7    H     H_    0.032801 0.074737 0.656143 0.266995
H8    H     H_    0.093238 0.900038 0.989381 0.253490
H9    H     H_    0.989152 0.067541 0.445519 0.245146
H10   H     H_    0.032833 0.931538 0.125690 0.272374
H11   H     H_    0.527502 0.571602 0.670870 0.271120
H12   H     H_    0.525581 0.431905 0.193241 0.279691
P5    P     P_3+3 0.165830 0.418670 0.685610 0.422617
P6    P     P_3+3 0.165830 0.581330 0.185610 0.438385
P7    P     P_3+3 0.665830 0.918670 0.685610 0.444483
P8    P     P_3+3 0.665830 0.081330 0.185610 0.465687
P9    P     P_3+3 0.104726 0.266349 0.109600 0.440914
P10   P     P_3+3 0.101834 0.736519 0.612367 0.420858
P11   P     P_3+3 0.602996 0.765132 0.109295 0.444875
P12   P     P_3+3 0.602901 0.235378 0.608525 0.450142
O25   O     O_2   0.157990 0.394030 0.856030 -0.356007
O26   O     O_2   0.157990 0.605970 0.356030 -0.400385
O27   O     O_2   0.657990 0.894030 0.856030 -0.373762
O28   O     O_2   0.657990 0.105970 0.356030 -0.334236
O29   O     O_3   0.027110 0.329490 0.059550 -0.412275
O30   O     O_3   0.027110 0.670510 0.559550 -0.428007
O31   O     O_3   0.527110 0.829490 0.059550 -0.425555
O32   O     O_3   0.527110 0.170510 0.559550 -0.383454
O33   O     O_2   0.156615 0.270862 0.981331 -0.371286
O34   O     O_2   0.163511 0.723134 0.507081 -0.368171
O35   O     O_2   0.653860 0.769245 0.979118 -0.359846
O36   O     O_2   0.659014 0.227168 0.489325 -0.377164
O37   O     O_3   0.245426 0.478220 0.745499 -0.580727
O38   O     O_3   0.253705 0.531364 0.228761 -0.574900
O39   O     O_3   0.740143 0.983313 0.729125 -0.581170
O40   O     O_3   0.743277 0.020567 0.237428 -0.567304
O41   O     O_3   0.064116 0.180553 0.083135 -0.552150
O42   O     O_3   0.064109 0.820308 0.547740 -0.533102
O43   O     O_3   0.559886 0.679845 0.081304 -0.541332
O44   O     O_3   0.555951 0.316477 0.554506 -0.494652
C5    C     C_3   0.982178 0.186730 0.031556 0.530610
C6    C     C_3   0.982348 0.819522 0.538696 0.515129
C7    C     C_3   0.477203 0.686686 0.053010 0.490917
C8    C     C_3   0.514146 0.332784 0.674881 0.418513
H13   H     H_    0.968175 0.214539 0.913569 0.178282
H14   H     H_    0.953325 0.782725 0.442267 0.163928
H15   H     H_    0.455531 0.715137 0.937453 0.171260
H16   H     H_    0.484385 0.285286 0.716507 0.062931
H17   H     H_    0.955167 0.216012 0.120689 0.028352
H18   H     H_    0.967182 0.803602 0.655299 0.010655
H19   H     H_    0.458130 0.716066 0.152033 0.023498
H20   H     H_    0.555060 0.357697 0.777496 0.061962
C9    C     C_3   0.946763 0.112539 0.012426 -1.045934
C10   C     C_3   0.951717 0.894279 0.495848 -1.042431
C11   C     C_3   0.439814 0.612631 0.042142 -0.968081
C12   C     C_3   0.449925 0.385134 0.608971 -1.002367
H21   H     H_    0.374388 0.617465 0.014854 0.235644
H22   H     H_    0.409586 0.361814 0.503090 0.280595
H23   H     H_    0.884666 0.116753 0.946872 0.237039
H24   H     H_    0.886593 0.892503 0.457585 0.221354
H25   H     H_    0.980519 0.078380 0.943614 0.280438
H26   H     H_    0.977850 0.915373 0.395864 0.293996
H27   H     H_    0.458651 0.581594 0.945398 0.268837
H28   H     H_    0.476529 0.435314 0.573142 0.270954
C13   C     C_3   0.241373 0.457833 0.205345 0.313908
C14   C     C_3   0.254220 0.524921 0.620314 0.368719
C15   C     C_3   0.774999 0.010314 0.100544 0.288087
C16   C     C_3   0.791843 0.973725 0.623447 0.277183
H29   H     H_    0.240691 0.432367 0.322250 0.022603
H30   H     H_    0.244066 0.580366 0.655813 0.108194
H31   H     H_    0.730824 0.984165 0.008942 0.173755
H32   H     H_    0.759894 0.961718 0.499364 0.141149
H33   H     H_    0.186898 0.444097 0.118734 0.162344
H34   H     H_    0.214696 0.511478 0.506239 0.136924
H35   H     H_    0.793535 0.061730 0.054022 0.072285
H36   H     H_    0.832982 0.929284 0.669055 0.063565
C17   C     C_3   0.311431 0.426321 0.148610 -0.813782
C18   C     C_3   0.337968 0.523965 0.593538 -0.958573
C19   C     C_3   0.845667 0.961191 0.138653 -0.910962
C20   C     C_3   0.838774 0.041836 0.615188 -0.806677
H37   H     H_    0.366667 0.436864 0.237854 0.253370
H38   H     H_    0.381041 0.521725 0.709537 0.271780
H39   H     H_    0.891617 0.986336 0.231513 0.243667
H40   H     H_    0.887862 0.044534 0.720673 0.236985
H41   H     H_    0.302406 0.367777 0.136147 0.249648
H42   H     H_    0.349201 0.572694 0.526853 0.273228
H43   H     H_    0.827770 0.908657 0.181733 0.277560
H44   H     H_    0.800284 0.089569 0.612164 0.273177
H45   H     H_    0.317131 0.450053 0.031639 0.273078
H46   H     H_    0.344621 0.478004 0.517092 0.251145
H47   H     H_    0.869726 0.952789 0.028517 0.254818
H48   H     H_    0.864009 0.041692 0.505115 0.237047
Ba1   Ba    Ba6+2 1.000000 0.447380 0.844850 1.489272
Ba2   Ba    Ba6+2 0.000000 0.552620 0.344850 1.494442
Ba3   Ba    Ba6+2 0.500000 0.947380 0.844850 1.514814
Ba4   Ba    Ba6+2 0.500000 0.052620 0.344850 1.520324
C21   C     C_3   0.773606 0.544155 0.921610 0.378774
C22   C     C_3   0.764914 0.458694 0.431888 0.364214
C23   C     C_3   0.274611 0.044603 0.922455 0.379858
C24   C     C_3   0.265692 0.959403 0.423527 0.354340
H49   H     H_    0.789408 0.541393 0.801950 0.106107
H50   H     H_    0.771531 0.458293 0.304807 0.102054
H51   H     H_    0.291221 0.042109 0.803515 0.102638
H52   H     H_    0.277861 0.962292 0.300451 0.106238
H53   H     H_    0.823295 0.566646 0.011490 0.136972
H54   H     H_    0.818011 0.436980 0.514074 0.133995
H55   H     H_    0.323991 0.066735 0.013592 0.137919
H56   H     H_    0.315896 0.935335 0.510000 0.130542
C25   C     C_3   0.702857 0.593301 0.912587 -0.877322
C26   C     C_3   0.695531 0.411464 0.449652 -0.874575
C27   C     C_3   0.204093 0.094094 0.912418 -0.878425
C28   C     C_3   0.193635 0.912469 0.422015 -0.848093
H57   H     H_    0.650401 0.569082 0.834724 0.255621
H58   H     H_    0.639714 0.435854 0.385236 0.262435
H59   H     H_    0.152091 0.070890 0.831091 0.253468
H60   H     H_    0.140878 0.937160 0.345117 0.252198
H61   H     H_    0.714046 0.646136 0.861970 0.232313
H62   H     H_    0.701925 0.357631 0.399730 0.238813
H63   H     H_    0.216530 0.147372 0.865516 0.232233
H64   H     H_    0.202641 0.858589 0.374933 0.233024
H65   H     H_    0.690444 0.600857 0.034662 0.279888
H66   H     H_    0.692640 0.406299 0.578493 0.262477
H67   H     H_    0.190271 0.100499 0.033652 0.281734
H68   H     H_    0.183221 0.906995 0.546281 0.278506
O45   O     O_3   0.092100 0.536880 0.086720 -0.414152
O46   O     O_3   0.092100 0.463120 0.586720 -0.468725
O47   O     O_3   0.592100 0.036880 0.086720 -0.396361
O48   O     O_3   0.592100 0.963120 0.586720 -0.406996
P13   P     P_3+3 0.898980 0.734991 0.073422 0.433337
P14   P     P_3+3 0.896452 0.266093 0.576517 0.418581
P15   P     P_3+3 0.398288 0.234369 0.073838 0.446636
P16   P     P_3+3 0.395976 0.766536 0.577686 0.428022
C29   C     C_3   0.002922 0.176443 0.533954 0.422599
C30   C     C_3   0.014397 0.820133 0.056091 0.461935
C31   C     C_3   0.504364 0.675303 0.554645 0.442192
C32   C     C_3   0.516434 0.322025 0.110736 0.523611
H69   H     H_    0.985057 0.192827 0.405855 0.029407
H70   H     H_    0.010047 0.789586 0.942557 0.015460
H71   H     H_    0.492903 0.694719 0.428359 0.024278
H72   H     H_    0.525250 0.292547 0.002555 -0.027222
H73   H     H_    0.483381 0.567967 0.460062 0.257886
H74   H     H_    0.499239 0.422436 0.978948 0.261841
H75   H     H_    0.090111 0.096841 0.505730 0.253384
H76   H     H_    0.989447 0.917813 0.916394 0.249762
H77   H     H_    0.458331 0.583574 0.157967 0.258074
H78   H     H_    0.415767 0.396330 0.703601 0.231969
H79   H     H_    0.949036 0.088158 0.132603 0.253650
H80   H     H_    0.968800 0.930136 0.600915 0.254935
C33   C     C_R   0.136390 0.681480 0.930320 -0.235658
C34   C     C_R   0.153353 0.331549 0.410576 -0.233625
C35   C     C_R   0.640665 0.179451 0.926360 -0.194833
C36   C     C_R   0.655698 0.832777 0.410047 -0.195561
C37   C     C_R   0.843696 0.331492 0.276097 -0.554960
C38   C     C_R   0.857938 0.674019 0.766664 -0.549978
C39   C     C_R   0.345940 0.830600 0.275000 -0.548027
C40   C     C_R   0.359562 0.175173 0.765281 -0.527960
C41   C     C_R   0.790608 0.213758 0.299352 -0.194843
C42   C     C_R   0.792028 0.785828 0.797629 -0.199908
C43   C     C_R   0.288947 0.714681 0.300999 -0.164769
C44   C     C_R   0.294171 0.287424 0.795352 -0.179334
C45   C     C_R   0.837861 0.270864 0.367955 0.256834
C46   C     C_R   0.845123 0.731503 0.861934 0.235536
C47   C     C_R   0.338748 0.770542 0.367740 0.237570
C48   C     C_R   0.347468 0.233168 0.859894 0.204550
C49   C     C_R   0.811345 0.335618 0.112377 0.283833
C50   C     C_R   0.817048 0.666977 0.607885 0.310191
C51   C     C_R   0.311234 0.835647 0.112576 0.291220
C52   C     C_R   0.317661 0.167469 0.607446 0.327495
C53   C     C_R   0.757262 0.280612 0.044609 -0.034743
C54   C     C_R   0.760539 0.721557 0.541793 -0.059209
C55   C     C_R   0.255010 0.781792 0.046826 -0.064027
C56   C     C_R   0.261121 0.222089 0.541579 -0.060180
C57   C     C_R   0.242751 0.720684 0.144016 -0.106956
C58   C     C_R   0.249265 0.283191 0.637442 -0.068416
C59   C     C_R   0.745460 0.219303 0.141561 -0.089197
C60   C     C_R   0.748107 0.782084 0.638652 -0.100937
C61   C     C_R   0.182941 0.669074 0.082395 0.291245
C62   C     C_R   0.191854 0.337255 0.572655 0.214975
C63   C     C_R   0.686648 0.167289 0.079135 0.186187
C64   C     C_R   0.691693 0.836531 0.573197 0.181060
C65   C     C_R   0.152846 0.736201 0.828696 0.157988
C66   C     C_R   0.164837 0.272934 0.317159 0.215138
C67   C     C_R   0.657300 0.233683 0.823950 0.108784
C68   C     C_R   0.665314 0.773368 0.315699 0.186465
C69   C     C_R   0.210054 0.787350 0.888762 -0.203344
C70   C     C_R   0.215785 0.217549 0.383845 -0.219854
C71   C     C_R   0.713389 0.285513 0.885329 -0.211563
C72   C     C_R   0.715622 0.717483 0.383189 -0.205246
H81   H     H_    0.284536 0.668536 0.375223 0.181000
H82   H     H_    0.287843 0.332432 0.870062 0.179301
H83   H     H_    0.787578 0.166709 0.372027 0.179190
H84   H     H_    0.785758 0.830713 0.873471 0.179377
H85   H     H_    0.720119 0.330106 0.808537 0.185351
H86   H     H_    0.718666 0.671035 0.309986 0.195506
H87   H     H_    0.217694 0.831488 0.811026 0.196150
H88   H     H_    0.219012 0.171178 0.310551 0.199177
H89   H     H_    0.872556 0.377422 0.334963 0.128025
H90   H     H_    0.896972 0.631643 0.820589 0.157072
H91   H     H_    0.375951 0.876119 0.333266 0.128250
H92   H     H_    0.398507 0.132755 0.819393 0.151331
N1    N     N_2   0.073905 0.634744 0.874593 -0.103061
H93   H     H_    0.021345 0.660063 0.830211 0.153758
C73   C     C_3   0.096112 0.578741 0.777751 -0.459196
H94   H     H_    0.041949 0.555458 0.709516 0.281350
H95   H     H_    0.135039 0.539387 0.850968 0.230606
H96   H     H_    0.129327 0.598599 0.689607 0.187235
N2    N     N_2   0.097773 0.383485 0.339104 -0.099441
H97   H     H_    0.114016 0.436244 0.335560 0.182453
C74   C     C_3   0.018266 0.368587 0.354534 -0.538990
H98   H     H_    0.979466 0.380353 0.243854 0.241406
H99   H     H_    0.996008 0.405435 0.434299 0.254717
H100  H     H_    0.009752 0.311304 0.379298 0.147505
N3    N     N_2   0.577586 0.133456 0.871571 -0.113267
H101  H     H_    0.524630 0.158913 0.831689 0.148563
C75   C     C_3   0.598434 0.078009 0.772142 -0.455052
H102  H     H_    0.543542 0.057955 0.698506 0.278301
H103  H     H_    0.630131 0.035463 0.846292 0.218828
H104  H     H_    0.638468 0.096174 0.692651 0.216761
N4    N     N_2   0.602680 0.887508 0.344676 -0.084706
H105  H     H_    0.611742 0.909959 0.238751 0.223383
C76   C     C_3   0.522067 0.870766 0.353200 -0.551264
H106  H     H_    0.483868 0.884293 0.243224 0.239158
H107  H     H_    0.497768 0.905563 0.433666 0.255671
H108  H     H_    0.513173 0.813182 0.376116 0.144228

loop_
_geom_bond_atom_site_label_1
_geom_bond_atom_site_label_2
_geom_bond_distance
_ccdc_geom_bond_type
P11   C68   1.870669 S    
C24   C28   1.519106 S    
C15   H31   1.091090 S    
C12   H28   1.110657 S    
P1    O17   1.749300 S    
C14   C18   1.509613 S    
O9    Ba1   2.846494 S    
Ba3   O47   2.874577 S    
C26   H58   1.106188 S    
P3    O19   1.749756 S    
N2    H97   1.026155 S    
C2    H10   1.109387 S    
C16   H32   1.110886 S    
C28   H60   1.108541 S    
C7    H19   1.111701 S    
C18   H42   1.106512 S    
C9    H23   1.107574 S    
P16   C47   1.858023 S    
C25   H61   1.106302 S    
O9    P14   1.763667 S    
O8    Ba3   2.864028 S    
C22   H50   1.108299 S    
C4    H74   1.109880 S    
O26   Ba2   2.887657 S    
C1    H7    1.108931 S    
P1    O1    1.554331 D    
C44   C48   1.403691 A    
O38   C13   1.399015 S    
C33   C61   1.395735 A    
C3    H5    1.110970 S    
P1    Ba1   3.443488 S    
O37   C14   1.402871 S    
C20   H48   1.108489 S    
P3    O3    1.554331 D    
C43   C57   1.413428 A    
C76   H106  1.059108 S    
P4    O20   1.748958 S    
O14   P13   1.545740 D    
P3    Ba3   3.443488 S    
C24   H52   1.108158 S    
C55   C57   1.444776 A    
P7    Ba3   3.450552 S    
C21   C25   1.519945 S    
Ba1   O45   2.874577 S    
C40   C52   1.397650 A    
O2    Ba2   2.888352 S    
O31   Ba3   2.829719 S    
C4    C32   1.521328 S    
P9    O29   1.772777 S    
C19   H43   1.110186 S    
C74   H98   1.061101 S    
C35   N3    1.392546 S    
C54   C72   1.415307 A    
C58   C62   1.444008 A    
O28   Ba4   2.887657 S    
C23   H55   1.111113 S    
P12   O32   1.770904 S    
C33   C65   1.399164 A    
P5    O37   1.762397 S    
C9    H25   1.110442 S    
O4    Ba4   2.888352 S    
C24   H56   1.111442 S    
P5    Ba1   3.450552 S    
C11   H27   1.110088 S    
P2    O18   1.749023 S    
C3    C31   1.520953 S    
C73   H94   1.088000 S    
C49   C53   1.430704 A    
P4    O8    1.602322 S    
O6    Ba1   2.864028 S    
C3    H11   1.109373 S    
N1    H93   1.025974 S    
C43   H81   1.076497 S    
P4    C52   1.898724 S    
P8    O28   1.553634 D    
P11   O35   1.546412 D    
P4    O4    1.548714 D    
C39   H91   1.066252 S    
C75   H103  1.088763 S    
P7    O27   1.548024 D    
P5    O25   1.548024 D    
P9    O41   1.745818 S    
P7    C64   1.913208 S    
O18   C22   1.391748 S    
C59   C63   1.429290 A    
C73   H95   1.099090 S    
C8    H20   1.109740 S    
C56   C58   1.445121 A    
P2    O2    1.548714 D    
P11   O43   1.754456 S    
C15   H35   1.107376 S    
C51   C55   1.432442 A    
C1    H75   1.110992 S    
P7    O39   1.746696 S    
C60   C64   1.439969 A    
P6    Ba2   3.445734 S    
C34   N2    1.412326 S    
C36   C64   1.402242 A    
C42   C46   1.402093 A    
P7    O48   1.607359 S    
Ba2   O46   2.864001 S    
O12   P15   1.750623 S    
C29   H69   1.110873 S    
P8    O47   1.609626 S    
C1    C29   1.521772 S    
C75   H104  1.110783 S    
C16   H36   1.110263 S    
P9    O33   1.546073 D    
C55   C69   1.412619 A    
C19   H47   1.109804 S    
P10   O30   1.776289 S    
C36   N4    1.409138 S    
C8    H16   1.115379 S    
O11   P16   1.762799 S    
O32   Ba4   2.845785 S    
O5    Ba2   2.874611 S    
P3    O7    1.604568 S    
C33   N1    1.395346 S    
H2    C30   1.111963 S    
N4    H105  1.030446 S    
P12   O36   1.545048 D    
C76   H107  1.090284 S    
N3    H101  1.026396 S    
C65   C69   1.396102 A    
Ba1   O46   2.970316 S    
C31   H71   1.109735 S    
C36   C68   1.402758 A    
O21   C29   1.406855 S    
C14   H30   1.104947 S    
O16   P15   1.543230 D    
P9    C66   1.861998 S    
P12   C67   1.881433 S    
C26   H66   1.109216 S    
O19   C23   1.397503 S    
C39   C51   1.391946 A    
C74   H99   1.092319 S    
P10   C65   1.871175 S    
C3    H73   1.110018 S    
C28   H68   1.110065 S    
C27   H59   1.106513 S    
C2    H76   1.110674 S    
O42   C6    1.399360 S    
P12   O44   1.735444 S    
C67   C71   1.395375 A    
C52   C56   1.444414 A    
C11   H77   1.110161 S    
C13   C17   1.512091 S    
O20   C24   1.392319 S    
C27   H67   1.110295 S    
C70   H88   1.078123 S    
P8    C63   1.907009 S    
C57   C61   1.433657 A    
O21   P14   1.750841 S    
C9    H79   1.108745 S    
C15   C19   1.510157 S    
P6    O26   1.553634 D    
C35   C67   1.397966 A    
C10   H80   1.110390 S    
C10   H26   1.109068 S    
C53   C59   1.444504 A    
P1    O5    1.604568 S    
O44   C8    1.401012 S    
N2    C74   1.432563 S    
C71   H85   1.075364 S    
P3    C51   1.891777 S    
O41   C5    1.400013 S    
N1    C73   1.434829 S    
O17   C21   1.396714 S    
O25   Ba1   2.891824 S    
O23   P16   1.749192 S    
C5    H17   1.113225 S    
C21   H49   1.105898 S    
C50   C54   1.444054 A    
O39   C16   1.400679 S    
C42   C60   1.411606 A    
H3    C31   1.112555 S    
O30   Ba2   2.845785 S    
N3    C75   1.432387 S    
C66   C70   1.400987 A    
Ba1   Ba2   4.669179 S    
P10   O34   1.544784 D    
C73   H96   1.093749 S    
C2    H8    1.110767 S    
C4    H12   1.109815 S    
C40   H92   1.079615 S    
P11   O31   1.766847 S    
O1    Ba1   2.884238 S    
Ba3   Ba4   4.669179 S    
C22   H54   1.110825 S    
P2    Ba2   3.448197 S    
C18   H38   1.109435 S    
C20   H40   1.104118 S    
C23   C27   1.519742 S    
Ba4   O48   2.864001 S    
C20   H44   1.110864 S    
C6    H18   1.112991 S    
Ba2   O45   2.973816 S    
C7    C11   1.521001 S    
C69   H87   1.077627 S    
C8    C12   1.499848 S    
P15   C48   1.852572 S    
O22   C30   1.408694 S    
P4    Ba4   3.448197 S    
C12   H22   1.111561 S    
H4    C32   1.111063 S    
C39   C47   1.386651 A    
P2    C50   1.895361 S    
C53   C71   1.413986 A    
C44   C58   1.410467 A    
C38   C46   1.393478 A    
P1    C49   1.890742 S    
P5    O46   1.607359 S    
C68   C72   1.403784 A    
C37   C45   1.386422 A    
P8    O40   1.742741 S    
C14   H34   1.097330 S    
O27   Ba3   2.891824 S    
C76   H108  1.107974 S    
C19   H39   1.106285 S    
C75   H102  1.092468 S    
C41   H83   1.078199 S    
P6    O38   1.757754 S    
C16   C20   1.516122 S    
C38   H90   1.079411 S    
C17   H37   1.110815 S    
C6    C10   1.510936 S    
P6    C61   1.904628 S    
C37   H89   1.066755 S    
O22   P13   1.748842 S    
C23   H51   1.105844 S    
P5    C62   1.905836 S    
O10   Ba2   2.830417 S    
C17   H41   1.107191 S    
C74   H100  1.104601 S    
C1    H9    1.109473 S    
C26   H62   1.108343 S    
O10   P13   1.750905 S    
C4    H6    1.110979 S    
O7    Ba4   2.874611 S    
P10   O42   1.739791 S    
O40   C15   1.396197 S    
C13   H33   1.102437 S    
C5    C9    1.510258 S    
C28   H64   1.108347 S    
C10   H24   1.107083 S    
C18   H46   1.099941 S    
O29   Ba1   2.829719 S    
O43   C7    1.406201 S    
P6    O45   1.609626 S    
C25   H65   1.110366 S    
C7    H15   1.110265 S    
P8    Ba4   3.445734 S    
C41   C59   1.411854 A    
C34   C62   1.407865 A    
P14   C45   1.856770 S    
C27   H63   1.106449 S    
C25   H57   1.106368 S    
C30   H70   1.113123 S    
P13   C46   1.850796 S    
H1    C29   1.112770 S    
O15   P16   1.544698 D    
O12   Ba4   2.830417 S    
C22   C26   1.518158 S    
C43   C47   1.399183 A    
N4    C76   1.442750 S    
O13   P14   1.545392 D    
O24   C32   1.404752 S    
C44   H82   1.075620 S    
O3    Ba3   2.884238 S    
C41   C45   1.398746 A    
C42   H84   1.079547 S    
C32   H72   1.110964 S    
C72   H86   1.078296 S    
C21   H53   1.111254 S    
C40   C48   1.394080 A    
C6    H14   1.111338 S    
C56   C70   1.412254 A    
C34   C66   1.394232 A    
C11   H21   1.111105 S    
C5    H13   1.108785 S    
C38   C50   1.397705 A    
C54   C60   1.444310 A    
O11   Ba3   2.846494 S    
C17   H45   1.107836 S    
C37   C49   1.392221 A    
C2    C30   1.521444 S    
C35   C63   1.396036 A    
C12   H78   1.110042 S    
Ba4   O47   2.973816 S    
C13   H29   1.100670 S    
O24   P15   1.747389 S    
O23   C31   1.406259 S    
Ba3   O48   2.970316 S    
P2    O6    1.602322 S    
