data_mof_unit_25692.cif
_audit_creation_date              2012-12-10T18:04:03-0500
_audit_creation_method            fapswitch 2.2
_symmetry_space_group_name_H-M    P1
_symmetry_Int_Tables_number       1
_space_group_crystal_system       triclinic
_cell_length_a                    10.902432
_cell_length_b                    9.643243
_cell_length_c                    11.088202
_cell_angle_alpha                 89.251285
_cell_angle_beta                  95.505577
_cell_angle_gamma                 89.436682
_cell_volume                      1160.20708265

loop_
_atom_site_label
_atom_site_type_symbol
_atom_type_description
_atom_site_fract_x
_atom_site_fract_y
_atom_site_fract_z
_atom_type_partial_charge
Br1   Br    Br    0.674519 0.791943 0.941774 -0.372990
Br2   Br    Br    0.274237 0.837764 0.040404 -0.349905
Br3   Br    Br    0.139777 0.200650 0.574075 -0.329636
Br4   Br    Br    0.865072 0.201401 0.421790 -0.328939
Br5   Br    Br    0.303806 0.173222 0.307470 -0.323661
Br6   Br    Br    0.709309 0.165064 0.678605 -0.318136
Br7   Br    Br    0.284118 0.838242 0.332702 -0.352433
Br8   Br    Br    0.722602 0.831985 0.661974 -0.328575
C1    C     C_R   0.263139 0.500074 0.508876 0.849946
C2    C     C_R   0.470521 0.611232 0.934123 -0.014342
C3    C     C_R   0.491250 0.497677 0.128857 -0.127232
C4    C     C_R   0.498509 0.493517 0.870756 -0.103944
C5    C     C_R   0.525047 0.374835 0.068956 -0.081548
C6    C     C_R   0.512654 0.369160 0.941016 -0.085973
C7    C     C_3   0.496858 0.761503 0.930016 0.056584
C8    C     C_3   0.443922 0.766213 0.053694 0.055984
C9    C     C_R   0.063994 0.372959 0.512594 0.275519
C10   C     C_R   0.936999 0.372471 0.481934 0.276279
C11   C     C_R   0.869712 0.498412 0.476548 -0.218796
C12   C     C_R   0.736079 0.499379 0.488586 0.853746
C13   C     C_R   0.128346 0.499718 0.515182 -0.217386
C14   C     C_R   0.933909 0.624450 0.475515 -0.106675
C15   C     C_R   0.060497 0.625459 0.507588 -0.108609
C16   C     C_1   0.585120 0.258260 0.135248 0.350971
C17   C     C_1   0.509950 0.234041 0.887189 0.389894
C18   C     C_1   0.426805 0.833992 0.827855 0.429046
C19   C     C_1   0.523676 0.830173 0.151539 0.420083
C20   C     C_1   0.874551 0.751658 0.427687 0.410914
C21   C     C_1   0.114390 0.754980 0.548901 0.414548
C22   C     C_R   0.415769 0.076164 0.425461 0.326399
C23   C     C_R   0.586460 0.072544 0.572103 0.326712
C24   C     C_R   0.412684 0.928531 0.429578 0.286038
C25   C     C_R   0.588690 0.924949 0.569133 0.292689
C26   C     C_R   0.497387 0.500670 0.262514 0.804741
C27   C     C_R   0.501657 0.498613 0.737603 0.815443
C28   C     C_R   0.445800 0.609288 0.053578 0.055937
Cu1   Cu    Cu3+1 0.500000 0.640660 0.500000 1.061350
Cu2   Cu    Cu3+1 0.500000 0.359340 0.500000 1.092262
N1    N     N_R   0.500000 0.852070 0.500000 -0.261024
N2    N     N_R   0.500000 0.147940 0.500000 -0.261450
N3    N     N_1   0.634385 0.166129 0.187943 -0.172680
N4    N     N_1   0.505838 0.124425 0.846753 -0.217777
N5    N     N_1   0.371144 0.890508 0.747475 -0.218935
N6    N     N_1   0.587510 0.879557 0.228154 -0.217210
N7    N     N_1   0.828344 0.853161 0.388458 -0.151116
N8    N     N_1   0.154993 0.859204 0.582982 -0.143956
O1    O     O_R   0.319640 0.618740 0.499990 -0.564509
O2    O     O_R   0.680360 0.618740 0.500010 -0.560801
O3    O     O_R   0.319620 0.381170 0.499990 -0.522015
O4    O     O_R   0.680380 0.381170 0.500010 -0.523182
O5    O     O_R   0.499990 0.618810 0.319660 -0.570567
O6    O     O_R   0.500010 0.618810 0.680340 -0.564596
O7    O     O_R   0.499960 0.381240 0.319650 -0.559847
O8    O     O_R   0.500040 0.381240 0.680350 -0.566639

loop_
_geom_bond_atom_site_label_1
_geom_bond_atom_site_label_2
_ccdc_geom_bond_type
C17   N4    T    
Cu2   N2    S    
C23   C25   A    
Br3   C9    S    
Cu1   Cu2   S    
Br1   C7    S    
Cu1   O1    S    
Br2   C8    S    
C11   C12   S    
Cu2   O8    S    
C27   O8    A    
C21   N8    T    
Br8   C25   S    
Br4   C10   S    
C8    C19   S    
C9    C10   A    
C22   N2    A    
Cu1   N1    S    
Cu2   O3    S    
C14   C20   S    
C5    C6    A    
C8    C28   S    
Cu1   O2    S    
C22   C24   A    
C16   N3    T    
C3    C5    A    
C1    C13   S    
C26   O5    A    
C25   N1    A    
Cu2   O7    S    
C2    C4    A    
Cu2   O4    S    
C15   C21   S    
C3    C28   A    
C4    C6    A    
C18   N5    T    
C1    O1    A    
C2    C7    S    
C13   C15   A    
C6    C17   S    
Cu1   O5    S    
C20   N7    T    
C7    C8    S    
Br6   C23   S    
C11   C14   A    
C1    O3    A    
C23   N2    A    
C26   O7    A    
C12   O4    A    
C10   C11   A    
Br5   C22   S    
C24   N1    A    
C27   O6    A    
Cu1   O6    S    
C14   C15   A    
C7    C18   S    
C2    C28   A    
Br7   C24   S    
C12   O2    A    
C19   N6    T    
C3    C26   S    
C9    C13   A    
C5    C16   S    
C4    C27   S    
