data_mof_unit_25984.cif
_audit_creation_date              2012-12-11T15:48:45-0500
_audit_creation_method            fapswitch 2.2
_symmetry_space_group_name_H-M    P1
_symmetry_Int_Tables_number       1
_space_group_crystal_system       triclinic
_cell_length_a                    10.873515
_cell_length_b                    11.038075
_cell_length_c                    18.710317
_cell_angle_alpha                 90.76674
_cell_angle_beta                  90.432774
_cell_angle_gamma                 60.635657
_cell_volume                      1956.96116789

loop_
_atom_site_label
_atom_site_type_symbol
_atom_type_description
_atom_site_fract_x
_atom_site_fract_y
_atom_site_fract_z
_atom_type_partial_charge
C1    C     C_R   0.239891 0.645392 0.610326 0.539674
C2    C     C_3   0.661696 0.552352 0.800588 -0.248471
C3    C     C_3   0.695549 0.670738 0.813238 0.051861
C4    C     C_3   0.667138 0.645087 0.676928 0.062984
C5    C     C_3   0.819936 0.610934 0.693073 -0.242857
C6    C     C_3   0.628387 0.548611 0.720727 -0.217673
C7    C     C_R   0.716740 0.082732 0.812666 0.010479
C8    C     C_R   0.832081 0.063235 0.771081 0.018937
C9    C     C_R   0.814944 0.093261 0.698304 0.018777
C10   C     C_R   0.582025 0.122218 0.703274 -0.185187
C11   C     C_R   0.592428 0.109498 0.776302 -0.184213
C12   C     C_R   0.653346 0.620892 0.601191 0.539949
C13   C     C_3   0.931138 0.120042 0.779231 -0.266604
C14   C     C_3   0.918999 0.144172 0.698880 -0.278121
C15   C     C_R   0.683359 0.137757 0.664983 0.014142
C16   C     C_R   0.182319 0.667432 0.835539 0.018162
C17   C     C_R   0.160149 0.572764 0.794766 0.014764
C18   C     C_R   0.168522 0.570280 0.720626 -0.004550
C19   C     C_R   0.211360 0.764560 0.725966 -0.164559
C20   C     C_R   0.211383 0.761383 0.800088 -0.169287
C21   C     C_3   0.241624 0.417918 0.798306 -0.280735
C22   C     C_3   0.249734 0.415807 0.717646 -0.272136
C23   C     C_R   0.631828 0.222288 0.600621 0.547154
C24   C     C_R   0.195078 0.665311 0.684858 0.016761
C25   C     C_R   0.680283 0.684316 0.175879 -0.033542
C26   C     C_R   0.800555 0.616236 0.218701 -0.010785
C27   C     C_R   0.793861 0.613101 0.291540 -0.057035
C28   C     C_R   0.543923 0.772325 0.285647 0.228812
C29   C     C_R   0.552979 0.770237 0.210057 -0.174196
C30   C     C_3   0.925803 0.474864 0.214208 -0.186667
C31   C     C_3   0.923260 0.473267 0.295373 -0.242940
C32   C     C_R   0.663598 0.677176 0.325784 0.031077
C33   C     C_R   0.624792 0.204071 0.164786 -0.007382
C34   C     C_R   0.216666 0.649552 0.403648 0.537343
C35   C     C_R   0.509433 0.214682 0.202366 0.049655
C36   C     C_R   0.494880 0.245723 0.273896 -0.074553
C37   C     C_R   0.683735 0.298177 0.269324 -0.165569
C38   C     C_R   0.702812 0.261484 0.196203 -0.175758
C39   C     C_3   0.458089 0.112153 0.210447 0.173425
C40   C     C_3   0.439847 0.148875 0.289722 -0.208358
C41   C     C_R   0.588373 0.276564 0.310465 -0.001480
C42   C     C_R   0.115826 0.694810 0.189153 0.016153
C43   C     C_R   0.047176 0.809320 0.235409 0.014014
C44   C     C_R   0.063493 0.795559 0.308633 -0.016953
C45   C     C_R   0.644214 0.625675 0.393902 0.550476
C46   C     C_R   0.208481 0.548324 0.290245 -0.164547
C47   C     C_R   0.199600 0.563959 0.216909 -0.175235
C48   C     C_3   0.893516 0.907319 0.240813 -0.254367
C49   C     C_3   0.909388 0.890220 0.320773 -0.281170
C50   C     C_R   0.146302 0.664440 0.336463 0.009088
C51   C     C_R   0.726152 0.046090 0.888327 0.545952
C52   C     C_R   0.720974 0.686657 0.889198 0.531679
C53   C     C_R   0.119283 0.705830 0.906292 0.538914
C54   C     C_R   0.671311 0.114728 0.101441 0.534763
C55   C     C_R   0.700185 0.692989 0.099712 0.544961
C56   C     C_R   0.578282 0.296156 0.388092 0.567595
C57   C     C_R   0.085438 0.715112 0.114514 0.550794
C58   C     C_3   0.571388 0.806137 0.782598 -0.235949
C59   C     C_3   0.565863 0.796876 0.700840 -0.246071
C60   C     C_3   0.832746 0.637802 0.772122 -0.220366
Cr1   Cr    Cr6+3 0.392960 0.397920 0.502240 1.001932
Cr2   Cr    Cr6+3 0.398340 0.708480 0.501250 1.030469
Cr3   Cr    Cr6+3 0.708670 0.393570 0.496460 0.999767
Cr4   Cr    Cr6+3 0.937650 0.938540 0.007610 1.036652
Cr5   Cr    Cr6+3 0.625330 0.937370 0.994520 1.076378
Cr6   Cr    Cr6+3 0.937940 0.625230 0.001190 1.052710
H1    H     H_    0.586268 0.894056 0.797187 0.142578
H2    H     H_    0.683550 0.440464 0.700787 0.128521
H3    H     H_    0.924692 0.543392 0.793851 0.147079
H4    H     H_    0.895048 0.499887 0.680225 0.134534
H5    H     H_    0.483961 0.139237 0.679245 0.138646
H6    H     H_    0.500263 0.120346 0.803841 0.142181
H7    H     H_    0.038078 0.041258 0.796161 0.141755
H8    H     H_    0.885264 0.217091 0.811680 0.135186
H9    H     H_    0.876270 0.253732 0.683728 0.143826
H10   H     H_    0.016935 0.071434 0.669717 0.137126
H11   H     H_    0.233582 0.839850 0.701365 0.128572
H12   H     H_    0.469580 0.825403 0.806154 0.118846
H13   H     H_    0.228211 0.836861 0.829785 0.128386
H14   H     H_    0.176992 0.373152 0.818816 0.140403
H15   H     H_    0.345714 0.379610 0.824995 0.151609
H16   H     H_    0.358131 0.378597 0.697705 0.173673
H17   H     H_    0.189873 0.370088 0.691110 0.129136
H18   H     H_    0.462773 0.835218 0.177856 0.178236
H19   H     H_    0.019123 0.475729 0.191923 0.216274
H20   H     H_    0.899769 0.398957 0.188614 0.147214
H21   H     H_    0.908244 0.388865 0.316809 0.162460
H22   H     H_    0.455182 0.831478 0.684560 0.134221
H23   H     H_    0.012467 0.479445 0.320632 0.155315
H24   H     H_    0.750294 0.332206 0.294763 0.135776
H25   H     H_    0.788406 0.261899 0.167320 0.126556
H26   H     H_    0.543512 0.005029 0.199443 0.106218
H27   H     H_    0.328989 0.204944 0.308726 0.195889
H28   H     H_    0.513417 0.061096 0.323891 0.156232
H29   H     H_    0.269490 0.446062 0.311529 0.154608
H30   H     H_    0.255348 0.475088 0.182314 0.190829
H31   H     H_    0.827237 0.866932 0.216146 0.131276
H32   H     H_    0.597994 0.867671 0.675667 0.125389
H33   H     H_    0.871843 0.010621 0.223468 0.157480
H34   H     H_    0.888197 0.987324 0.349549 0.157518
H35   H     H_    0.855340 0.836010 0.343346 0.145551
H36   H     H_    0.854229 0.726275 0.778216 0.121994
H37   H     H_    0.849575 0.675879 0.660088 0.118775
H38   H     H_    0.753450 0.451937 0.816240 0.126011
H39   H     H_    0.569803 0.568787 0.833503 0.120357
H40   H     H_    0.513885 0.584137 0.714424 0.129066
O1    O     O_R   0.507380 0.255700 0.581440 -0.531914
O2    O     O_R   0.524480 0.695810 0.424040 -0.445602
O3    O     O_R   0.736390 0.504290 0.414790 -0.547607
O4    O     O_R   0.691300 0.277290 0.422170 -0.507333
O5    O     O_3   0.499990 0.499990 0.499980 -0.275373
O6    O     O_R   0.089400 0.825690 0.930570 -0.524007
O7    O     O_R   0.818460 0.054440 0.929850 -0.493198
O8    O     O_R   0.606060 0.077150 0.915510 -0.522648
O9    O     O_R   0.646550 0.806680 0.917570 -0.522904
O10   O     O_R   0.837170 0.593410 0.915250 -0.522084
O11   O     O_R   0.065200 0.635530 0.931570 -0.494995
O12   O     O_R   0.280320 0.527350 0.578930 -0.504453
O13   O     O_R   0.068260 0.828890 0.091840 -0.507745
O14   O     O_R   0.798870 0.057410 0.079340 -0.511899
O15   O     O_R   0.584930 0.080350 0.076780 -0.459232
O16   O     O_R   0.626960 0.809650 0.067060 -0.477376
O17   O     O_R   0.816040 0.596610 0.076510 -0.509014
O18   O     O_R   0.045610 0.638500 0.081060 -0.486362
O19   O     O_3   0.833640 0.833710 0.001100 -0.290262
O20   O     O_R   0.260510 0.739590 0.584590 -0.530928
O21   O     O_R   0.532300 0.695080 0.573820 -0.510654
O22   O     O_R   0.744840 0.503500 0.576370 -0.531528
O23   O     O_R   0.699120 0.276560 0.571960 -0.500038
O24   O     O_R   0.498940 0.256500 0.419860 -0.518949
O25   O     O_R   0.272500 0.528080 0.429150 -0.528999
O26   O     O_R   0.252060 0.740380 0.423010 -0.506353
O27   O     O_3   0.423691 0.869578 0.321414 -0.555050
C61   C     C_3   0.302045 0.874155 0.292185 -0.061415
H41   H     H_    0.213985 0.930963 0.330286 0.170500
H42   H     H_    0.317861 0.767695 0.283081 0.125243
H43   H     H_    0.270032 0.932736 0.241782 0.164877
S1    S     S_3+6 0.297513 0.159477 0.161424 -0.028838
O28   O     O_2   0.254107 0.288035 0.118403 -0.291681
O29   O     O_2   0.321864 0.043658 0.110360 -0.302000
O30   O     O_3   0.166809 0.186376 0.217900 -0.594094
H44   H     H_    0.103271 0.163060 0.189995 0.349677

loop_
_geom_bond_atom_site_label_1
_geom_bond_atom_site_label_2
_ccdc_geom_bond_type
C44   C49   S    
C5    H37   S    
C8    C13   S    
C54   O14   A    
Cr5   O8    S    
C35   C36   A    
C40   H27   S    
C9    C14   S    
C61   H43   S    
C7    C8    A    
C12   O21   A    
C7    C11   A    
C48   H31   S    
C26   C27   A    
C51   O7    A    
Cr4   O13   S    
Cr6   O10   S    
C37   H24   S    
C18   C24   A    
C22   H16   S    
C28   C29   A    
C10   C15   A    
C49   H35   S    
Cr2   O21   S    
C53   O11   A    
Cr4   O6    S    
Cr2   O2    S    
C23   O23   A    
C32   C45   S    
C19   H11   S    
C16   C53   S    
C59   H22   S    
C46   H29   S    
C19   C20   A    
C16   C17   A    
C31   H23   S    
Cr6   O11   S    
C47   H30   S    
Cr5   O15   S    
C30   H20   S    
C43   C48   S    
Cr3   O22   S    
C20   H13   S    
C45   O2    A    
C57   O13   A    
C3    C60   S    
C15   C23   S    
Cr1   O12   S    
C55   O16   A    
C34   O26   A    
C21   C22   S    
C37   C41   A    
Cr5   O9    S    
C36   C41   A    
C2    C6    S    
C60   H36   S    
C42   C57   S    
C56   O4    A    
C42   C47   A    
C52   O10   A    
C25   C29   A    
C55   O17   A    
C34   C50   S    
C51   O8    A    
C31   H21   S    
Cr2   O5    S    
C27   C31   S    
C28   O27   S    
Cr2   O26   S    
C28   C32   A    
C1    O20   A    
C29   H18   S    
C4    C6    S    
C10   C11   A    
C40   H28   S    
C39   C40   S    
Cr2   O20   S    
C58   H12   S    
C11   H6    S    
C8    C9    A    
C61   H42   S    
C25   C26   A    
C38   H25   S    
S1    O30   S    
C17   C21   S    
Cr5   O19   S    
Cr3   O3    S    
C35   C39   S    
C43   C44   A    
C41   C56   S    
C37   C38   A    
C4    C59   S    
C36   C40   S    
C16   C20   A    
C23   O1    A    
C17   C18   A    
C6    H40   S    
Cr5   O16   S    
C30   H19   S    
S1    O29   D    
Cr1   O24   S    
C53   O6    A    
C48   C49   S    
C54   O15   A    
C21   H15   S    
C2    H38   S    
C26   C30   S    
O27   C61   S    
Cr6   O18   S    
C4    C12   S    
C42   C43   A    
Cr1   O5    S    
C39   H26   S    
C52   O9    A    
C44   C50   A    
C33   C54   S    
C48   H33   S    
C46   C47   A    
Cr4   O7    S    
C5    C60   S    
C27   C32   A    
C18   C22   S    
C25   C55   S    
C13   H7    S    
C4    C5    S    
C5    H4    S    
C34   O25   A    
C3    C52   S    
C61   H41   S    
C12   O22   A    
C14   H9    S    
C46   C50   A    
C2    H39   S    
C33   C38   A    
Cr4   O14   S    
Cr6   O19   S    
C22   H17   S    
Cr3   O4    S    
C19   C24   A    
C58   C59   S    
C7    C51   S    
O30   H44   S    
C10   H5    S    
C57   O18   A    
C30   C31   S    
C60   H3    S    
C21   H14   S    
C6    H2    S    
C33   C35   A    
C2    C3    S    
C45   O3    A    
C1    O12   A    
Cr3   O23   S    
Cr3   O5    S    
Cr1   O1    S    
C39   S1    S    
S1    O28   D    
Cr1   O25   S    
C3    C58   S    
C58   H1    S    
C13   H8    S    
C1    C24   S    
Cr4   O19   S    
C59   H32   S    
Cr6   O17   S    
C13   C14   S    
C56   O24   A    
C9    C15   A    
C14   H10   S    
C49   H34   S    
