data_mof_unit_28403.cif
_audit_creation_date              2012-10-26T20:19:15-0400
_audit_creation_method            fapswitch 2.2
_symmetry_space_group_name_H-M    P1
_symmetry_Int_Tables_number       1
_space_group_crystal_system       triclinic
_cell_length_a                    14.994796
_cell_length_b                    12.954489
_cell_length_c                    11.808633
_cell_angle_alpha                 99.317556
_cell_angle_beta                  91.647001
_cell_angle_gamma                 92.249596
_cell_volume                      2260.3839211

loop_
_atom_site_label
_atom_site_type_symbol
_atom_type_description
_atom_site_fract_x
_atom_site_fract_y
_atom_site_fract_z
_atom_type_partial_charge
C1    C     C_R   0.495678 0.299574 0.479150 0.559925
C2    C     C_R   0.577096 0.874049 0.614230 0.122537
C3    C     C_R   0.533760 0.139333 0.549740 -0.156825
C4    C     C_R   0.467631 0.861252 0.454794 -0.143395
C5    C     C_R   0.527962 0.031180 0.546024 0.013952
C6    C     C_R   0.474028 0.969066 0.458399 0.033314
C7    C     C_R   0.404597 0.412848 0.032036 0.060519
C8    C     C_R   0.595354 0.587493 0.968217 0.063240
C9    C     C_R   0.415499 0.421215 0.151547 0.024525
C10   C     C_R   0.584362 0.579094 0.848582 0.028784
C11   C     C_R   0.544616 0.533340 0.151572 0.247080
C12   C     C_R   0.506644 0.700213 0.520672 0.544739
C13   C     C_R   0.455724 0.466543 0.848734 0.251041
C14   C     C_R   0.535492 0.530958 0.030609 0.034459
C15   C     C_R   0.464605 0.469349 0.969728 0.034984
C16   C     C_R   0.329304 0.498684 0.501753 0.543751
C17   C     C_R   0.670577 0.500862 0.498049 0.574661
C18   C     C_R   0.815082 0.588785 0.468641 0.070060
C19   C     C_R   0.183372 0.407717 0.522105 0.074298
C20   C     C_R   0.766730 0.501146 0.493731 0.029533
C21   C     C_R   0.232876 0.497921 0.505020 0.006424
C22   C     C_R   0.809383 0.413855 0.519170 -0.142409
C23   C     C_R   0.038800 0.321496 0.543021 -0.087495
C24   C     C_R   0.190497 0.586600 0.482565 -0.150082
C25   C     C_R   0.902337 0.411357 0.519985 0.041739
C26   C     C_R   0.097311 0.588480 0.478400 0.016336
C27   C     C_R   0.952734 0.499905 0.496741 0.002052
C28   C     C_R   0.046641 0.499271 0.499213 0.002724
C29   C     C_R   0.909200 0.589081 0.471172 -0.004586
C30   C     C_R   0.089826 0.409023 0.521700 0.040553
C31   C     C_R   0.945619 0.322114 0.543547 0.090112
C32   C     C_R   0.053444 0.677181 0.453509 0.099362
C33   C     C_R   0.960532 0.676389 0.449582 -0.076758
C34   C     C_R   0.517681 0.813599 0.531352 -0.012613
C35   C     C_R   0.488055 0.185967 0.468344 0.012450
C36   C     C_R   0.426905 0.015581 0.376046 0.110396
C37   C     C_R   0.576638 0.984395 0.627215 0.136117
C38   C     C_R   0.434255 0.124862 0.380863 0.102055
Cu1   Cu    Cu3+1 0.506660 0.507730 0.615930 0.930206
Cu2   Cu    Cu3+1 0.493340 0.492270 0.384070 0.950356
H1    H     H_    0.768968 0.347742 0.537644 0.145481
H2    H     H_    0.783634 0.691136 0.361965 0.242096
H3    H     H_    0.267805 0.328515 0.609715 0.240989
H4    H     H_    0.267239 0.292892 0.465129 0.241755
H5    H     H_    0.272870 0.372159 0.011039 0.229891
H6    H     H_    0.341122 0.270232 0.994093 0.226341
H7    H     H_    0.726977 0.628561 0.989402 0.227918
H8    H     H_    0.658506 0.730271 0.006226 0.236265
H9    H     H_    0.869467 0.251732 0.649292 0.232128
H10   H     H_    0.935984 0.169297 0.570893 0.231967
H11   H     H_    0.141027 0.748920 0.360498 0.236998
H12   H     H_    0.231427 0.653458 0.467421 0.113111
H13   H     H_    0.142460 0.799171 0.503094 0.234143
H14   H     H_    0.703861 0.859120 0.670149 0.220690
H15   H     H_    0.647546 0.747398 0.647349 0.247996
H16   H     H_    0.317630 0.156420 0.304188 0.220255
H17   H     H_    0.406086 0.145142 0.216876 0.229368
H18   H     H_    0.395172 0.962274 0.207749 0.236923
H19   H     H_    0.306398 0.974826 0.294669 0.234659
H20   H     H_    0.657124 0.006415 0.776084 0.255890
H21   H     H_    0.579897 0.093336 0.770574 0.224277
H22   H     H_    0.332834 0.464195 0.771451 0.253801
H23   H     H_    0.071231 0.252382 0.560991 0.155536
H24   H     H_    0.397704 0.359621 0.718404 0.265737
H25   H     H_    0.605663 0.637283 0.283778 0.286789
H26   H     H_    0.668172 0.532438 0.226514 0.257907
H27   H     H_    0.929237 0.745531 0.429873 0.140131
H28   H     H_    0.423648 0.812928 0.391351 0.174312
H29   H     H_    0.575774 0.188503 0.614722 0.162579
H30   H     H_    0.630376 0.621583 0.802066 0.141821
H31   H     H_    0.369422 0.378818 0.198106 0.150009
H32   H     H_    0.786951 0.742510 0.504410 0.221275
N1    N     N_R   0.516670 0.519360 0.790130 -0.248403
N2    N     N_3   0.385809 0.174417 0.299385 -0.629782
N3    N     N_3   0.372200 0.951435 0.287896 -0.653485
N4    N     N_3   0.626164 0.049938 0.720484 -0.633388
N5    N     N_3   0.379520 0.411108 0.789791 -0.573068
N6    N     N_3   0.621942 0.586876 0.210431 -0.562711
N7    N     N_R   0.483330 0.480640 0.209870 -0.250764
N8    N     N_3   0.767367 0.676954 0.443717 -0.653590
N9    N     N_3   0.227121 0.313561 0.535429 -0.652932
N10   N     N_3   0.332727 0.345728 0.976001 -0.601392
N11   N     N_3   0.667045 0.654820 0.024362 -0.600477
N12   N     N_3   0.894764 0.232048 0.567384 -0.629351
N13   N     N_3   0.101334 0.769400 0.431311 -0.638504
N14   N     N_3   0.640662 0.825935 0.681306 -0.629169
O1    O     O_R   0.504720 0.354460 0.582000 -0.533417
O2    O     O_R   0.495280 0.645540 0.418000 -0.518586
O3    O     O_R   0.493480 0.341410 0.386200 -0.461395
O4    O     O_R   0.506520 0.658590 0.613800 -0.484668
O5    O     O_R   0.375880 0.506510 0.597910 -0.517545
O6    O     O_R   0.624120 0.493490 0.402090 -0.505462
O7    O     O_R   0.364640 0.493450 0.402110 -0.502385
O8    O     O_R   0.635360 0.506550 0.597890 -0.516688

loop_
_geom_bond_atom_site_label_1
_geom_bond_atom_site_label_2
_ccdc_geom_bond_type
C25   C31   A    
H2    N8    S    
C16   C21   S    
C5    C37   A    
C27   C29   A    
C8    N11   S    
H24   N5    S    
H22   N5    S    
H5    N10   S    
Cu1   O1    S    
Cu2   O7    S    
H11   N13   S    
H10   N12   S    
C11   N6    S    
C26   C32   A    
C1    C35   S    
C16   O7    A    
H9    N12   S    
C12   O4    A    
C19   C21   A    
C24   C26   A    
C24   H12   S    
C5    C6    A    
C11   C14   A    
C22   H1    S    
C29   C33   A    
C17   C20   S    
C9    N7    A    
C1    O1    A    
H6    N10   S    
C22   C25   A    
C8    C14   A    
H7    N11   S    
Cu2   O3    S    
Cu1   O4    S    
C2    C34   A    
C23   H23   S    
C17   O6    A    
Cu1   O5    S    
H18   N3    S    
C4    C34   A    
H21   N4    S    
H26   N6    S    
C13   N5    S    
H16   N2    S    
C12   O2    A    
C23   C30   A    
C35   C38   A    
C4    C6    A    
H4    N9    S    
Cu1   Cu2   S    
C4    H28   S    
H20   N4    S    
C31   N12   S    
C23   C31   A    
H17   N2    S    
Cu1   O8    S    
C36   N3    S    
C3    C35   A    
Cu2   N7    S    
C18   C29   A    
Cu2   O6    S    
C11   N7    A    
C10   H30   S    
C18   N8    S    
C37   N4    S    
C13   N1    A    
C13   C15   A    
H3    N9    S    
C12   C34   S    
C36   C38   A    
H19   N3    S    
C33   H27   S    
H14   N14   S    
C38   N2    S    
C7    C9    A    
C1    O3    A    
H25   N6    S    
C3    H29   S    
C9    H31   S    
C20   C22   A    
C3    C5    A    
C25   C27   A    
C26   C28   A    
H8    N11   S    
C32   C33   A    
Cu2   O2    S    
H15   N14   S    
C28   C30   A    
H32   N8    S    
C2    C37   A    
C32   N13   S    
C7    C15   A    
C10   N1    A    
C6    C36   A    
C2    N14   S    
C18   C20   A    
Cu1   N1    S    
C7    N10   S    
C16   O5    A    
C8    C10   A    
C21   C24   A    
C27   C28   A    
C14   C15   A    
H13   N13   S    
C17   O8    A    
C19   N9    S    
C19   C30   A    
