data_mof_unit_59672.cif
_audit_creation_date              2013-03-05T15:43:53-0500
_audit_creation_method            fapswitch 2.2
_symmetry_space_group_name_H-M    P1
_symmetry_Int_Tables_number       1
_space_group_crystal_system       triclinic
_cell_length_a                    13.536557
_cell_length_b                    13.519316
_cell_length_c                    27.627203
_cell_angle_alpha                 90.416178
_cell_angle_beta                  89.972851
_cell_angle_gamma                 60.252471
_cell_volume                      4389.48429791

loop_
_atom_site_label
_atom_site_type_symbol
_atom_site_description
_atom_site_fract_x
_atom_site_fract_y
_atom_site_fract_z
_atom_type_partial_charge
O1    O     O_R   0.301710 0.195650 0.554160 -0.475721
O2    O     O_R   0.522390 0.158990 0.550460 -0.481449
C1    C     C_R   0.618993 0.099687 0.570900 0.561496
O3    O     O_R   0.694390 0.003530 0.554040 -0.479435
O4    O     O_R   0.657700 0.819660 0.549320 -0.488928
C2    C     C_R   0.597929 0.781632 0.569252 0.551257
O5    O     O_R   0.501930 0.803280 0.552920 -0.478416
O6    O     O_R   0.318170 0.023580 0.549580 -0.491862
C3    C     C_R   0.280586 0.120561 0.570047 0.556004
O7    O     O_R   0.303010 0.193990 0.446760 -0.457406
O8    O     O_R   0.523600 0.157450 0.450900 -0.448882
C4    C     C_R   0.622081 0.099330 0.431506 0.588229
O9    O     O_R   0.695690 0.001860 0.446640 -0.484695
O10   O     O_R   0.658900 0.818120 0.449760 -0.467438
C5    C     C_R   0.598200 0.782310 0.428851 0.612462
O11   O     O_R   0.503220 0.801620 0.445520 -0.418236
O12   O     O_R   0.319370 0.022040 0.450020 -0.432879
C6    C     C_R   0.280372 0.120802 0.430103 0.582851
Cr1   Cr    Cr6+3 0.417550 0.169090 0.500530 1.182711
Cr2   Cr    Cr6+3 0.669180 0.913420 0.499920 1.152650
Cr3   Cr    Cr6+3 0.413260 0.917540 0.499520 1.185113
O13   O     O_3   0.499990 0.000010 0.499990 -0.341072
C7    C     C_3   0.728021 0.587252 0.736399 -0.090934
C8    C     C_3   0.759293 0.656026 0.773007 -0.084061
H1    H     H_    0.844671 0.639175 0.784531 0.247541
H2    H     H_    0.787568 0.510407 0.715359 0.248507
C9    C     C_1   0.694829 0.610721 0.901103 0.103706
C10   C     C_1   0.622581 0.741229 0.617982 0.080265
C11   C     C_3   0.633967 0.597832 0.771699 0.429529
C12   C     C_3   0.665519 0.664872 0.807763 -0.042159
C13   C     C_3   0.547186 0.709568 0.748039 0.151477
C14   C     C_3   0.639857 0.700337 0.712870 -0.073246
C15   C     C_3   0.577993 0.776056 0.784248 0.138430
C16   C     C_3   0.670076 0.768370 0.749237 0.359386
C17   C     C_1   0.681144 0.639757 0.859471 0.122385
C18   C     C_1   0.632442 0.719352 0.660507 0.086136
C19   C     C_3   0.092960 0.177940 0.734726 0.168869
C20   C     C_3   0.150892 0.084199 0.772810 0.148497
H3    H     H_    0.340654 0.965927 0.743426 0.198325
C21   C     C_1   0.096400 0.203327 0.902036 0.107371
C22   C     C_1   0.246221 0.131614 0.619305 0.093878
C23   C     C_3   0.097115 0.264629 0.769622 0.159987
C24   C     C_3   0.154690 0.171345 0.808423 -0.028546
C25   C     C_3   0.213637 0.234929 0.749089 0.175838
C26   C     C_3   0.209583 0.148220 0.714122 -0.104597
C27   C     C_3   0.272150 0.141905 0.787399 0.352621
C28   C     C_3   0.269754 0.052264 0.752054 -0.117878
C29   C     C_1   0.126216 0.185262 0.860229 0.146519
C30   C     C_1   0.228895 0.138766 0.662058 0.086901
C31   C     C_3   0.595398 0.268005 0.743613 0.205331
C32   C     C_3   0.545258 0.224683 0.783045 -0.114898
H4    H     H_    0.459121 0.273191 0.799364 0.238023
H5    H     H_    0.547231 0.062553 0.747979 0.231962
C33   C     C_1   0.689139 0.205389 0.904592 0.101717
C34   C     C_1   0.630996 0.127268 0.620218 0.077933
C35   C     C_3   0.706656 0.221821 0.771694 0.191955
C36   C     C_3   0.658742 0.177835 0.811159 -0.035652
C37   C     C_3   0.757384 0.107806 0.743698 -0.094528
C38   C     C_3   0.643661 0.154882 0.715769 -0.054168
C39   C     C_3   0.707154 0.064997 0.783166 0.216125
C40   C     C_3   0.594594 0.108628 0.754915 -0.066433
C41   C     C_1   0.671191 0.191448 0.863109 0.103639
C42   C     C_1   0.637140 0.142414 0.663042 0.073406
H6    H     H_    0.844183 0.057156 0.728375 0.231940
C43   C     C_R   0.729743 0.693528 0.358817 0.337243
C44   C     C_R   0.746635 0.680614 0.308287 -0.070916
C45   C     C_R   0.772828 0.643242 0.207724 0.022458
C46   C     C_R   0.868618 0.609302 0.237001 0.407123
C47   C     C_R   0.856561 0.629104 0.287014 0.239879
C48   C     C_R   0.785611 0.614209 0.158950 -0.093726
H7    H     H_    0.870591 0.562811 0.144159 0.207728
C49   C     C_R   0.690338 0.638891 0.130635 0.017484
C50   C     C_R   0.524715 0.794634 0.346920 0.317821
C51   C     C_R   0.539079 0.778513 0.297451 -0.024129
C52   C     C_R   0.649713 0.720438 0.277859 -0.112132
C53   C     C_R   0.443562 0.821250 0.267336 -0.027681
C54   C     C_R   0.456330 0.802240 0.217840 0.442978
C55   C     C_R   0.565691 0.739722 0.197700 0.102388
C56   C     C_R   0.662781 0.702231 0.227723 -0.055066
C57   C     C_R   0.580524 0.707816 0.148883 0.481748
C58   C     C_R   0.619211 0.750507 0.377823 0.023914
H8    H     H_    0.358227 0.867310 0.282107 0.202194
C59   C     C_R   0.186619 0.080102 0.360174 0.218659
C60   C     C_R   0.166667 0.085686 0.309687 -0.002675
C61   C     C_R   0.124920 0.102950 0.209259 0.016925
C62   C     C_R   0.093968 0.037986 0.238081 -0.008265
C63   C     C_R   0.112956 0.030229 0.287638 0.397263
C64   C     C_R   0.092615 0.121635 0.160856 0.408654
H9    H     H_    0.050233 0.996415 0.222678 0.226496
C65   C     C_R   0.109161 0.200303 0.133693 0.011848
C66   C     C_R   0.249809 0.220536 0.351297 0.169818
C67   C     C_R   0.245433 0.214568 0.300912 -0.023143
C68   C     C_R   0.200204 0.150148 0.280137 -0.125712
C69   C     C_R   0.283664 0.273294 0.270786 0.443413
C70   C     C_R   0.269113 0.275935 0.220840 0.257813
C71   C     C_R   0.210528 0.224379 0.200639 -0.033244
C72   C     C_R   0.180609 0.157339 0.229898 -0.052679
C73   C     C_R   0.172464 0.246632 0.152836 -0.109978
C74   C     C_R   0.232526 0.144055 0.380605 -0.029641
H10   H     H_    0.184778 0.306287 0.131302 0.208071
C75   C     C_R   0.613413 0.235854 0.368344 0.238034
C76   C     C_R   0.616499 0.257972 0.318549 0.001708
C77   C     C_R   0.629502 0.296671 0.219128 0.051079
C78   C     C_R   0.603350 0.383792 0.253524 0.454572
C79   C     C_R   0.598119 0.364001 0.302526 -0.022296
C80   C     C_R   0.643387 0.312860 0.170346 0.393156
H11   H     H_    0.581777 0.432160 0.327665 0.198223
C81   C     C_R   0.679432 0.222300 0.137010 -0.006643
C82   C     C_R   0.661038 0.041375 0.347714 -0.123492
C83   C     C_R   0.661821 0.062882 0.298930 -0.022204
C84   C     C_R   0.641083 0.170536 0.283887 0.021907
C85   C     C_R   0.682096 0.977733 0.265122 -0.065829
C86   C     C_R   0.687149 0.995922 0.216096 0.434995
C87   C     C_R   0.675290 0.100063 0.199995 0.017618
C88   C     C_R   0.647652 0.189455 0.234218 -0.116791
C89   C     C_R   0.692704 0.116814 0.151112 0.182232
C90   C     C_R   0.637225 0.126351 0.382276 0.041552
H12   H     H_    0.695061 0.896124 0.276778 0.124021
H13   H     H_    0.674995 0.958555 0.358913 0.132209
O14   O     O_R   0.818720 0.150820 0.967160 -0.471576
O15   O     O_R   0.006410 0.181720 0.970200 -0.484663
C91   C     C_R   0.048345 0.237060 0.949672 0.556057
O16   O     O_R   0.027890 0.334070 0.964920 -0.483759
O17   O     O_R   0.809600 0.521790 0.967960 -0.487461
C92   C     C_R   0.711486 0.563099 0.948430 0.559381
O18   O     O_R   0.635520 0.542770 0.964420 -0.480911
O19   O     O_R   0.665950 0.325030 0.970100 -0.498690
C93   C     C_R   0.721963 0.225207 0.951357 0.561018
O20   O     O_R   0.816620 0.158530 0.074540 -0.437674
O21   O     O_R   0.004460 0.188870 0.069750 -0.421978
C94   C     C_R   0.047555 0.244356 0.088355 0.561535
O22   O     O_R   0.025800 0.341780 0.072300 -0.516806
O23   O     O_R   0.807650 0.528950 0.067500 -0.525232
C95   C     C_R   0.708416 0.575202 0.085821 0.596602
O24   O     O_R   0.633420 0.550490 0.071810 -0.385339
O25   O     O_R   0.664000 0.332180 0.069640 -0.443437
C96   C     C_R   0.719282 0.235515 0.089708 0.603627
Cr4   Cr    Cr6+3 0.909170 0.177380 0.020380 1.193947
Cr5   Cr    Cr6+3 0.912710 0.429210 0.018220 1.114782
Cr6   Cr    Cr6+3 0.657170 0.432570 0.019030 1.185274
O26   O     O_3   0.826350 0.346390 0.019210 -0.318780
F1    F     F_    0.362516 0.130378 0.814660 -0.563590
N1    N     N_R   0.248943 0.317719 0.737300 0.129986
O27   O     O_R   0.241993 0.390684 0.769949 -0.214273
O28   O     O_R   0.288096 0.318810 0.694440 -0.282880
N2    N     N_R   0.006223 0.381249 0.776474 0.124489
O29   O     O_R   0.988980 0.455653 0.743263 -0.282055
O30   O     O_R   0.952546 0.414385 0.817630 -0.317439
N3    N     N_R   0.535092 0.379977 0.721398 0.157965
O31   O     O_R   0.433123 0.454007 0.735971 -0.164737
O32   O     O_R   0.582169 0.405645 0.686272 -0.231857
N4    N     N_R   0.771835 0.953675 0.805690 0.155028
O33   O     O_R   0.870752 0.879444 0.788239 -0.210292
O34   O     O_R   0.738476 0.933781 0.846767 -0.248280
N5    N     N_R   0.768128 0.283174 0.779907 0.154563
O35   O     O_R   0.789054 0.330560 0.743695 -0.221350
O36   O     O_R   0.804252 0.289328 0.822814 -0.299858
F2    F     F_    0.818792 0.649165 0.389977 -0.542612
F3    F     F_    0.974414 0.557733 0.216827 -0.571488
N6    N     N_R   0.956280 0.600472 0.314997 0.183698
O37   O     O_R   0.963998 0.680280 0.338360 -0.177593
O38   O     O_R   0.047345 0.501891 0.308790 -0.201430
F4    F     F_    0.489210 0.736583 0.119879 -0.501644
F5    F     F_    0.361344 0.842495 0.190218 -0.532922
F6    F     F_    0.417627 0.858765 0.364741 -0.608243
F7    F     F_    0.035089 0.071576 0.142044 -0.584966
N7    N     N_R   0.154778 0.015825 0.391371 0.156478
O39   O     O_R   0.206265 0.905259 0.388046 -0.132036
O40   O     O_R   0.084262 0.066696 0.427038 -0.273750
F8    F     F_    0.688803 0.855779 0.735923 -0.597090
F9    F     F_    0.072865 0.972650 0.313526 -0.536385
N8    N     N_R   0.314228 0.331277 0.191075 0.097249
O41   O     O_R   0.377242 0.278321 0.153612 -0.329926
O42   O     O_R   0.303479 0.428758 0.204266 -0.150378
F10   F     F_    0.340064 0.324673 0.288973 -0.535200
N9    N     N_R   0.262257 0.310879 0.372778 0.169758
O43   O     O_R   0.363062 0.297828 0.379572 -0.229891
O44   O     O_R   0.175020 0.396055 0.393614 -0.181195
F11   F     F_    0.632401 0.413786 0.155870 -0.549171
N10   N     N_R   0.586928 0.322551 0.404540 0.074076
O45   O     O_R   0.491470 0.418537 0.402755 -0.221751
O46   O     O_R   0.651883 0.300755 0.442241 -0.281612
F12   F     F_    0.585561 0.487956 0.240306 -0.559970
N11   N     N_R   0.729283 0.026293 0.116077 0.147559
O47   O     O_R   0.831083 0.938358 0.118774 -0.192220
O48   O     O_R   0.668786 0.040251 0.077498 -0.271500
N12   N     N_R   0.500288 0.873890 0.813471 0.092304
O49   O     O_R   0.539546 0.933224 0.834666 -0.191799
O50   O     O_R   0.409955 0.876959 0.831394 -0.260566
F13   F     F_    0.703319 0.910887 0.185052 -0.586394
N13   N     N_R   0.432435 0.735790 0.735090 0.122635
O51   O     O_R   0.366468 0.729089 0.767545 -0.147978
O52   O     O_R   0.397126 0.761008 0.690744 -0.279213
F14   F     F_    0.609264 0.514339 0.785063 -0.515178
N14   N     N_R   0.115731 0.001359 0.784775 0.143272
O53   O     O_R   0.124870 0.926540 0.752619 -0.177688
O54   O     O_R   0.076493 0.000660 0.827658 -0.258779
N15   N     N_R   0.999364 0.198381 0.702784 0.137457
O55   O     O_R   0.977085 0.116991 0.694001 -0.275211
O56   O     O_R   0.957926 0.286032 0.674308 -0.254482

loop_
_geom_bond_atom_site_label_1
_geom_bond_atom_site_label_2
_geom_bond_distance
_ccdc_geom_bond_type
O11   Cr3   2.057929 S    
C87   C89   1.409904 A    
C13   N13   1.456851 S    
N5    O36   1.300271 A    
C9    C92   1.429474 S    
C50   C51   1.380758 A    
O17   Cr5   1.932929 S    
C70   C71   1.403375 A    
C32   C40   1.566424 S    
C60   C63   1.412970 A    
O25   Cr6   1.925801 S    
C87   C88   1.424376 A    
C82   C90   1.397033 A    
C36   C41   1.466064 S    
C5    C58   1.456938 S    
O4    Cr2   1.927155 S    
C61   C62   1.398559 A    
C20   N14   1.457502 S    
O22   Cr5   2.050626 S    
C86   F13   1.356806 S    
C79   H11   1.081037 S    
O18   Cr6   2.044875 S    
C75   C76   1.414919 A    
C51   C53   1.401605 A    
C12   C17   1.461793 S    
O4    C2    1.280097 A    
C31   C38   1.532443 S    
C7    C11   1.551981 S    
C19   C20   1.536880 S    
N2    O29   1.299519 A    
N3    O32   1.300782 A    
C81   C96   1.459129 S    
C55   C57   1.396659 A    
C44   C47   1.417552 A    
C37   C39   1.544403 S    
C11   F14   1.379402 S    
O16   Cr5   2.057639 S    
C47   N6    1.434023 S    
N11   O47   1.301334 A    
C76   C79   1.402865 A    
C21   C29   1.205906 T    
C39   N4    1.457844 S    
C7    H2    1.107563 S    
C50   C58   1.404357 A    
C19   C23   1.534658 S    
C83   C84   1.404705 A    
C78   C79   1.390431 A    
C77   C78   1.409001 A    
C83   C85   1.394111 A    
C1    C34   1.440429 S    
C2    C10   1.432632 S    
O20   Cr4   2.047913 S    
C59   C60   1.416282 A    
N10   O46   1.301149 A    
O6    C3    1.274603 A    
C34   C42   1.209173 T    
O12   C6    1.294485 A    
C7    C8    1.563283 S    
C13   C15   1.530332 S    
C48   H7    1.084106 S    
C32   C36   1.551461 S    
C46   F3    1.360316 S    
C24   C29   1.468356 S    
C35   C36   1.534454 S    
C16   F8    1.378214 S    
C69   F10   1.356248 S    
C80   C81   1.405551 A    
C54   F5    1.358057 S    
N9    O44   1.300833 A    
C59   C74   1.406660 A    
Cr3   O13   1.979988 S    
C76   C84   1.420545 A    
C23   C25   1.529137 S    
C35   N5    1.454051 S    
C22   C30   1.197907 T    
C85   C86   1.386026 A    
N8    O42   1.301335 A    
C31   C32   1.547113 S    
C2    O5    1.266091 A    
N2    O30   1.300100 A    
C26   C28   1.554526 S    
C37   H6    1.107037 S    
O24   Cr6   2.056267 S    
C38   C40   1.556628 S    
O1    Cr1   2.052897 S    
C5    O11   1.264064 A    
C32   H4    1.108726 S    
O10   Cr2   1.936973 S    
Cr1   O13   1.984630 S    
O1    C3    1.264657 A    
C53   C54   1.384340 A    
N7    O40   1.301124 A    
C51   C52   1.406574 A    
C53   H8    1.081980 S    
N7    O39   1.301017 A    
C23   N2    1.451148 S    
C55   C56   1.420660 A    
C46   C47   1.399481 A    
C36   C39   1.531346 S    
C25   C27   1.536482 S    
C9    C17   1.202437 T    
C37   C38   1.551198 S    
C54   C55   1.402206 A    
C59   N7    1.437338 S    
Cr4   O26   1.984379 S    
C31   C35   1.528034 S    
C1    O3    1.273835 A    
C45   C46   1.400735 A    
C71   C73   1.397406 A    
C39   C40   1.547459 S    
C14   C16   1.543715 S    
O15   Cr4   1.932377 S    
C77   C88   1.410911 A    
N13   O52   1.300240 A    
C57   F4    1.360020 S    
C11   C12   1.538830 S    
C68   C72   1.408177 A    
C43   C58   1.399077 A    
C13   C14   1.541088 S    
C26   C30   1.455145 S    
O7    Cr1   2.053181 S    
C63   F9    1.356072 S    
C71   C72   1.418970 A    
C67   C69   1.416959 A    
C15   C16   1.539148 S    
O15   C91   1.277065 A    
C45   C56   1.405093 A    
C15   N12   1.452818 S    
C19   N15   1.455162 S    
C8    H1    1.108636 S    
C49   C95   1.452337 S    
C20   C28   1.552485 S    
N15   O55   1.298485 A    
C65   C94   1.462194 S    
C50   F6    1.356965 S    
N9    O43   1.300063 A    
N4    O34   1.299468 A    
N4    O33   1.300512 A    
C64   C65   1.411471 A    
O23   Cr5   1.939801 S    
C64   F7    1.361144 S    
O23   C95   1.269970 A    
C8    C12   1.547327 S    
O14   Cr4   2.054311 S    
O19   Cr6   1.937795 S    
C19   C26   1.531032 S    
C94   O22   1.281370 A    
O21   Cr4   1.935400 S    
C14   C18   1.465916 S    
C80   F11   1.360291 S    
C66   C67   1.396749 A    
N8    O41   1.301446 A    
C82   H13   1.086391 S    
H3    C28   1.106526 S    
C86   C87   1.410932 A    
C70   N8    1.439040 S    
C61   C64   1.392521 A    
N13   O51   1.300096 A    
N1    O28   1.300232 A    
C27   C28   1.563661 S    
C12   C15   1.527359 S    
O2    Cr1   1.935925 S    
C62   C63   1.388266 A    
C73   H10   1.082793 S    
C3    C22   1.420617 S    
H5    C40   1.109252 S    
O9    Cr2   2.043509 S    
C25   C26   1.535539 S    
Cr2   O13   1.988728 S    
O25   C96   1.271090 A    
C62   H9    1.083679 S    
O6    Cr3   1.939867 S    
C6    C74   1.481020 S    
C84   C88   1.408499 A    
O8    C4    1.278809 A    
O14   C93   1.271711 A    
O19   C93   1.279978 A    
C21   C91   1.434999 S    
C95   O24   1.275588 A    
C38   C42   1.472930 S    
N11   O48   1.301007 A    
C45   C48   1.387223 A    
C75   C90   1.406593 A    
N6    O37   1.301330 A    
C81   C89   1.404178 A    
N15   O56   1.300797 A    
O2    C1    1.280062 A    
N12   O49   1.298165 A    
C11   C13   1.530767 S    
C75   N10   1.438036 S    
O5    Cr3   2.048944 S    
C82   C83   1.381974 A    
C7    C14   1.545545 S    
C85   H12   1.079279 S    
Cr5   O26   1.979983 S    
C31   N3    1.456797 S    
C92   O18   1.268823 A    
C33   C93   1.432516 S    
O7    C6    1.256611 A    
C25   N1    1.457136 S    
Cr6   O26   1.988562 S    
C44   C52   1.422866 A    
C89   N11   1.435503 S    
C67   C68   1.408887 A    
C27   F1    1.378866 S    
C35   C37   1.541915 S    
C66   N9    1.437413 S    
O21   C94   1.263388 A    
C77   C80   1.394411 A    
C60   C68   1.426413 A    
O8    Cr1   1.932980 S    
C69   C70   1.392152 A    
C24   C27   1.546503 S    
C8    C16   1.546466 S    
N12   O50   1.300352 A    
C61   C72   1.406567 A    
N14   O53   1.300114 A    
O3    Cr2   2.054914 S    
C20   C24   1.549842 S    
C78   F12   1.358486 S    
O20   C96   1.275631 A    
C4    O9    1.268653 A    
C10   C18   1.204804 T    
C49   C57   1.396440 A    
C43   C44   1.410000 A    
C23   C24   1.546624 S    
N5    O35   1.296391 A    
O10   C5    1.278413 A    
C33   C41   1.204378 T    
C48   C49   1.401506 A    
C4    C90   1.451413 S    
C66   C74   1.425288 A    
C91   O16   1.267157 A    
N3    O31   1.300668 A    
C52   C56   1.400716 A    
C65   C73   1.390887 A    
N10   O45   1.301180 A    
N1    O27   1.300169 A    
C43   F2    1.358265 S    
N6    O38   1.300518 A    
O17   C92   1.279043 A    
N14   O54   1.300151 A    
O12   Cr3   1.931137 S    
