data_mof_unit_25546.cif
_audit_creation_date              2013-03-05T15:46:45-0500
_audit_creation_method            fapswitch 2.2
_symmetry_space_group_name_H-M    P1
_symmetry_Int_Tables_number       1
_space_group_crystal_system       triclinic
_cell_length_a                    10.185537
_cell_length_b                    10.755586
_cell_length_c                    12.301699
_cell_angle_alpha                 90.469681
_cell_angle_beta                  109.386563
_cell_angle_gamma                 96.222272
_cell_volume                      1262.36438424

loop_
_atom_site_label
_atom_site_type_symbol
_atom_site_description
_atom_site_fract_x
_atom_site_fract_y
_atom_site_fract_z
_atom_type_partial_charge
O1    O     O_R   0.936910 0.692950 0.509080 -0.604863
O2    O     O_R   0.138320 0.658600 0.480130 -0.602232
C1    C     C_R   0.054851 0.733131 0.497232 0.944027
O3    O     O_R   0.002900 0.525670 0.675280 -0.610303
O4    O     O_R   0.204310 0.491320 0.646330 -0.608145
C2    C     C_R   0.132248 0.504518 0.714031 0.854199
Zn1   Zn    Zn3+2 0.865520 0.522940 0.519330 0.946570
Zn2   Zn    Zn3+2 0.134480 0.477060 0.480670 0.935470
O5    O     O_R   0.861680 0.341400 0.519870 -0.595442
O6    O     O_R   0.063090 0.307050 0.490920 -0.618760
O7    O     O_R   0.795690 0.508680 0.353670 -0.608017
O8    O     O_R   0.997100 0.474330 0.324720 -0.609336
C3    C     C_R   0.950093 0.267143 0.511378 0.878590
C4    C     C_R   0.865253 0.486892 0.285959 0.874237
C5    C     C_R   0.731874 0.331185 0.990327 -0.184951
H1    H     H_    0.930663 0.347988 0.126486 0.159652
H2    H     H_    0.766460 0.268607 0.938746 0.152305
C6    C     C_R   0.785561 0.459485 0.164909 -0.064157
C7    C     C_R   0.151109 0.562202 0.913687 -0.188256
C8    C     C_R   0.228642 0.575686 0.030405 -0.143182
C9    C     C_R   0.360199 0.534026 0.070517 -0.188881
C10   C     C_R   0.412850 0.471882 0.994279 0.085515
C11   C     C_R   0.323188 0.438889 0.881438 0.064117
C12   C     C_R   0.551914 0.442621 0.026009 0.064365
C13   C     C_R   0.592599 0.360831 0.954533 0.110918
C14   C     C_R   0.492632 0.310710 0.850199 -0.035942
C15   C     C_R   0.359547 0.349841 0.814622 -0.241801
C16   C     C_R   0.652908 0.497499 0.125583 -0.245967
C17   C     C_R   0.827193 0.378514 0.096318 -0.198925
C18   C     C_R   0.200253 0.497758 0.838059 -0.107969
H3    H     H_    0.054579 0.604732 0.882224 0.159718
H4    H     H_    0.417036 0.548696 0.161760 0.134284
H5    H     H_    0.283839 0.308630 0.734700 0.172709
H6    H     H_    0.140110 0.113757 0.549907 0.189790
C19   C     C_2   0.094570 0.866963 0.509473 -0.374621
C20   C     C_2   0.024955 0.935749 0.557378 -0.135809
C21   C     C_2   0.929100 0.135189 0.532245 -0.182312
C22   C     C_2   0.038920 0.069620 0.550185 -0.215901
H7    H     H_    0.174414 0.909276 0.476075 0.160869
H8    H     H_    0.436178 0.584378 0.572418 0.171214
N1    N     N_2   0.313640 0.446500 0.454900 -0.193442
C23   C     C_2   0.433077 0.511126 0.510127 -0.123605
H9    H     H_    0.684993 0.622602 0.603122 0.165876
N2    N     N_2   0.686360 0.553430 0.545150 -0.189322
C24   C     C_2   0.567144 0.488045 0.490655 -0.124037
H10   H     H_    0.314856 0.377829 0.396419 0.164271
H11   H     H_    0.946236 0.892837 0.591744 0.191394
C25   C     C_1   0.792260 0.078989 0.530246 0.189980
N3    N     N_1   0.683015 0.034122 0.528525 -0.197547
H12   H     H_    0.564190 0.414316 0.428841 0.167377
C26   C     C_1   0.524411 0.222556 0.775744 0.148686
N4    N     N_1   0.549680 0.152111 0.715962 -0.194055
H13   H     H_    0.629429 0.568725 0.176412 0.152951
H14   H     H_    0.189620 0.623511 0.089110 0.148699

loop_
_geom_bond_atom_site_label_1
_geom_bond_atom_site_label_2
_geom_bond_distance
_ccdc_geom_bond_type
O4    Zn2   1.921301 S    
C19   H7    1.087179 S    
C16   H13   1.079896 S    
C12   C13   1.423708 A    
C5    H2    1.082843 S    
C21   C22   1.344223 D    
C11   C15   1.412841 A    
N1    C23   1.298044 D    
C4    C6    1.449737 S    
C3    C21   1.449996 S    
C19   C20   1.334701 D    
C1    C19   1.445027 S    
Zn2   O8    1.961461 S    
C7    H3    1.083292 S    
C8    C9    1.390910 A    
H8    C23   1.085153 S    
O2    C1    1.293592 A    
H1    C17   1.083318 S    
C26   N4    1.157574 T    
C6    C17   1.398490 A    
O1    Zn1   1.914336 S    
Zn1   N2    2.012783 S    
C15   H5    1.083141 S    
C21   C25   1.450170 S    
Zn1   O7    1.921301 S    
C14   C15   1.392490 A    
N1    H10   1.030741 S    
C24   H12   1.085240 S    
O3    Zn1   1.961461 S    
C9    C10   1.419593 A    
C25   N3    1.157269 T    
C2    C18   1.457445 S    
O8    C4    1.290105 A    
C5    C17   1.394049 A    
H9    N2    1.030743 S    
O4    C2    1.295754 A    
C9    H4    1.079737 S    
C10   C12   1.410427 A    
C5    C13   1.411957 A    
C14   C26   1.446294 S    
C20   C22   1.437807 S    
C11   C18   1.409745 A    
C12   C16   1.388177 A    
C6    C16   1.384146 A    
Zn2   N1    2.012696 S    
C20   H11   1.087482 S    
C8    H14   1.082988 S    
O3    C2    1.290176 A    
O7    C4    1.294355 A    
Zn1   O5    1.948829 S    
O5    C3    1.294897 A    
C10   C11   1.402476 A    
C13   C14   1.405982 A    
H6    C22   1.088108 S    
C7    C18   1.403686 A    
C23   C24   1.507782 S    
Zn2   O6    1.914337 S    
O2    Zn2   1.948827 S    
N2    C24   1.298147 D    
C7    C8    1.387546 A    
O1    C1    1.286796 A    
O6    C3    1.288101 A    
