data_mof_unit_15433.cif
_audit_creation_date              2012-12-10T18:35:15-0500
_audit_creation_method            fapswitch 2.2
_symmetry_space_group_name_H-M    P1
_symmetry_Int_Tables_number       1
_space_group_crystal_system       triclinic
_cell_length_a                    14.953674
_cell_length_b                    15.115228
_cell_length_c                    16.655067
_cell_angle_alpha                 92.80952
_cell_angle_beta                  98.840896
_cell_angle_gamma                 97.152092
_cell_volume                      3681.91761896

loop_
_atom_site_label
_atom_site_type_symbol
_atom_type_description
_atom_site_fract_x
_atom_site_fract_y
_atom_site_fract_z
_atom_type_partial_charge
C1    C     C_R   0.557046 0.662868 0.508063 0.860177
C2    C     C_R   0.454564 0.180512 0.423581 0.099960
C3    C     C_R   0.531661 0.885436 0.440545 0.030718
C4    C     C_R   0.419276 0.086936 0.418156 0.034970
C5    C     C_R   0.593208 0.894032 0.383339 0.062310
C6    C     C_R   0.336597 0.059478 0.449255 0.109926
C7    C     C_R   0.460649 0.938796 0.434940 0.021436
C8    C     C_R   0.469701 0.018343 0.395986 0.026003
C9    C     C_R   0.523347 0.021979 0.333783 -0.205133
C10   C     C_R   0.376136 0.909831 0.458034 -0.301136
C11   C     C_R   0.586831 0.961467 0.326934 0.144838
C12   C     C_R   0.443409 0.336612 0.483439 0.853676
C13   C     C_R   0.310996 0.967898 0.460833 0.170930
C14   C     C_R   0.173451 0.650116 0.393612 -0.328061
C15   C     C_R   0.830466 0.361454 0.618712 -0.325674
C16   C     C_R   0.510965 0.493737 0.348724 0.846019
C17   C     C_R   0.487491 0.502678 0.651288 0.875038
C18   C     C_R   0.258117 0.620556 0.406617 0.015341
C19   C     C_R   0.743159 0.383153 0.597306 0.013808
C20   C     C_R   0.206225 0.509980 0.491382 -0.081919
C21   C     C_R   0.795482 0.495532 0.514479 -0.076580
C22   C     C_R   0.118968 0.537241 0.481481 -0.001035
C23   C     C_R   0.590535 0.751773 0.485924 -0.042328
C24   C     C_R   0.885799 0.477197 0.533917 -0.000116
C25   C     C_R   0.103375 0.608532 0.430867 0.184474
C26   C     C_R   0.902133 0.407882 0.586648 0.186479
C27   C     C_R   0.047362 0.495970 0.519178 0.083557
C28   C     C_R   0.959173 0.523558 0.501694 0.080558
C29   C     C_R   0.947255 0.596342 0.452609 -0.254023
C30   C     C_R   0.061053 0.428178 0.573688 -0.249455
C31   C     C_R   0.018350 0.638024 0.418146 -0.211824
C32   C     C_R   0.989594 0.385374 0.606916 -0.216000
C33   C     C_R   0.508982 0.462555 0.263462 -0.112230
C34   C     C_R   0.406900 0.241677 0.462536 -0.097198
C35   C     C_R   0.473024 0.492038 0.736181 -0.097552
C36   C     C_R   0.425869 0.416010 0.223804 -0.252949
C37   C     C_R   0.529606 0.439594 0.781678 -0.261165
C38   C     C_R   0.418606 0.375242 0.146886 -0.217416
C39   C     C_R   0.514059 0.415772 0.857474 -0.199171
C40   C     C_R   0.493403 0.382303 0.106043 0.106926
C41   C     C_R   0.439122 0.440772 0.889858 0.116403
C42   C     C_R   0.579561 0.427060 0.144212 0.186085
C43   C     C_R   0.379614 0.493982 0.845579 0.154257
C44   C     C_R   0.588461 0.465869 0.225270 0.130262
C45   C     C_R   0.655639 0.831550 0.381480 -0.227114
C46   C     C_R   0.399200 0.524236 0.769521 0.135783
C47   C     C_2   0.474177 0.364088 0.017682 -0.228532
C48   C     C_2   0.431799 0.424113 0.975340 -0.219152
C49   C     C_3   0.345229 0.593438 0.727046 -0.393732
C50   C     C_3   0.406260 0.681591 0.723732 -0.855519
C51   C     C_3   0.681103 0.511054 0.269316 -0.406902
C52   C     C_3   0.739038 0.442505 0.307530 -0.844741
C53   C     C_3   0.658581 0.438392 0.095759 -0.426803
C54   C     C_3   0.662442 0.526007 0.053421 -0.863382
C55   C     C_3   0.293823 0.514278 0.878375 -0.441606
C56   C     C_R   0.284896 0.124120 0.473307 -0.220537
C57   C     C_3   0.308176 0.605423 0.926389 -0.867147
C58   C     C_3   0.647818 0.967906 0.261288 -0.398950
C59   C     C_3   0.637396 0.044436 0.205145 -0.899056
C60   C     C_3   0.219665 0.931109 0.483521 -0.415820
C61   C     C_3   0.142674 0.928150 0.411287 -0.874064
C62   C     C_3   0.544808 0.216158 0.395986 -0.380304
C63   C     C_3   0.627989 0.198258 0.455695 -0.794649
C64   C     C_3   0.508014 0.832651 0.581775 -0.453927
C65   C     C_3   0.584585 0.831453 0.653950 -0.882379
C66   C     C_R   0.651137 0.758861 0.429631 -0.240250
C67   C     C_R   0.320356 0.213359 0.481195 -0.239695
C68   C     C_R   0.541901 0.822480 0.500365 0.126542
H1    H     H_    0.365687 0.409581 0.253074 0.177875
H2    H     H_    0.002776 0.333388 0.648075 0.140690
H3    H     H_    0.686846 0.348585 0.622027 0.128735
H4    H     H_    0.313858 0.653176 0.379831 0.139012
H5    H     H_    0.163065 0.705217 0.355483 0.147589
H6    H     H_    0.841819 0.308925 0.659629 0.141885
H7    H     H_    0.883891 0.623720 0.439973 0.137982
H8    H     H_    0.126476 0.406725 0.592891 0.133282
H9    H     H_    0.461987 0.672413 0.688663 0.263764
H10   H     H_    0.364869 0.730663 0.694110 0.241713
H11   H     H_    0.436864 0.709169 0.786338 0.254253
H12   H     H_    0.586527 0.415505 0.758271 0.171545
H13   H     H_    0.309210 0.567618 0.665821 0.223474
H14   H     H_    0.288793 0.610716 0.757513 0.210070
H15   H     H_    0.706192 0.407643 0.354620 0.280606
H16   H     H_    0.749016 0.390997 0.261252 0.239711
H17   H     H_    0.807175 0.476900 0.336191 0.246116
H18   H     H_    0.719277 0.549492 0.227625 0.204851
H19   H     H_    0.673947 0.562672 0.316662 0.198071
H20   H     H_    0.401767 0.472461 0.009362 0.180273
H21   H     H_    0.507251 0.313830 0.989375 0.145184
H22   H     H_    0.600060 0.526848 0.008182 0.277438
H23   H     H_    0.775358 0.545621 0.474339 0.133748
H24   H     H_    0.668911 0.584336 0.097967 0.246258
H25   H     H_    0.722279 0.533127 0.021062 0.248642
H26   H     H_    0.725109 0.435825 0.134504 0.212658
H27   H     H_    0.652660 0.382011 0.049190 0.193290
H28   H     H_    0.243934 0.617074 0.948411 0.249861
H29   H     H_    0.362879 0.608102 0.979889 0.252076
H30   H     H_    0.327442 0.660629 0.888432 0.264014
H31   H     H_    0.234639 0.509576 0.828502 0.194077
H32   H     H_    0.271226 0.461986 0.918185 0.204239
H33   H     H_    0.567836 0.036076 0.168597 0.256595
H34   H     H_    0.225300 0.456699 0.528059 0.123098
H35   H     H_    0.651388 0.109925 0.241124 0.261222
H36   H     H_    0.687373 0.043794 0.162289 0.251600
H37   H     H_    0.720257 0.976529 0.291581 0.204696
H38   H     H_    0.634159 0.904189 0.222536 0.203352
H39   H     H_    0.135979 0.996052 0.390646 0.259391
H40   H     H_    0.156150 0.884854 0.359830 0.257199
H41   H     H_    0.077104 0.899946 0.429366 0.247471
H42   H     H_    0.220653 0.861734 0.502735 0.208691
H43   H     H_    0.204874 0.970592 0.536712 0.194662
H44   H     H_    0.622385 0.221842 0.518607 0.257056
H45   H     H_    0.563124 0.378937 0.891047 0.149377
H46   H     H_    0.634476 0.126027 0.454928 0.255198
H47   H     H_    0.690970 0.234312 0.438692 0.239035
H48   H     H_    0.549431 0.193103 0.333606 0.177293
H49   H     H_    0.550030 0.288479 0.387269 0.215056
H50   H     H_    0.609484 0.765300 0.655867 0.250531
H51   H     H_    0.642413 0.883895 0.649760 0.269299
H52   H     H_    0.558560 0.844975 0.711681 0.254242
H53   H     H_    0.481992 0.897525 0.589777 0.228687
H54   H     H_    0.451610 0.778667 0.585058 0.218163
H55   H     H_    0.281348 0.260380 0.506684 0.162381
H56   H     H_    0.352498 0.342489 0.116755 0.158706
H57   H     H_    0.690566 0.705211 0.418913 0.145196
H58   H     H_    0.703081 0.833687 0.338537 0.136719
H59   H     H_    0.219885 0.106646 0.493079 0.156831
H60   H     H_    0.508778 0.066031 0.286316 0.158991
H61   H     H_    0.360216 0.841055 0.472251 0.154973
H62   H     H_    0.006396 0.693355 0.380615 0.143011
N1    N     N_R   0.271750 0.551950 0.454510 -0.097221
N2    N     N_R   0.728250 0.448050 0.545490 -0.094790
O1    O     O_R   0.615140 0.606020 0.522930 -0.609844
O2    O     O_R   0.384860 0.393980 0.477070 -0.612093
O3    O     O_R   0.468580 0.639400 0.493740 -0.612935
O4    O     O_R   0.531420 0.360600 0.506260 -0.607646
O5    O     O_R   0.581950 0.481350 0.400520 -0.615510
O6    O     O_R   0.418050 0.518650 0.599480 -0.611786
O7    O     O_R   0.435380 0.514730 0.371330 -0.610323
O8    O     O_R   0.564620 0.485270 0.628670 -0.609061
Zn1   Zn    Zn3+2 0.597860 0.477710 0.519490 0.923327
Zn2   Zn    Zn3+2 0.402140 0.522290 0.480510 0.924925

loop_
_geom_bond_atom_site_label_1
_geom_bond_atom_site_label_2
_ccdc_geom_bond_type
C25   C31   A    
C40   C47   S    
C30   C32   A    
C26   C32   A    
C53   H27   S    
C47   H21   S    
C14   C18   A    
C19   H3    S    
C3    C68   A    
C4    C8    A    
C61   H41   S    
C50   H11   S    
C54   H24   S    
C7    C8    A    
C39   C41   A    
C13   C60   S    
C53   C54   S    
C15   C19   A    
C46   C49   S    
C62   C63   S    
C59   H36   S    
C64   C68   S    
C23   C66   A    
C28   C29   A    
C35   C37   A    
C24   C26   A    
C54   H22   S    
C31   H62   S    
C3    C7    A    
C42   C53   S    
O7    Zn2   S    
C49   H14   S    
C20   H34   S    
C64   H53   S    
C19   N2    A    
C33   C36   A    
C56   H59   S    
C49   H13   S    
C63   H44   S    
C52   H16   S    
C61   H40   S    
C54   H25   S    
C63   H46   S    
C65   H52   S    
O3    Zn2   S    
C16   O5    A    
C8    C9    A    
C39   H45   S    
C22   C25   A    
C55   H32   S    
C65   H50   S    
C48   H20   S    
C17   O6    A    
C11   C58   S    
C63   H47   S    
C2    C34   A    
C40   C42   A    
C12   O2    A    
C27   C30   A    
C41   C43   A    
C18   N1    A    
C42   C44   A    
C1    O1    A    
C50   H10   S    
C51   H18   S    
C18   H4    S    
C37   H12   S    
C9    H60   S    
C51   C52   S    
C59   H33   S    
C14   H5    S    
O8    Zn1   S    
C4    C6    A    
O6    Zn2   S    
C51   H19   S    
C15   C26   A    
C32   H2    S    
C58   C59   S    
C5    C45   A    
C57   H28   S    
C60   C61   S    
C58   H38   S    
C23   C68   A    
C52   H15   S    
C2    C4    A    
C21   N2    A    
C62   H48   S    
O4    Zn1   S    
C16   C33   S    
O2    Zn2   S    
C30   H8    S    
C47   C48   D    
C45   H58   S    
C57   H29   S    
C65   H51   S    
C9    C11   A    
N1    Zn2   S    
C44   C51   S    
C43   C55   S    
C20   C22   A    
C1    C23   S    
C22   C27   A    
C62   H49   S    
C16   O7    A    
C20   N1    A    
C12   C34   S    
C50   H9    S    
C45   C66   A    
C36   H1    S    
C21   H23   S    
N2    Zn1   S    
O5    Zn1   S    
C52   H17   S    
C53   H26   S    
C33   C44   A    
C24   C28   A    
C6    C56   A    
C3    C5    A    
C10   C13   A    
C67   H55   S    
C34   C67   A    
C5    C11   A    
C29   H7    S    
C56   C67   A    
O1    Zn1   S    
C66   H57   S    
C58   H37   S    
C59   H35   S    
C7    C10   A    
C55   C57   S    
C10   H61   S    
C37   C39   A    
C60   H43   S    
C64   C65   S    
C6    C13   A    
C38   C40   A    
C64   H54   S    
C57   H30   S    
C36   C38   A    
C41   C48   S    
C17   O8    A    
C14   C25   A    
C61   H39   S    
C43   C46   A    
C60   H42   S    
C15   H6    S    
C29   C31   A    
C49   C50   S    
C12   O4    A    
C21   C24   A    
C55   H31   S    
C27   C28   A    
C17   C35   S    
C1    O3    A    
C35   C46   A    
C38   H56   S    
C2    C62   S    
