data_mof_unit_30729.cif
_audit_creation_date              2012-12-10T20:32:00-0500
_audit_creation_method            fapswitch 2.2
_symmetry_space_group_name_H-M    P1
_symmetry_Int_Tables_number       1
_space_group_crystal_system       triclinic
_cell_length_a                    9.947355
_cell_length_b                    10.655226
_cell_length_c                    15.437074
_cell_angle_alpha                 90.885567
_cell_angle_beta                  67.236355
_cell_angle_gamma                 90.280414
_cell_volume                      1508.56935638

loop_
_atom_site_label
_atom_site_type_symbol
_atom_type_description
_atom_site_fract_x
_atom_site_fract_y
_atom_site_fract_z
_atom_type_partial_charge
Br1   Br    Br    0.126910 0.775571 0.109507 -0.262631
Br2   Br    Br    0.320847 0.865506 0.725289 -0.448799
Br3   Br    Br    0.931341 0.388554 0.205719 -0.415638
Br4   Br    Br    0.829404 0.201139 0.902270 -0.365353
Br5   Br    Br    0.972011 0.665059 0.979997 -0.369625
Br6   Br    Br    0.433333 0.769282 0.137123 -0.335284
Br7   Br    Br    0.514548 0.200184 0.875221 -0.322930
C1    C     C_R   0.500866 0.739518 0.498898 0.983382
C2    C     C_R   0.689371 0.401070 0.038562 -0.008694
C3    C     C_R   0.573863 0.485115 0.086383 0.103223
C4    C     C_R   0.407250 0.500762 0.676281 0.925318
C5    C     C_R   0.797483 0.381371 0.074513 -0.115198
C6    C     C_R   0.778797 0.425785 0.164029 0.293579
C7    C     C_R   0.549785 0.518657 0.178818 -0.145980
C8    C     C_R   0.375425 0.937477 0.532432 -0.138204
C9    C     C_R   0.505007 0.871366 0.490360 -0.172654
C10   C     C_R   0.632689 0.932128 0.430761 0.350147
C11   C     C_R   0.634722 0.064669 0.431274 0.352921
C12   C     C_R   0.380638 0.488467 0.923923 0.045644
C13   C     C_R   0.505190 0.128845 0.485423 -0.238059
C14   C     C_R   0.375145 0.064768 0.528326 -0.076741
C15   C     C_3   0.257880 0.078391 0.625140 0.811334
C16   C     C_R   0.501887 0.260676 0.496287 0.982923
C17   C     C_3   0.258799 0.934628 0.630030 0.463052
C18   C     C_R   0.887692 0.560646 0.569730 0.069961
C19   C     C_R   0.968601 0.442186 0.430883 -0.022314
C20   C     C_R   0.111004 0.439861 0.430810 0.503260
C21   C     C_R   0.031041 0.562927 0.568763 -0.010195
C22   C     C_3   0.980298 0.536481 0.670983 0.089382
C23   C     C_R   0.263031 0.573209 0.969131 -0.050143
C24   C     C_3   0.827864 0.524381 0.671219 0.714170
C25   C     C_R   0.592042 0.498208 0.323265 0.900543
C26   C     C_R   0.343498 0.508707 0.778894 -0.084749
C27   C     C_R   0.647145 0.486047 0.220064 -0.126648
C28   C     C_R   0.166181 0.597605 0.923069 0.350471
C29   C     C_R   0.209943 0.567337 0.827717 -0.194791
C30   C     C_R   0.421428 0.462648 0.828234 -0.077915
C31   C     C_R   0.471226 0.447996 0.969282 -0.042417
C32   C     C_R   0.474037 0.519974 0.045927 -0.054619
C33   C     C_R   0.379734 0.625748 0.077854 0.204874
C34   C     C_R   0.262685 0.641439 0.048963 0.290784
C35   C     C_R   0.565362 0.342169 0.936768 0.195974
C36   C     C_R   0.684954 0.329197 0.962681 0.204907
H1    H     H_    0.893711 0.326315 0.035886 0.216377
H2    H     H_    0.055042 0.124434 0.686844 0.402911
H3    H     H_    0.146909 0.788905 0.624379 0.345350
H4    H     H_    0.281799 0.336331 0.387016 0.381768
H5    H     H_    0.003341 0.416832 0.756626 0.352466
H6    H     H_    0.764551 0.376085 0.746816 0.355037
H7    H     H_    0.765470 0.696372 0.714768 0.339691
H8    H     H_    0.945807 0.389651 0.378168 0.216812
H9    H     H_    0.446190 0.559930 0.222447 0.209472
H10   H     H_    0.995647 0.617727 0.712193 0.099430
H11   H     H_    0.143462 0.596753 0.790732 0.182568
H12   H     H_    0.521911 0.415492 0.789020 0.212952
H13   H     H_    0.807671 0.909149 0.317735 0.374088
H14   H     H_    0.845831 0.081472 0.377271 0.368167
H15   H     H_    0.403008 0.119877 0.679105 0.336211
N1    N     N_R   0.856900 0.500860 0.500610 -0.125963
N2    N     N_R   0.142540 0.500820 0.500610 -0.113865
O1    O     O_R   0.385310 0.683210 0.499990 -0.632382
O2    O     O_3   0.759657 0.132730 0.383710 -0.716286
O3    O     O_3   0.301038 0.143426 0.690533 -0.725875
O4    O     O_3   0.129755 0.128353 0.621859 -0.632089
O5    O     O_3   0.129481 0.880635 0.630921 -0.703006
O6    O     O_3   0.213076 0.369475 0.361251 -0.734173
O7    O     O_3   0.036160 0.422662 0.687419 -0.653979
O8    O     O_3   0.775307 0.400718 0.682809 -0.682170
O9    O     O_3   0.726002 0.610316 0.731413 -0.761091
O10   O     O_R   0.614650 0.683240 0.500000 -0.560512
O11   O     O_R   0.319830 0.499970 0.632240 -0.575975
O12   O     O_R   0.549170 0.500000 0.632250 -0.565678
O13   O     O_R   0.385350 0.316760 0.500000 -0.605939
O14   O     O_R   0.614690 0.316790 0.500010 -0.558645
O15   O     O_R   0.450830 0.500000 0.367750 -0.634849
O16   O     O_R   0.680170 0.500030 0.367760 -0.569236
O17   O     O_3   0.750739 0.860786 0.374462 -0.716243
Zn1   Zn    Zn3+2 0.346870 0.499980 0.499990 1.032963
Zn2   Zn    Zn3+2 0.653130 0.500020 0.500010 1.085420

loop_
_geom_bond_atom_site_label_1
_geom_bond_atom_site_label_2
_ccdc_geom_bond_type
C18   C24   S    
H6    O8    S    
C28   C29   A    
O16   Zn2   S    
C25   O15   A    
H14   O2    S    
C18   C21   A    
N2    Zn1   S    
C19   C20   A    
C23   C28   A    
C21   C22   S    
H7    O9    S    
C31   C35   A    
O12   Zn2   S    
C20   N2    A    
C31   C32   A    
C4    O11   A    
C8    C9    A    
C26   C29   A    
Br7   C35   S    
C12   C30   A    
C15   O3    S    
C22   O7    S    
C7    H9    S    
C9    C10   A    
O13   Zn1   S    
C23   C34   A    
C19   N1    A    
H4    O6    S    
C11   C13   A    
Br3   C6    S    
C1    O1    A    
C1    C9    S    
C14   C15   S    
C16   O13   A    
O15   Zn1   S    
C21   N2    A    
C24   O8    S    
C2    C36   A    
C4    C26   S    
H3    O5    S    
C3    C7    A    
N1    Zn2   S    
C32   C33   A    
C4    O12   A    
C11   O2    S    
C26   C30   A    
H13   O17   S    
C3    C32   A    
C25   C27   S    
C25   O16   A    
C12   C31   A    
C13   C16   S    
C8    C14   A    
O1    Zn1   S    
C10   O17   S    
C10   C11   A    
C5    C6    A    
C17   O5    S    
Br1   C34   S    
C8    C17   S    
O14   Zn2   S    
Br2   C17   S    
Br6   C33   S    
C35   C36   A    
C16   O14   A    
C2    C3    A    
H15   O3    S    
C33   C34   A    
O10   Zn2   S    
C7    C27   A    
Br4   C36   S    
H2    O4    S    
C1    O10   A    
C6    C27   A    
C22   C24   S    
C20   O6    S    
C19   H8    S    
C22   H10   S    
Br5   C28   S    
C15   C17   S    
H5    O7    S    
C2    C5    A    
C29   H11   S    
C15   O4    S    
C30   H12   S    
C24   O9    S    
C13   C14   A    
C5    H1    S    
C18   N1    A    
C12   C23   A    
O11   Zn1   S    
