data_mof_unit_15208.cif
_audit_creation_date              2012-12-11T19:34:01-0500
_audit_creation_method            fapswitch 2.2
_symmetry_space_group_name_H-M    P1
_symmetry_Int_Tables_number       1
_space_group_crystal_system       triclinic
_cell_length_a                    8.547767
_cell_length_b                    15.114443
_cell_length_c                    18.964685
_cell_angle_alpha                 99.155318
_cell_angle_beta                  93.119261
_cell_angle_gamma                 98.589367
_cell_volume                      2384.11158667

loop_
_atom_site_label
_atom_site_type_symbol
_atom_type_description
_atom_site_fract_x
_atom_site_fract_y
_atom_site_fract_z
_atom_type_partial_charge
Ba1   Ba    Ba6+2 0.852320 0.543020 0.467270 1.725775
Ba2   Ba    Ba6+2 0.337520 0.457050 0.532740 1.743170
C1    C     C_3   0.656096 0.851398 0.225078 -0.007946
C2    C     C_3   0.639762 0.787077 0.281964 0.362205
C3    C     C_3   0.461084 0.278393 0.299830 0.491536
C4    C     C_3   0.482078 0.229275 0.223984 -0.167519
C5    C     C_3   0.066684 0.242537 0.727870 0.418924
C6    C     C_3   0.034988 0.182641 0.786094 -0.206268
C7    C     C_3   0.515771 0.211308 0.720054 0.229091
C8    C     C_3   0.477691 0.147233 0.777124 0.165288
C9    C     C_2   0.293289 0.516328 0.294067 -0.277481
C10   C     C_3   0.396883 0.571761 0.249412 -0.021904
C11   C     C_2   0.356814 0.544894 0.169208 -0.078999
C12   C     C_3   0.083291 0.712977 0.278325 0.231927
C13   C     C_2   0.205854 0.504031 0.145159 -0.106963
C14   C     C_2   0.096159 0.468331 0.198649 -0.165558
C15   C     C_1   0.148489 0.473939 0.268272 0.011965
C16   C     C_R   0.041391 0.497686 0.928416 0.509985
C17   C     C_R   0.146071 0.501073 0.068124 0.463201
C18   C     C_R   0.080990 0.537143 0.803659 0.059511
C19   C     C_R   0.030039 0.527516 0.729404 -0.021188
C20   C     C_R   0.774973 0.445830 0.753214 -0.000400
C21   C     C_R   0.828906 0.450748 0.825799 0.055149
C22   C     C_R   0.983877 0.494712 0.851307 0.008861
C23   C     C_3   0.068248 0.724409 0.199675 -0.249928
C24   C     C_R   0.874715 0.484284 0.706189 -0.301941
C25   C     C_R   0.833736 0.167654 0.552067 0.039203
C26   C     C_R   0.777087 0.073009 0.539070 0.022618
C27   C     C_R   0.648701 0.884897 0.522122 -0.057617
C28   C     C_R   0.800095 0.920205 0.556684 -0.024203
C29   C     C_R   0.864766 0.011430 0.563448 -0.012271
C30   C     C_R   0.583612 0.791125 0.514245 0.007710
C31   C     C_R   0.432608 0.760564 0.477711 -0.240981
C32   C     C_R   0.592166 0.194290 0.491745 0.017175
C33   C     C_R   0.534311 0.100509 0.476890 -0.000378
C34   C     C_3   0.337454 0.740999 0.677745 0.293169
C35   C     C_R   0.623630 0.039693 0.503761 0.072865
C36   C     C_R   0.388737 0.066082 0.437233 0.017384
C37   C     C_R   0.326522 0.974592 0.428332 -0.071335
C38   C     C_R   0.408933 0.913287 0.457404 -0.025345
C39   C     C_R   0.560705 0.945622 0.494051 0.063624
C40   C     C_R   0.343243 0.820816 0.450772 0.052134
C41   C     C_R   0.730179 0.225327 0.535838 -0.251899
C42   C     C_3   0.397993 0.776324 0.755971 -0.406603
C43   C     C_3   0.030455 0.250338 0.350331 0.303741
C44   C     C_3   0.030943 0.155751 0.306439 -0.138298
C45   C     C_3   0.803525 0.721904 0.698576 0.227674
C46   C     C_3   0.909953 0.805409 0.746401 -0.018312
H1    H     H_    0.432671 0.720656 0.781602 0.116815
H2    H     H_    0.503958 0.828890 0.759680 0.088270
H3    H     H_    0.305904 0.807223 0.786148 0.130213
H4    H     H_    0.150606 0.279687 0.371928 0.002629
H5    H     H_    0.066565 0.108568 0.341520 0.054982
H6    H     H_    0.120104 0.162146 0.266585 0.086197
H7    H     H_    0.880578 0.682518 0.665565 0.014268
H8    H     H_    0.007153 0.779632 0.774487 0.101980
H9    H     H_    0.595357 0.910617 0.241741 0.146449
H10   H     H_    0.333688 0.278926 0.303797 -0.143227
H11   H     H_    0.430641 0.264485 0.183276 0.004489
H12   H     H_    0.610613 0.231516 0.216428 0.171298
H13   H     H_    0.592626 0.814298 0.173561 0.144108
H14   H     H_    0.964200 0.275290 0.718311 -0.049485
H15   H     H_    0.134632 0.146484 0.794520 0.101609
H16   H     H_    0.935403 0.127057 0.768251 0.113241
H17   H     H_    0.978671 0.664345 0.287496 0.111323
H18   H     H_    0.378829 0.171025 0.805581 0.137974
H19   H     H_    0.326319 0.529658 0.351253 0.051412
H20   H     H_    0.873097 0.878393 0.578454 0.143353
H21   H     H_    0.981981 0.033222 0.590456 0.134705
H22   H     H_    0.212302 0.953331 0.398502 0.111068
H23   H     H_    0.190354 0.682162 0.287084 0.000306
H24   H     H_    0.318208 0.109430 0.414246 0.085383
H25   H     H_    0.379987 0.690061 0.473617 0.069328
H26   H     H_    0.767916 0.295606 0.549698 0.158847
H27   H     H_    0.080324 0.659449 0.165783 0.075455
H28   H     H_    0.948367 0.737367 0.184775 0.097005
H29   H     H_    0.414466 0.695979 0.651241 0.045095
N1    N     N_R   0.130164 0.573428 0.967585 -0.171219
N2    N     N_R   0.180769 0.575102 0.035738 -0.187933
N3    N     N_R   0.056330 0.425528 0.029195 -0.201672
N4    N     N_R   0.005049 0.424104 0.961119 -0.205176
O1    O     O_2   0.865600 0.448450 0.327030 -0.386736
O2    O     O_3   0.687717 0.750934 0.655901 -0.701895
O3    O     O_3   0.090874 0.796238 0.325352 -0.636573
O4    O     O_2   0.324110 0.551580 0.673010 -0.503067
O5    O     O_3   0.071440 0.550090 0.585550 -0.408114
O6    O     O_3   0.532840 0.384460 0.624520 -0.510864
O7    O     O_3   0.178949 0.698057 0.674717 -0.639853
O8    O     O_3   0.607840 0.389380 0.460620 -0.403206
O9    O     O_3   0.108920 0.337040 0.587660 -0.442634
O10   O     O_2   0.147550 0.172689 0.531419 -0.486720
O11   O     O_3   0.101950 0.185669 0.666072 -0.598254
O12   O     O_3   0.118270 0.449980 0.414460 -0.465372
O13   O     O_3   0.581870 0.610700 0.539390 -0.491555
O14   O     O_2   0.335870 0.275730 0.458590 -0.509491
O15   O     O_3   0.521703 0.229118 0.349243 -0.614348
O16   O     O_2   0.465847 0.464900 0.750929 -0.479577
O17   O     O_3   0.496084 0.298801 0.755672 -0.638753
O18   O     O_3   0.656870 0.615610 0.375490 -0.485305
O19   O     O_2   0.711264 0.534758 0.247512 -0.501349
O20   O     O_3   0.971648 0.304689 0.306320 -0.570408
O21   O     O_3   0.702935 0.707064 0.254831 -0.635450
O22   O     O_2   0.853830 0.724300 0.541460 -0.447204
O23   O     O_3   0.080790 0.663040 0.412350 -0.492854
O24   O     O_2   0.017964 0.825276 0.459222 -0.438526
P1    P     P_3+3 0.033440 0.421460 0.337070 1.089722
P2    P     P_3+3 0.679060 0.710980 0.562120 0.953902
P3    P     P_3+3 0.134956 0.777866 0.413028 0.996344
P4    P     P_3+3 0.156270 0.578610 0.662940 0.989560
P5    P     P_3+3 0.043003 0.219466 0.585245 0.985212
P6    P     P_3+3 0.614462 0.605811 0.282787 0.912521
P7    P     P_3+3 0.514224 0.274339 0.440367 1.006179
P8    P     P_3+3 0.568609 0.395621 0.718645 0.901070
C47   C     C_2   0.729474 0.831458 0.352773 0.495147
H30   H     H_    0.749173 0.789686 0.392587 0.044858
O25   O     O_2   0.777203 0.913107 0.366658 -0.615595
C48   C     C_2   0.929244 0.245091 0.410209 0.575287
H31   H     H_    0.856846 0.181665 0.414964 -0.152930
O26   O     O_2   0.924700 0.313953 0.452666 -0.562627
N5    N     N_3   0.875515 0.118969 0.268421 -0.423970
H32   H     H_    0.891326 0.068922 0.225790 0.222606
H33   H     H_    0.804364 0.086157 0.302590 0.230181
C49   C     C_2   0.718992 0.661134 0.745081 0.343721
H34   H     H_    0.604881 0.621123 0.725599 0.049610
O27   O     O_2   0.778594 0.653815 0.803510 -0.566920
N6    N     N_3   0.819763 0.887286 0.212958 -0.498907
H35   H     H_    0.902281 0.870620 0.249076 0.229309
H36   H     H_    0.843687 0.860676 0.160985 0.187625
N7    N     N_3   0.979959 0.869805 0.703054 -0.524074
H37   H     H_    0.074152 0.913746 0.733601 0.167658
H38   H     H_    0.028353 0.833244 0.661212 0.255194
C50   C     C_2   0.822107 0.856346 0.801933 0.586967
H39   H     H_    0.748984 0.903863 0.786840 -0.004622
O28   O     O_2   0.838374 0.848036 0.864603 -0.525562
N8    N     N_3   0.469994 0.767872 0.292458 -0.522114
H40   H     H_    0.426309 0.828990 0.305608 0.138639
H41   H     H_    0.454181 0.735910 0.336921 0.080464
N9    N     N_3   0.545438 0.371552 0.309835 -0.398370
H42   H     H_    0.524412 0.397851 0.263143 0.147235
H43   H     H_    0.491283 0.410998 0.348528 0.143361
C51   C     C_2   0.402205 0.131962 0.210498 0.503474
H44   H     H_    0.293986 0.111653 0.175400 0.004435
O29   O     O_2   0.457231 0.075332 0.239101 -0.567675
C52   C     C_2   0.190145 0.798980 0.183378 0.539012
H45   H     H_    0.196157 0.867925 0.211524 0.038308
O30   O     O_2   0.282164 0.782857 0.137818 -0.562499
N10   N     N_3   0.199362 0.315280 0.752094 -0.435290
H46   H     H_    0.172585 0.356529 0.798042 0.142447
H47   H     H_    0.209638 0.357100 0.713322 0.202557
C53   C     C_2   0.000378 0.234597 0.855835 0.471682
H48   H     H_    0.900946 0.271194 0.857924 0.017756
O31   O     O_2   0.083295 0.235501 0.910491 -0.511410
C54   C     C_2   0.677105 0.207966 0.696141 0.464647
H49   H     H_    0.737252 0.265384 0.676117 -0.151970
O32   O     O_2   0.729131 0.136621 0.687458 -0.647530
C55   C     C_2   0.409712 0.185703 0.651858 0.494685
H50   H     H_    0.369347 0.238851 0.627483 0.083167
O33   O     O_2   0.381529 0.107958 0.619114 -0.595072
N11   N     N_3   0.609966 0.158882 0.832064 -0.492509
H51   H     H_    0.565005 0.140617 0.878866 0.209851
H52   H     H_    0.686843 0.113173 0.816205 0.203456
N12   N     N_3   0.428904 0.050328 0.748183 -0.510697
H53   H     H_    0.504569 0.027874 0.710280 0.242988
H54   H     H_    0.312900 0.039223 0.724409 0.206686
C56   C     C_2   0.478520 0.570097 0.119515 0.577442
H55   H     H_    0.565793 0.630888 0.134556 0.029545
O34   O     O_2   0.485439 0.521430 0.062200 -0.546999
C57   C     C_2   0.929700 0.430178 0.171496 0.598634
H56   H     H_    0.866746 0.464630 0.135721 0.011730
O35   O     O_2   0.864459 0.358066 0.184967 -0.535404
N13   N     N_3   0.223631 0.596249 0.833150 -0.460938
H57   H     H_    0.208274 0.661974 0.827277 0.187053
H58   H     H_    0.318960 0.578076 0.805659 0.224260
N14   N     N_3   0.723201 0.418942 0.875899 -0.456498
H59   H     H_    0.686459 0.349236 0.860714 0.214365
H60   H     H_    0.624082 0.451872 0.875333 0.245343
C58   C     C_2   0.804393 0.492601 0.635821 0.559651
H61   H     H_    0.721554 0.538800 0.630868 -0.031399
O36   O     O_2   0.828747 0.442239 0.582696 -0.529035
C59   C     C_2   0.346549 0.820226 0.638253 0.436213
H62   H     H_    0.450286 0.873097 0.647634 -0.015125
O37   O     O_2   0.242156 0.824402 0.592914 -0.587542

loop_
_geom_bond_atom_site_label_1
_geom_bond_atom_site_label_2
_ccdc_geom_bond_type
C42   H1    S    
C19   C24   A    
Ba2   P4    S    
C7    O17   S    
C32   P7    S    
C12   H23   S    
C15   P1    S    
N10   H46   S    
C34   C59   S    
C12   O3    S    
N13   H57   S    
Ba1   O18   S    
C48   O26   D    
C47   H30   S    
C1    N6    S    
C49   H34   S    
C21   N14   S    
C43   C44   S    
C34   O7    S    
C13   C17   S    
O15   P7    S    
O8    P7    S    
N6    H35   S    
C3    H10   S    
C16   C22   S    
C31   C40   A    
O10   P5    D    
C2    C47   S    
Ba2   O14   S    
N10   H47   S    
C32   C33   A    
C27   C30   A    
O4    P4    D    
C34   H29   S    
C51   O29   D    
C3    C4    S    
C57   O35   D    
C49   O27   D    
C43   C48   S    
C13   C14   S    
O20   P1    S    
C16   N4    A    
Ba2   O4    S    
N8    H41   S    
Ba1   Ba2   S    
Ba2   O9    S    
N14   H59   S    
O14   P7    D    
C57   H56   S    
C45   C49   S    
C37   H22   S    
C20   P8    S    
C9    C15   D    
C18   C22   A    
C25   P5    S    
C9    H19   S    
C50   H39   S    
C58   O36   D    
C30   P2    S    
C2    O21   S    
N6    H36   S    
C21   C22   A    
N11   H52   S    
C45   O2    S    
C54   O32   D    
N8    H40   S    
C7    C8    S    
Ba1   O22   S    
C5    N10   S    
Ba2   O12   S    
Ba1   P1    S    
C27   C39   A    
C41   H26   S    
C8    H18   S    
C7    C54   S    
C56   O34   D    
O21   P6    S    
C20   C21   A    
N5    H33   S    
N12   H54   S    
C1    H13   S    
O24   P3    D    
C36   H24   S    
O13   P2    S    
C45   C46   S    
C4    H12   S    
C3    N9    S    
O5    P4    S    
C7    C55   S    
C52   O30   D    
C37   C38   A    
N1    N2    A    
C14   C15   D    
O17   P8    S    
C43   H4    S    
Ba1   O1    S    
C23   H27   S    
Ba2   O8    S    
C6    C53   S    
C5    H14   S    
C27   C28   A    
O12   P1    S    
N13   H58   S    
C11   C56   S    
N11   H51   S    
Ba2   O13   S    
C28   C29   A    
C16   N1    A    
O18   P6    S    
C44   H6    S    
N5    H32   S    
C44   N5    S    
Ba2   O6    S    
C18   C19   A    
C4    C51   S    
C17   N2    A    
Ba1   O23   S    
N9    H43   S    
C6    H16   S    
C2    N8    S    
O7    P4    S    
C1    H9    S    
C42   H3    S    
C31   H25   S    
C38   C39   A    
Ba1   P2    S    
C11   C13   D    
C53   O31   D    
C46   N7    S    
C34   C42   S    
C23   C52   S    
O9    P5    S    
O16   P8    D    
C1    C2    S    
O23   P3    S    
C3    O15   S    
C59   H62   S    
C45   H7    S    
N7    H37   S    
C8    N12   S    
C24   C58   S    
C42   H2    S    
Ba1   O5    S    
C46   H8    S    
C55   H50   S    
Ba1   O8    S    
C59   O37   D    
C33   C35   A    
C53   H48   S    
C4    H11   S    
C26   C29   A    
C32   C41   A    
N3    N4    A    
Ba1   O13   S    
C47   O25   D    
C9    C10   S    
N12   H53   S    
C52   H45   S    
C23   H28   S    
C30   C31   A    
C55   O33   D    
C48   H31   S    
O11   P5    S    
C36   C37   A    
C26   C35   A    
C14   C57   S    
C50   O28   D    
C5    O11   S    
C44   H5    S    
C38   C40   A    
O3    P3    S    
C12   H17   S    
O2    P2    S    
Ba2   O5    S    
O1    P1    D    
C12   C23   S    
C35   C39   A    
C17   N3    A    
N14   H60   S    
O6    P8    S    
C5    C6    S    
N9    H42   S    
C6    H15   S    
C25   C41   A    
C56   H55   S    
C29   H21   S    
C18   N13   S    
C10   C11   S    
O19   P6    D    
Ba1   O12   S    
C58   H61   S    
C20   C24   A    
C25   C26   A    
C33   C36   A    
C46   C50   S    
O22   P2    D    
C54   H49   S    
C51   H44   S    
C40   P3    S    
C8    N11   S    
C10   P6    S    
C28   H20   S    
C19   P4    S    
N7    H38   S    
C43   O20   S    
