data_mof_unit_60326.cif
_audit_creation_date              2012-12-10T17:43:18-0500
_audit_creation_method            fapswitch 2.2
_symmetry_space_group_name_H-M    P1
_symmetry_Int_Tables_number       1
_space_group_crystal_system       triclinic
_cell_length_a                    37.434141
_cell_length_b                    30.458629
_cell_length_c                    21.541805
_cell_angle_alpha                 89.999983
_cell_angle_beta                  54.259138
_cell_angle_gamma                 90.0
_cell_volume                      19936.011888

loop_
_atom_site_label
_atom_site_type_symbol
_atom_type_description
_atom_site_fract_x
_atom_site_fract_y
_atom_site_fract_z
_atom_type_partial_charge
C1    C     C_R   0.914960 0.499936 0.583804 0.793168
C2    C     C_R   0.085040 0.499936 0.416196 0.793164
C3    C     C_R   0.414960 0.999936 0.583804 0.793168
C4    C     C_R   0.585040 0.999936 0.416196 0.793166
C5    C     C_3   0.953659 0.484205 0.261881 -0.382286
C6    C     C_3   0.046337 0.484190 0.738124 -0.382298
C7    C     C_3   0.453663 0.984190 0.261876 -0.382299
C8    C     C_3   0.546337 0.984188 0.738124 -0.382298
C9    C     C_R   0.797073 0.467644 0.668844 -0.128140
C10   C     C_R   0.202927 0.467642 0.331152 -0.128139
C11   C     C_R   0.297073 0.967642 0.668848 -0.128138
C12   C     C_R   0.702927 0.967642 0.331151 -0.128139
C13   C     C_R   0.843001 0.466801 0.622311 -0.038417
C14   C     C_R   0.156999 0.466799 0.377685 -0.038411
C15   C     C_R   0.343001 0.966799 0.622315 -0.038412
C16   C     C_R   0.656999 0.966798 0.377684 -0.038410
C17   C     C_R   0.866617 0.499835 0.630327 -0.061066
C18   C     C_R   0.133383 0.499835 0.369673 -0.061067
C19   C     C_R   0.366617 0.999835 0.630327 -0.061068
C20   C     C_R   0.633383 0.999835 0.369673 -0.061067
C21   C     C_R   0.843486 0.533465 0.684130 -0.193651
C22   C     C_R   0.156514 0.533467 0.315873 -0.193654
C23   C     C_R   0.343486 0.033467 0.684127 -0.193654
C24   C     C_R   0.656514 0.033467 0.315874 -0.193655
C25   C     C_R   0.797675 0.534015 0.730238 -0.194856
C26   C     C_R   0.202325 0.534017 0.269765 -0.194857
C27   C     C_R   0.297675 0.034017 0.730234 -0.194856
C28   C     C_R   0.702325 0.034018 0.269766 -0.194857
C29   C     C_R   0.774264 0.501171 0.722747 0.103758
C30   C     C_R   0.225736 0.501172 0.277253 0.103758
C31   C     C_R   0.274264 0.001172 0.722747 0.103758
C32   C     C_R   0.725736 0.001172 0.277253 0.103758
C33   C     C_R   0.702725 0.505109 0.850578 -0.238057
C34   C     C_R   0.297276 0.505112 0.149422 -0.238057
C35   C     C_R   0.202724 0.005112 0.850578 -0.238057
C36   C     C_R   0.797276 0.005113 0.149422 -0.238057
C37   C     C_R   0.656904 0.504561 0.897379 -0.184628
C38   C     C_R   0.343096 0.504564 0.102621 -0.184629
C39   C     C_R   0.156903 0.004564 0.897378 -0.184628
C40   C     C_R   0.843096 0.004564 0.102622 -0.184629
C41   C     C_R   0.633459 0.500959 0.865270 -0.096491
C42   C     C_R   0.366541 0.500959 0.134730 -0.096491
C43   C     C_R   0.133459 0.000959 0.865270 -0.096491
C44   C     C_R   0.866541 0.000959 0.134730 -0.096491
C45   C     C_R   0.000564 0.500025 0.379345 0.759367
C46   C     C_R   0.999437 0.500025 0.620654 0.759368
C47   C     C_R   0.500563 0.000025 0.379346 0.759369
C48   C     C_R   0.499437 0.000025 0.620654 0.759370
C49   C     C_R   0.656615 0.498343 0.785472 -0.254605
C50   C     C_R   0.343385 0.498340 0.214528 -0.254606
C51   C     C_R   0.156615 0.998340 0.785472 -0.254606
C52   C     C_R   0.843385 0.998340 0.214528 -0.254606
C53   C     C_R   0.702572 0.499473 0.738138 0.451452
C54   C     C_R   0.297428 0.499471 0.261862 0.451452
C55   C     C_R   0.202572 0.999471 0.738138 0.451452
C56   C     C_R   0.797428 0.999470 0.261862 0.451452
C57   C     C_R   0.725876 0.501997 0.770976 -0.001607
C58   C     C_R   0.274124 0.501997 0.229024 -0.001608
C59   C     C_R   0.225876 0.001997 0.770976 -0.001608
C60   C     C_R   0.774124 0.001997 0.229024 -0.001608
C61   C     C_R   0.000000 0.584913 0.000000 0.791355
C62   C     C_R   0.500000 0.084913 0.000000 0.791357
C63   C     C_R   0.999730 0.498766 0.120390 0.764385
C64   C     C_R   0.000270 0.498765 0.879610 0.764384
C65   C     C_R   0.499730 0.998765 0.120389 0.764383
C66   C     C_R   0.500270 0.998765 0.879610 0.764384
C67   C     C_R   0.000000 0.414822 0.000000 0.772316
C68   C     C_R   0.500000 0.914822 0.000000 0.772314
C69   C     C_R   0.500000 0.414948 0.000000 0.788517
C70   C     C_R   0.000000 0.914948 0.000000 0.788518
C71   C     C_R   0.585054 0.500198 0.914620 0.812030
C72   C     C_R   0.414946 0.500198 0.085380 0.812031
C73   C     C_R   0.085054 0.000198 0.914620 0.812030
C74   C     C_R   0.914946 0.000198 0.085380 0.812031
C75   C     C_R   0.500000 0.585054 0.000000 0.776316
C76   C     C_R   1.000000 0.085054 0.000000 0.776316
C77   C     C_R   0.034232 0.702371 0.936536 -0.202765
C78   C     C_R   0.965768 0.702371 0.063464 -0.202764
C79   C     C_R   0.534232 0.202371 0.936536 -0.202765
C80   C     C_R   0.465768 0.202371 0.063464 -0.202764
C81   C     C_3   0.008829 0.546668 0.275112 -0.351415
C82   C     C_3   0.991185 0.546670 0.724875 -0.351407
C83   C     C_3   0.508816 0.046670 0.275125 -0.351408
C84   C     C_3   0.491186 0.046671 0.724873 -0.351408
C85   C     C_R   0.034039 0.656706 0.935238 -0.033793
C86   C     C_R   0.965961 0.656706 0.064762 -0.033794
C87   C     C_R   0.534039 0.156706 0.935238 -0.033793
C88   C     C_R   0.465961 0.156706 0.064762 -0.033793
C89   C     C_R   0.000000 0.633217 0.000000 -0.131329
C90   C     C_R   0.500000 0.133217 0.000000 -0.131329
C91   C     C_R   0.000000 0.725530 0.000000 0.090431
C92   C     C_R   0.500000 0.225530 0.000000 0.090431
C93   C     C_R   0.483999 0.297065 0.067615 -0.203330
C94   C     C_R   0.516001 0.297065 0.932385 -0.203330
C95   C     C_R   0.983999 0.797065 0.067615 -0.203330
C96   C     C_R   0.016001 0.797065 0.932384 -0.203330
C97   C     C_R   0.482864 0.342733 0.068732 -0.033800
C98   C     C_R   0.517136 0.342733 0.931268 -0.033800
C99   C     C_R   0.982864 0.842733 0.068732 -0.033800
C100  C     C_R   0.017136 0.842733 0.931268 -0.033800
C101  C     C_R   0.500000 0.366415 0.000000 -0.128582
C102  C     C_R   0.000000 0.866415 0.000000 -0.128582
C103  C     C_R   0.500000 0.273918 0.000000 0.093045
C104  C     C_R   0.000000 0.773918 0.000000 0.093045
C105  C     C_R   0.037265 0.297375 0.982205 -0.167380
C106  C     C_R   0.962735 0.297375 0.017795 -0.167381
C107  C     C_R   0.537265 0.797375 0.982204 -0.167381
C108  C     C_R   0.462735 0.797375 0.017795 -0.167382
C109  C     C_R   0.037405 0.343189 0.981586 -0.185485
C110  C     C_R   0.962595 0.343189 0.018414 -0.185484
C111  C     C_R   0.537405 0.843189 0.981586 -0.185484
C112  C     C_R   0.462595 0.843189 0.018414 -0.185484
C113  C     C_R   0.000000 0.366482 0.000000 -0.029465
C114  C     C_R   0.500000 0.866482 0.000000 -0.029464
C115  C     C_3   0.009175 0.545673 0.203286 -0.394958
C116  C     C_3   0.990839 0.545675 0.796700 -0.394958
C117  C     C_3   0.509161 0.045675 0.203299 -0.394959
C118  C     C_3   0.490841 0.045676 0.796698 -0.394959
C119  C     C_R   0.000000 0.274154 1.000000 0.100619
C120  C     C_R   0.500000 0.774154 1.000000 0.100619
C121  C     C_R   0.486614 0.702536 0.960605 -0.168318
C122  C     C_R   0.513386 0.702536 0.039395 -0.168319
C123  C     C_R   0.986614 0.202536 0.960605 -0.168319
C124  C     C_R   0.013386 0.202536 0.039395 -0.168319
C125  C     C_R   0.486951 0.656721 0.960076 -0.182308
C126  C     C_R   0.513049 0.656721 0.039924 -0.182308
C127  C     C_R   0.986951 0.156721 0.960076 -0.182308
C128  C     C_R   0.013049 0.156721 0.039924 -0.182308
C129  C     C_R   0.500000 0.633416 1.000000 -0.027563
C130  C     C_R   0.000000 0.133416 1.000000 -0.027563
C131  C     C_R   0.500000 0.725756 1.000000 0.099666
C132  C     C_R   0.000000 0.225756 1.000000 0.099666
C133  C     C_3   0.035978 0.468682 0.249570 -0.407211
C134  C     C_3   0.964014 0.468691 0.750437 -0.407222
C135  C     C_3   0.535986 0.968691 0.249563 -0.407224
C136  C     C_3   0.464013 0.968693 0.750438 -0.407226
C137  C     C_3   0.954258 0.483143 0.333186 -0.161551
C138  C     C_3   0.045738 0.483130 0.666818 -0.161539
C139  C     C_3   0.454262 0.983131 0.333182 -0.161538
C140  C     C_3   0.545738 0.983129 0.666818 -0.161538
C141  C     C_3   0.999644 0.499964 0.311209 0.104900
C142  C     C_3   0.000356 0.499964 0.688790 0.104899
C143  C     C_3   0.499644 0.999964 0.311210 0.104898
C144  C     C_3   0.500356 0.999964 0.688790 0.104899
C145  C     C_3   0.999278 0.498756 0.189800 0.134113
C146  C     C_3   0.000722 0.498755 0.810200 0.134115
C147  C     C_3   0.499278 0.998755 0.189800 0.134113
C148  C     C_3   0.500722 0.998755 0.810200 0.134116
C149  C     C_3   0.034920 0.467018 0.179156 -0.379298
C150  C     C_3   0.965070 0.467028 0.820853 -0.379280
C151  C     C_3   0.534930 0.967028 0.179147 -0.379279
C152  C     C_3   0.465069 0.967029 0.820854 -0.379277
Cu1   Cu    Cu3+1 0.000000 0.544030 0.500000 0.954125
Cu2   Cu    Cu3+1 0.500000 0.044030 0.500000 0.954118
Cu3   Cu    Cu3+1 0.000000 0.455920 0.500000 0.975333
Cu4   Cu    Cu3+1 0.500000 0.955920 0.500000 0.975334
Cu5   Cu    Cu3+1 0.955920 0.499940 0.044070 0.956372
Cu6   Cu    Cu3+1 0.044080 0.499940 0.955930 0.956373
Cu7   Cu    Cu3+1 0.455920 0.999940 0.044070 0.956372
Cu8   Cu    Cu3+1 0.544080 0.999940 0.955930 0.956373
Cu9   Cu    Cu3+1 0.499970 0.499990 0.937550 0.968063
Cu10  Cu    Cu3+1 0.500030 0.499990 0.062450 0.968063
Cu11  Cu    Cu3+1 0.999970 0.999990 0.937550 0.968063
Cu12  Cu    Cu3+1 0.000030 0.999990 0.062450 0.968063
H1    H     H_    0.041186 0.558881 0.259284 0.163050
H2    H     H_    0.958830 0.558892 0.740701 0.163059
H3    H     H_    0.541171 0.058891 0.259298 0.163059
H4    H     H_    0.458832 0.058894 0.740699 0.163061
H5    H     H_    0.945387 0.450906 0.252435 0.154038
H6    H     H_    0.054597 0.450888 0.747579 0.154028
H7    H     H_    0.445402 0.950889 0.252421 0.154028
H8    H     H_    0.554596 0.950886 0.747581 0.154027
H9    H     H_    0.031211 0.434887 0.272872 0.183824
H10   H     H_    0.968773 0.434895 0.727144 0.183818
H11   H     H_    0.531227 0.934895 0.272856 0.183819
H12   H     H_    0.468770 0.934896 0.727146 0.183818
H13   H     H_    0.027864 0.432915 0.170625 0.154601
H14   H     H_    0.972115 0.432923 0.829396 0.154599
H15   H     H_    0.527884 0.932923 0.170604 0.154599
H16   H     H_    0.472112 0.932924 0.829398 0.154599
H17   H     H_    0.778971 0.442094 0.663177 0.162523
H18   H     H_    0.221029 0.442091 0.336816 0.162521
H19   H     H_    0.278971 0.942091 0.663184 0.162521
H20   H     H_    0.721029 0.942090 0.336815 0.162521
H21   H     H_    0.860900 0.559108 0.691183 0.149811
H22   H     H_    0.139100 0.559111 0.308823 0.149813
H23   H     H_    0.360900 0.059111 0.691177 0.149814
H24   H     H_    0.639100 0.059112 0.308824 0.149814
H25   H     H_    0.780451 0.560289 0.771353 0.136648
H26   H     H_    0.219549 0.560292 0.228654 0.136648
H27   H     H_    0.280451 0.060292 0.771346 0.136648
H28   H     H_    0.719549 0.060293 0.228655 0.136648
H29   H     H_    0.720195 0.507234 0.876584 0.154206
H30   H     H_    0.279805 0.507238 0.123416 0.154207
H31   H     H_    0.220195 0.007238 0.876584 0.154207
H32   H     H_    0.779805 0.007240 0.123416 0.154207
H33   H     H_    0.639888 0.506779 0.958708 0.165874
H34   H     H_    0.360112 0.506783 0.041292 0.165874
H35   H     H_    0.139888 0.006783 0.958708 0.165874
H36   H     H_    0.860112 0.006784 0.041292 0.165874
H37   H     H_    0.639238 0.495516 0.759388 0.177276
H38   H     H_    0.360762 0.495512 0.240611 0.177277
H39   H     H_    0.139238 0.995512 0.759389 0.177277
H40   H     H_    0.860762 0.995511 0.240611 0.177277
H41   H     H_    0.983335 0.570309 0.317031 0.188661
H42   H     H_    0.016684 0.570305 0.682948 0.188655
H43   H     H_    0.483317 0.070305 0.317051 0.188655
H44   H     H_    0.516687 0.070304 0.682946 0.188654
H45   H     H_    0.061346 0.719825 0.887567 0.135783
H46   H     H_    0.938654 0.719825 0.112433 0.135782
H47   H     H_    0.561346 0.219825 0.887567 0.135783
H48   H     H_    0.438654 0.219825 0.112433 0.135782
H49   H     H_    0.472266 0.279565 0.120096 0.134005
H50   H     H_    0.527733 0.279565 0.879904 0.134005
H51   H     H_    0.972266 0.779565 0.120096 0.134005
H52   H     H_    0.027733 0.779565 0.879904 0.134005
H53   H     H_    0.066441 0.280024 0.967860 0.130267
H54   H     H_    0.933559 0.280024 0.032140 0.130267
H55   H     H_    0.566441 0.780024 0.967859 0.130267
H56   H     H_    0.433559 0.780024 0.032140 0.130268
H57   H     H_    0.066612 0.360372 0.967444 0.149059
H58   H     H_    0.933388 0.360372 0.032556 0.149058
H59   H     H_    0.566612 0.860372 0.967444 0.149058
H60   H     H_    0.433388 0.860372 0.032556 0.149058
H61   H     H_    0.476428 0.719888 0.929470 0.130588
H62   H     H_    0.523572 0.719888 0.070530 0.130588
H63   H     H_    0.976428 0.219888 0.929470 0.130588
H64   H     H_    0.023572 0.219888 0.070530 0.130588
H65   H     H_    0.476600 0.639554 0.929047 0.150577
H66   H     H_    0.523400 0.639554 0.070953 0.150577
H67   H     H_    0.976600 0.139554 0.929047 0.150577
H68   H     H_    0.023400 0.139554 0.070953 0.150576
H69   H     H_    0.984145 0.569059 0.210467 0.168479
H70   H     H_    0.015878 0.569054 0.789509 0.168493
H71   H     H_    0.484123 0.069054 0.210490 0.168493
H72   H     H_    0.515880 0.069053 0.789507 0.168494
H73   H     H_    0.041891 0.556744 0.152857 0.171674
H74   H     H_    0.958127 0.556758 0.847127 0.171662
H75   H     H_    0.541873 0.056757 0.152873 0.171663
H76   H     H_    0.458129 0.056759 0.847125 0.171661
H77   H     H_    0.068895 0.480142 0.232075 0.159645
H78   H     H_    0.931100 0.480160 0.767928 0.159642
H79   H     H_    0.568900 0.980159 0.232073 0.159643
H80   H     H_    0.431099 0.980163 0.767928 0.159642
H81   H     H_    0.068013 0.476085 0.127517 0.185010
H82   H     H_    0.931979 0.476106 0.872488 0.185012
H83   H     H_    0.568020 0.976106 0.127512 0.185012
H84   H     H_    0.431978 0.976108 0.872489 0.185012
H85   H     H_    0.949632 0.448563 0.353301 0.150572
H86   H     H_    0.050356 0.448549 0.646710 0.150571
H87   H     H_    0.449643 0.948550 0.353291 0.150571
H88   H     H_    0.550354 0.948547 0.646711 0.150572
H89   H     H_    0.927699 0.506943 0.270816 0.191855
H90   H     H_    0.072305 0.506919 0.729182 0.191857
H91   H     H_    0.427695 0.006920 0.270817 0.191857
H92   H     H_    0.572305 0.006917 0.729182 0.191857
O1    O     O_R   0.935720 0.537180 0.564270 -0.581309
O2    O     O_R   0.064280 0.537180 0.435730 -0.581315
O3    O     O_R   0.435720 0.037180 0.564270 -0.581314
O4    O     O_R   0.564280 0.037180 0.435730 -0.581315
O5    O     O_R   0.564240 0.499990 0.883000 -0.583914
O6    O     O_R   0.435760 0.499990 0.117000 -0.583913
O7    O     O_R   0.064240 0.999990 0.883000 -0.583914
O8    O     O_R   0.935760 0.999990 0.117000 -0.583913
O9    O     O_R   0.564250 0.499990 0.988510 -0.590835
O10   O     O_R   0.435750 0.499990 0.011490 -0.590835
O11   O     O_R   0.064250 0.999990 0.988510 -0.590835
O12   O     O_R   0.935750 0.999990 0.011490 -0.590835
O13   O     O_R   0.500010 0.564260 0.947230 -0.590137
O14   O     O_R   0.499990 0.564260 0.052770 -0.590138
O15   O     O_R   0.000010 0.064260 0.947230 -0.590137
O16   O     O_R   0.999990 0.064260 0.052770 -0.590138
O17   O     O_R   0.935680 0.462770 0.564310 -0.578285
O18   O     O_R   0.064320 0.462770 0.435690 -0.578288
O19   O     O_R   0.435680 0.962770 0.564310 -0.578286
O20   O     O_R   0.564320 0.962770 0.435690 -0.578287
O21   O     O_R   0.999990 0.537180 0.408860 -0.590182
O22   O     O_R   0.000010 0.537180 0.591140 -0.590188
O23   O     O_R   0.499990 0.037180 0.408860 -0.590186
O24   O     O_R   0.500010 0.037180 0.591140 -0.590188
O25   O     O_R   0.999950 0.462770 0.408890 -0.588805
O26   O     O_R   0.000050 0.462770 0.591110 -0.588806
O27   O     O_R   0.499950 0.962770 0.408890 -0.588805
O28   O     O_R   0.500050 0.962770 0.591110 -0.588805
O29   O     O_R   0.962770 0.564220 0.037230 -0.571314
O30   O     O_R   0.037230 0.564220 0.962770 -0.571314
O31   O     O_R   0.462770 0.064220 0.037230 -0.571314
O32   O     O_R   0.537230 0.064220 0.962770 -0.571314
O33   O     O_R   0.962780 0.499950 0.128370 -0.584324
O34   O     O_R   0.037220 0.499950 0.871630 -0.584322
O35   O     O_R   0.462780 0.999950 0.128370 -0.584322
O36   O     O_R   0.537220 0.999950 0.871630 -0.584322
O37   O     O_R   0.037180 0.500000 0.053970 -0.594902
O38   O     O_R   0.962820 0.500000 0.946030 -0.594903
O39   O     O_R   0.537180 1.000000 0.053970 -0.594903
O40   O     O_R   0.462820 1.000000 0.946030 -0.594903
O41   O     O_R   0.962780 0.435670 0.037210 -0.589964
O42   O     O_R   0.037220 0.435670 0.962790 -0.589964
O43   O     O_R   0.462780 0.935670 0.037210 -0.589964
O44   O     O_R   0.537220 0.935670 0.962790 -0.589964
O45   O     O_R   0.499930 0.435710 0.947300 -0.572019
O46   O     O_R   0.500070 0.435710 0.052700 -0.572020
O47   O     O_R   0.999930 0.935710 0.947300 -0.572019
O48   O     O_R   0.000070 0.935710 0.052700 -0.572020
C153  C     C_1   0.864812 0.432737 0.565066 0.260140
N1    N     N_1   0.882255 0.405488 0.519134 -0.288085
C154  C     C_1   0.135189 0.432733 0.434925 0.260156
N2    N     N_1   0.117746 0.405482 0.480854 -0.288081
C155  C     C_1   0.364811 0.932733 0.565075 0.260156
N3    N     N_1   0.382254 0.905482 0.519146 -0.288081
C156  C     C_1   0.635189 0.932732 0.434924 0.260159
N4    N     N_1   0.617746 0.905481 0.480852 -0.288080
O49   O     O_3   0.724514 0.496166 0.659881 -0.588249
C157  C     C_3   0.732174 0.538884 0.629171 0.050469
H93   H     H_    0.750652 0.559258 0.644624 0.149702
H94   H     H_    0.700479 0.555374 0.649830 0.141966
C158  C     C_3   0.759680 0.535830 0.542441 -0.726114
H95   H     H_    0.741856 0.516492 0.524777 0.245902
H96   H     H_    0.766163 0.569263 0.517449 0.199794
H97   H     H_    0.791589 0.519591 0.520346 0.265002
O50   O     O_3   0.275487 0.496161 0.340119 -0.588247
C159  C     C_3   0.267827 0.538878 0.370832 0.050471
H98   H     H_    0.249347 0.559253 0.355384 0.149703
H99   H     H_    0.299522 0.555367 0.350172 0.141964
C160  C     C_3   0.240324 0.535821 0.457561 -0.726115
H100  H     H_    0.258150 0.516482 0.475221 0.245902
H101  H     H_    0.233841 0.569253 0.482557 0.199793
H102  H     H_    0.208414 0.519582 0.479659 0.265008
O51   O     O_3   0.224513 0.996162 0.659881 -0.588248
C161  C     C_3   0.232173 0.038878 0.629168 0.050471
H103  H     H_    0.250653 0.059253 0.644616 0.149704
H104  H     H_    0.200477 0.055367 0.649828 0.141964
C162  C     C_3   0.259676 0.035821 0.542439 -0.726114
H105  H     H_    0.241850 0.016482 0.524779 0.245901
H106  H     H_    0.266159 0.069253 0.517443 0.199792
H107  H     H_    0.291586 0.019582 0.520341 0.265008
O52   O     O_3   0.775487 0.996160 0.340119 -0.588247
C163  C     C_3   0.767827 0.038877 0.370833 0.050474
H108  H     H_    0.749347 0.059252 0.355386 0.149703
H109  H     H_    0.799523 0.055366 0.350172 0.141963
C164  C     C_3   0.740325 0.035819 0.457562 -0.726115
H110  H     H_    0.758151 0.016480 0.475221 0.245901
H111  H     H_    0.733842 0.069251 0.482558 0.199792
H112  H     H_    0.708414 0.019580 0.479660 0.265009
C165  C     C_1   0.068507 0.635138 0.865407 0.251198
N5    N     N_1   0.096065 0.617926 0.809438 -0.283169
C166  C     C_1   0.931492 0.635138 0.134593 0.251200
N6    N     N_1   0.903935 0.617926 0.190562 -0.283167
C167  C     C_1   0.568507 0.135138 0.865407 0.251198
N7    N     N_1   0.596065 0.117926 0.809438 -0.283169
C168  C     C_1   0.431493 0.135138 0.134593 0.251198
N8    N     N_1   0.403935 0.117926 0.190562 -0.283169
C169  C     C_1   0.462571 0.363876 0.142190 0.268494
N9    N     N_1   0.446257 0.380688 0.201088 -0.273113
C170  C     C_1   0.537429 0.363876 0.857810 0.268495
N10   N     N_1   0.553743 0.380688 0.798912 -0.273113
C171  C     C_1   0.962571 0.863876 0.142190 0.268495
N11   N     N_1   0.946257 0.880688 0.201088 -0.273113
C172  C     C_1   0.037429 0.863876 0.857810 0.268494
N12   N     N_1   0.053743 0.880688 0.798912 -0.273113
C173  C     C_1   0.917026 0.508628 0.396616 0.222232
N13   N     N_1   0.887923 0.528586 0.446276 -0.292792
C174  C     C_1   0.082978 0.508607 0.603383 0.222233
N14   N     N_1   0.112085 0.528559 0.553720 -0.292805
C175  C     C_1   0.417023 0.008608 0.396616 0.222233
N15   N     N_1   0.387915 0.028560 0.446279 -0.292805
C176  C     C_1   0.582978 0.008604 0.603383 0.222232
N16   N     N_1   0.612086 0.028554 0.553719 -0.292807

loop_
_geom_bond_atom_site_label_1
_geom_bond_atom_site_label_2
_ccdc_geom_bond_type
C159  H99   S    
Cu5   Cu6   S    
C55   C59   A    
C70   O47   A    
C108  C120  A    
Cu1   O1    S    
C79   C87   A    
O52   C163  S    
C48   O28   A    
Cu2   O4    S    
C162  H105  S    
C171  N11   T    
C27   H27   S    
C6    C146  S    
C95   C99   A    
C159  C160  S    
C123  H63   S    
C47   C143  S    
C121  H61   S    
C48   C144  S    
C31   C59   S    
C9    C13   A    
C146  C150  S    
C11   C15   A    
C12   C16   A    
C149  H81   S    
C3    C19   S    
C65   C147  S    
Cu9   O45   S    
C66   C148  S    
C53   O49   S    
C122  C126  A    
C34   H30   S    
C128  H68   S    
C112  H60   S    
C87   C167  S    
C41   C49   A    
C136  C152  S    
C47   O23   A    
Cu9   Cu10  S    
C23   C27   A    
C50   H38   S    
C25   C29   A    
Cu12  O11   S    
C94   H50   S    
C161  H103  S    
C27   C31   A    
C55   O51   S    
C28   C32   A    
C126  C129  A    
C157  H93   S    
C8    H92   S    
C17   C21   A    
Cu1   O22   S    
Cu5   O38   S    
C152  H16   S    
C158  H97   S    
C79   H47   S    
C84   H4    S    
C2    O18   A    
C65   O39   A    
C151  H15   S    
C170  N10   T    
C66   O40   A    
C16   C20   A    
C72   O10   A    
C133  C149  S    
C44   C74   S    
C107  H55   S    
C15   C155  S    
C45   O21   A    
C96   C104  A    
C67   O42   A    
C10   H18   S    
Cu6   O34   S    
C107  C120  A    
C109  H57   S    
C162  H107  S    
C77   C91   A    
C134  H10   S    
C64   C146  S    
Cu4   O27   S    
C5    C137  S    
C69   C101  S    
Cu10  O9    S    
C96   H52   S    
C117  C147  S    
C8    C140  S    
C83   C117  S    
C80   C88   A    
C175  N15   T    
C83   C143  S    
C3    O3    A    
Cu12  O8    S    
Cu2   O24   S    
C51   C55   A    
C62   O32   A    
Cu4   O20   S    
C4    C20   S    
C125  C129  A    
C117  H75   S    
O50   C159  S    
C172  N12   T    
C34   C58   A    
Cu10  O6    S    
Cu5   O41   S    
C133  H9    S    
C43   C73   S    
C136  H12   S    
Cu3   O25   S    
C167  N7    T    
C123  C132  A    
C14   C154  S    
C93   C103  A    
C112  C114  A    
C68   O44   A    
C69   O45   A    
C35   C59   A    
Cu2   O23   S    
Cu12  O48   S    
C125  H65   S    
C49   C53   A    
C84   C144  S    
C135  H79   S    
C76   O15   A    
C63   O37   A    
C124  C132  A    
C64   O34   A    
C5    H89   S    
C160  H101  S    
C83   H43   S    
C139  C143  S    
C134  H78   S    
C97   C169  S    
C38   H34   S    
C78   H46   S    
C80   H48   S    
C44   C52   A    
C135  C143  S    
C16   C156  S    
C77   C85   A    
Cu7   O43   S    
Cu3   O18   S    
Cu8   O36   S    
C100  C102  A    
C7    C147  S    
C164  H111  S    
C49   H37   S    
C5    C145  S    
C137  C173  S    
C99   C171  S    
C10   C14   A    
C115  H73   S    
C83   H3    S    
Cu11  O15   S    
C22   H22   S    
C147  C151  S    
C36   H32   S    
C121  C125  A    
Cu10  O46   S    
Cu9   O5    S    
C84   H44   S    
C123  C127  A    
C61   O30   A    
C47   O27   A    
C42   C50   A    
C26   C30   A    
C163  H109  S    
C46   O26   A    
C139  C175  S    
C93   C97   A    
C122  C131  A    
C82   H42   S    
C6    H6    S    
C118  H76   S    
C150  H82   S    
C105  C109  A    
C18   C22   A    
C107  C111  A    
C24   C28   A    
Cu6   O37   S    
C138  H86   S    
C3    O19   A    
C75   O14   A    
C163  C164  S    
C1    C17   S    
C13   C17   A    
C25   H25   S    
C116  C146  S    
C96   C100  A    
C37   C41   A    
C9    H17   S    
C40   C44   A    
C56   C60   A    
C4    O4    A    
C127  H67   S    
C116  H70   S    
C63   C145  S    
C73   O7    A    
C74   O8    A    
C7    H7    S    
C106  C119  A    
C120  C131  S    
C140  H88   S    
C82   C142  S    
C169  N9    T    
C46   C142  S    
C15   C19   A    
C50   C54   A    
C161  H104  S    
C13   C153  S    
C151  H83   S    
Cu11  O12   S    
C94   C98   A    
C157  H94   S    
C122  H62   S    
Cu1   O21   S    
C158  H96   S    
Cu6   O42   S    
C39   H35   S    
C168  N8    T    
C161  C162  S    
C33   C57   A    
C174  N14   T    
Cu1   Cu3   S    
Cu2   Cu4   S    
C35   H31   S    
C124  C128  A    
C157  C158  S    
C48   O24   A    
C159  H98   S    
C33   H29   S    
C67   O41   A    
C45   C141  S    
C8    C148  S    
C70   O48   A    
Cu1   O2    S    
C51   H39   S    
C1    O1    A    
C162  H106  S    
C93   H49   S    
C154  N2    T    
C148  C152  S    
Cu7   O40   S    
C21   C25   A    
C138  C142  S    
Cu8   O39   S    
C166  N6    T    
Cu4   O28   S    
C53   C57   A    
Cu5   O29   S    
C40   H36   S    
Cu9   O13   S    
C155  N3    T    
C33   C37   A    
C108  C112  A    
C52   H40   S    
C35   C39   A    
C134  C142  S    
Cu7   Cu8   S    
C56   O52   S    
C54   O50   S    
C111  H59   S    
C138  C174  S    
C106  H54   S    
C88   C90   A    
C94   C103  A    
C32   C60   S    
C110  H58   S    
C115  H69   S    
C82   H2    S    
C117  H71   S    
C137  C141  S    
C85   C89   A    
C7    H91   S    
C72   O6    A    
C140  C144  S    
C86   C89   A    
C128  C130  A    
C137  H85   S    
C70   C102  S    
C21   H21   S    
C98   C101  A    
C115  C145  S    
C133  C141  S    
C24   H24   S    
C118  C148  S    
C88   C168  S    
C82   C116  S    
C136  C144  S    
C43   C51   A    
O49   C157  S    
C12   H20   S    
C135  C151  S    
C76   O16   A    
C46   O22   A    
C111  C114  A    
C67   C113  S    
C160  H100  S    
Cu7   O35   S    
C152  H84   S    
C108  H56   S    
C118  H72   S    
C99   C102  A    
C153  N1    T    
C22   C26   A    
C87   C90   A    
C5    H5    S    
C105  C119  A    
C145  C149  S    
Cu2   O3    S    
C8    H8    S    
C71   O5    A    
C23   H23   S    
C156  N4    T    
C80   C92   A    
C2    C18   S    
C95   H51   S    
O51   C161  S    
C14   C18   A    
C19   C23   A    
Cu11  Cu12  S    
C91   C104  S    
Cu3   O17   S    
C26   H26   S    
C164  H110  S    
C126  H66   S    
C38   C42   A    
C134  C150  S    
C116  H74   S    
C6    H90   S    
C10   C30   A    
C62   O31   A    
Cu4   O19   S    
C73   O11   A    
C92   C103  S    
C133  H77   S    
C30   C58   S    
C74   O12   A    
C140  C176  S    
C20   C24   A    
C61   O29   A    
C1    O17   A    
C9    C29   A    
C150  H14   S    
Cu11  O47   S    
C78   C86   A    
C81   C141  S    
Cu12  O16   S    
C11   C31   A    
C71   O9    A    
C12   C32   A    
C76   C130  S    
C121  C131  A    
C28   H28   S    
C42   C72   S    
C124  H64   S    
C61   C89   S    
C68   O43   A    
C45   O25   A    
C69   O46   A    
C136  H80   S    
C4    O20   A    
Cu5   O33   S    
C36   C40   A    
C11   H19   S    
C98   C170  S    
C39   C43   A    
C75   O13   A    
Cu7   O31   S    
Cu8   O32   S    
C135  H11   S    
C6    C138  S    
C160  H102  S    
C176  N16   T    
Cu9   O10   S    
C81   C115  S    
C149  H13   S    
C119  C132  S    
C109  C113  A    
C110  C113  A    
C79   C92   A    
C84   C118  S    
C2    O2    A    
C37   H33   S    
C86   C166  S    
C95   C104  A    
C81   H41   S    
C54   C58   A    
C164  H112  S    
Cu6   O30   S    
Cu10  O14   S    
C85   C165  S    
C34   C38   A    
C139  H87   S    
C29   C57   S    
C36   C60   A    
C77   H45   S    
C78   C91   A    
C173  N13   T    
C105  H53   S    
C41   C71   S    
Cu3   O26   S    
Cu8   O44   S    
C127  C130  A    
C7    C139  S    
C65   O35   A    
C62   C90   S    
C158  H95   S    
C66   O36   A    
C75   C129  S    
C106  C110  A    
C163  H108  S    
Cu11  O7    S    
C63   O33   A    
C81   H1    S    
C64   O38   A    
C165  N5    T    
C100  C172  S    
C97   C101  A    
C52   C56   A    
C68   C114  S    
