data_mof_unit_16720.cif
_audit_creation_date              2012-12-10T19:45:00-0500
_audit_creation_method            fapswitch 2.2
_symmetry_space_group_name_H-M    P1
_symmetry_Int_Tables_number       1
_space_group_crystal_system       triclinic
_cell_length_a                    15.051593
_cell_length_b                    10.853443
_cell_length_c                    13.796498
_cell_angle_alpha                 89.463597
_cell_angle_beta                  91.663923
_cell_angle_gamma                 88.130411
_cell_volume                      2251.54859194

loop_
_atom_site_label
_atom_site_type_symbol
_atom_type_description
_atom_site_fract_x
_atom_site_fract_y
_atom_site_fract_z
_atom_type_partial_charge
C1    C     C_R   0.497003 0.262516 0.499789 0.791073
C2    C     C_R   0.566135 0.876941 0.675361 0.077091
C3    C     C_R   0.479442 0.098744 0.235954 -0.152828
C4    C     C_R   0.519396 0.886377 0.761683 -0.138743
C5    C     C_R   0.447696 0.151779 0.148553 -0.158619
C6    C     C_R   0.553867 0.830119 0.846788 -0.160740
C7    C     C_R   0.371890 0.229462 0.146553 -0.145812
C8    C     C_R   0.635236 0.764425 0.846551 -0.140900
C9    C     C_R   0.474637 0.935308 0.417325 -0.234484
C10   C     C_R   0.523023 0.064887 0.583200 -0.233181
C11   C     C_R   0.504060 0.871573 0.501208 -0.078869
C12   C     C_R   0.502527 0.737578 0.500205 0.791704
C13   C     C_R   0.494170 0.128709 0.498916 -0.081732
C14   C     C_R   0.529528 0.937121 0.585259 0.019689
C15   C     C_R   0.468766 0.063137 0.414621 0.024925
C16   C     C_R   0.328755 0.499693 0.498900 0.802753
C17   C     C_R   0.671361 0.499744 0.500915 0.808802
C18   C     C_R   0.561320 0.427781 0.797893 0.302108
C19   C     C_R   0.441037 0.576557 0.201916 0.309000
C20   C     C_R   0.437344 0.568967 0.790294 0.018539
C21   C     C_R   0.557350 0.422542 0.209487 0.021732
C22   C     C_R   0.434552 0.569727 0.893010 -0.043260
C23   C     C_R   0.054028 0.384592 0.651831 -0.188250
C24   C     C_R   0.558500 0.418984 0.106614 -0.039936
C25   C     C_R   0.496045 0.494178 0.948147 0.010247
C26   C     C_R   0.496893 0.494263 0.051466 0.010518
C27   C     C_R   0.558465 0.420926 0.900121 -0.011034
C28   C     C_R   0.437073 0.571705 0.099411 -0.018810
C29   C     C_R   0.372999 0.644572 0.942418 0.120371
C30   C     C_R   0.619138 0.342631 0.056981 0.119203
C31   C     C_R   0.374771 0.645230 0.043903 -0.211208
C32   C     C_R   0.619127 0.344772 0.955374 -0.202272
C33   C     C_R   0.810774 0.556796 0.424486 -0.217302
C34   C     C_R   0.946413 0.611541 0.345564 -0.190800
C35   C     C_R   0.189487 0.442217 0.574502 -0.220182
C36   C     C_R   0.768230 0.500268 0.501503 -0.070375
C37   C     C_R   0.232122 0.497707 0.497233 -0.067186
C38   C     C_R   0.818359 0.441161 0.576330 -0.264474
C39   C     C_R   0.182413 0.552822 0.420147 -0.244761
C40   C     C_R   0.910936 0.441047 0.576402 0.121369
C41   C     C_R   0.089697 0.553677 0.420259 0.118642
C42   C     C_R   0.953687 0.498359 0.499092 0.065805
C43   C     C_R   0.046835 0.497628 0.498146 0.062953
C44   C     C_R   0.903355 0.555944 0.422565 0.106180
C45   C     C_R   0.326580 0.253734 0.232313 0.218328
C46   C     C_R   0.097041 0.441080 0.575257 0.106266
C47   C     C_R   0.961428 0.384127 0.652197 -0.193852
C48   C     C_R   0.039110 0.610180 0.344314 -0.190133
C49   C     C_R   0.683396 0.755738 0.760926 0.218364
C50   C     C_R   0.357972 0.198967 0.319852 -0.078647
C51   C     C_R   0.648530 0.812346 0.675612 -0.097794
C52   C     C_R   0.435263 0.122495 0.322486 0.070670
Cu1   Cu    Cu3+1 0.500010 0.499980 0.597420 0.938453
Cu2   Cu    Cu3+1 0.499990 0.500020 0.402580 0.938014
H1    H     H_    0.771730 0.601813 0.366223 0.155329
H2    H     H_    0.215836 0.597083 0.361285 0.149062
H3    H     H_    0.929295 0.339840 0.711909 0.154648
H4    H     H_    0.071227 0.653547 0.284179 0.155551
H5    H     H_    0.091999 0.340706 0.711303 0.155525
H6    H     H_    0.908405 0.655908 0.286339 0.155519
H7    H     H_    0.348847 0.270988 0.078320 0.137715
H8    H     H_    0.660806 0.721120 0.913132 0.135168
H9    H     H_    0.322614 0.216694 0.385869 0.119839
H10   H     H_    0.685549 0.806002 0.609528 0.120229
H11   H     H_    0.538767 0.039476 0.236327 0.158691
H12   H     H_    0.228396 0.399049 0.633708 0.156322
H13   H     H_    0.456011 0.936469 0.762781 0.158142
H14   H     H_    0.482354 0.133413 0.082298 0.164059
H15   H     H_    0.517305 0.837102 0.913031 0.161006
H16   H     H_    0.616412 0.317148 0.693777 0.260440
H17   H     H_    0.680972 0.433898 0.738093 0.223081
H18   H     H_    0.379527 0.660147 0.319059 0.278020
H19   H     H_    0.409930 0.754127 0.230710 0.196257
H20   H     H_    0.230909 0.360822 0.160745 0.220219
H21   H     H_    0.265377 0.412921 0.268680 0.234707
H22   H     H_    0.784558 0.653861 0.828086 0.218330
H23   H     H_    0.453771 0.885288 0.353634 0.151103
H24   H     H_    0.763108 0.619049 0.711922 0.218257
H25   H     H_    0.543962 0.114698 0.647246 0.158848
H26   H     H_    0.390828 0.625038 0.746600 0.176713
H27   H     H_    0.602332 0.364110 0.253180 0.177337
H28   H     H_    0.326547 0.704665 0.078829 0.195101
H29   H     H_    0.667380 0.285813 0.919979 0.197938
H30   H     H_    0.785694 0.392935 0.633286 0.140855
I1    I     I_    0.276422 0.762814 0.870308 -0.430406
I2    I     I_    0.714233 0.222106 0.129005 -0.428424
N1    N     N_R   0.499960 0.499900 0.743810 -0.202862
N2    N     N_R   0.500040 0.500100 0.256190 -0.206278
N3    N     N_3   0.635389 0.367180 0.754140 -0.624772
N4    N     N_3   0.384003 0.667981 0.245279 -0.625481
N5    N     N_3   0.248535 0.333112 0.231707 -0.582083
N6    N     N_3   0.768512 0.692464 0.759830 -0.581151
O1    O     O_R   0.500000 0.319630 0.582270 -0.600135
O2    O     O_R   0.500000 0.680370 0.417730 -0.604788
O3    O     O_R   0.499990 0.319660 0.417730 -0.573077
O4    O     O_R   0.500010 0.680340 0.582270 -0.569315
O5    O     O_R   0.370260 0.499960 0.582280 -0.579519
O6    O     O_R   0.629740 0.500040 0.417720 -0.577181
O7    O     O_R   0.370250 0.499990 0.417740 -0.610444
O8    O     O_R   0.629750 0.500010 0.582260 -0.604711

loop_
_geom_bond_atom_site_label_1
_geom_bond_atom_site_label_2
_ccdc_geom_bond_type
C33   H1    S    
C6    H15   S    
C38   C40   A    
C22   C29   A    
C40   C47   A    
C49   C51   A    
C39   C41   A    
Cu1   Cu2   S    
C23   H5    S    
C31   H28   S    
C7    C45   A    
C35   C37   A    
C24   C26   A    
H19   N4    S    
C11   C14   A    
C16   O5    A    
C20   N1    A    
C33   C36   A    
C7    H7    S    
C33   C44   A    
C22   C25   A    
C50   C52   A    
C17   C36   S    
C30   I2    S    
C17   O6    A    
C29   I1    S    
H21   N5    S    
C16   C37   S    
C40   C42   A    
C21   N2    A    
C23   C46   A    
Cu1   O4    S    
C34   H6    S    
C50   H9    S    
C41   C43   A    
C12   O2    A    
C3    H11   S    
C42   C44   A    
C5    H14   S    
C2    C14   S    
C43   C46   A    
Cu1   O8    S    
C23   C47   A    
C20   H26   S    
Cu1   O1    S    
C34   C44   A    
C4    C6    A    
C19   N2    A    
C10   C14   A    
C5    C7    A    
C6    C8    A    
C35   H12   S    
H24   N6    S    
C25   C26   A    
H20   N5    S    
C2    C4    A    
C47   H3    S    
H18   N4    S    
C39   H2    S    
H17   N3    S    
C1    O3    A    
C51   H10   S    
Cu1   N1    S    
C9    H23   S    
C15   C52   S    
C19   C28   A    
C9    C11   A    
Cu2   O3    S    
H22   N6    S    
C1    O1    A    
C21   H27   S    
C13   C15   A    
Cu2   O7    S    
H16   N3    S    
C1    C13   S    
C42   C43   A    
C49   N6    S    
C32   H29   S    
C38   H30   S    
C27   C32   A    
C18   N3    S    
C28   C31   A    
Cu2   O6    S    
C18   C27   A    
C20   C22   A    
C3    C5    A    
C10   C13   A    
C4    H13   S    
C10   H25   S    
C16   O7    A    
C48   H4    S    
C25   C27   A    
C26   C28   A    
C18   N1    A    
Cu1   O5    S    
Cu2   N2    S    
C36   C38   A    
C9    C15   A    
C29   C31   A    
C19   N4    S    
C3    C52   A    
C30   C32   A    
C45   C50   A    
C41   C48   A    
C45   N5    S    
C17   O8    A    
C24   C30   A    
Cu2   O2    S    
C2    C51   A    
C34   C48   A    
C37   C39   A    
C21   C24   A    
C12   O4    A    
C35   C46   A    
C8    C49   A    
C11   C12   S    
C8    H8    S    
