data_mof_unit_48000.cif
_audit_creation_date              2012-12-10T18:47:09-0500
_audit_creation_method            fapswitch 2.2
_symmetry_space_group_name_H-M    P1
_symmetry_Int_Tables_number       1
_space_group_crystal_system       triclinic
_cell_length_a                    10.734859
_cell_length_b                    9.844278
_cell_length_c                    14.818702
_cell_angle_alpha                 89.946042
_cell_angle_beta                  90.183343
_cell_angle_gamma                 89.985387
_cell_volume                      1565.98626296

loop_
_atom_site_label
_atom_site_type_symbol
_atom_type_description
_atom_site_fract_x
_atom_site_fract_y
_atom_site_fract_z
_atom_type_partial_charge
C1    C     C_R   0.259866 0.500018 0.499951 0.839905
C2    C     C_R   0.127425 0.500045 0.500015 -0.013068
C3    C     C_R   0.580051 0.071834 0.554253 -0.072016
C4    C     C_R   0.419959 0.928154 0.445739 -0.071977
C5    C     C_R   0.419945 0.072038 0.445749 -0.070958
C6    C     C_R   0.580045 0.927949 0.554260 -0.070845
C7    C     C_R   0.499528 0.500328 0.326870 0.878563
C8    C     C_R   0.500481 0.500229 0.673127 0.878835
C9    C     C_R   0.615072 0.522577 0.813468 0.040628
C10   C     C_R   0.384959 0.522430 0.186451 0.040861
C11   C     C_R   0.501094 0.504805 0.769320 -0.159133
C12   C     C_R   0.740135 0.499990 0.500111 0.839858
C13   C     C_R   0.498960 0.505074 0.230669 -0.159254
C14   C     C_R   0.387031 0.518513 0.813341 0.022543
C15   C     C_R   0.613016 0.518936 0.186647 0.023382
C16   C     C_R   0.385637 0.554560 0.904952 0.100461
C17   C     C_R   0.614374 0.554821 0.094956 0.100061
C18   C     C_R   0.500380 0.555558 0.952763 -0.094566
C19   C     C_R   0.499636 0.555605 0.047135 -0.094623
C20   C     C_R   0.615824 0.550190 0.906518 0.101149
C21   C     C_R   0.384194 0.550098 0.093378 0.101149
C22   C     C_R   0.274501 0.591020 0.950878 0.125905
C23   C     C_R   0.272669 0.578939 0.045837 0.055206
C24   C     C_R   0.725468 0.591308 0.048955 0.125352
C25   C     C_3   0.163353 0.654640 0.901401 -0.397671
C26   C     C_3   0.200153 0.784078 0.850861 -0.841666
C27   C     C_3   0.836530 0.655125 0.098301 -0.398238
C28   C     C_3   0.799549 0.784709 0.148458 -0.837292
C29   C     C_R   0.727319 0.579123 0.954020 0.055598
C30   C     C_R   0.063833 0.382604 0.473912 -0.190044
C31   C     C_R   0.936165 0.617420 0.526316 -0.189749
C32   C     C_R   0.935983 0.382568 0.474002 -0.193637
C33   C     C_R   0.064028 0.617449 0.526242 -0.194077
C34   C     C_R   0.872578 0.499985 0.500165 -0.013273
H1    H     H_    0.112619 0.291708 0.452756 0.148438
H2    H     H_    0.732835 0.581679 0.713309 0.185001
H3    H     H_    0.269822 0.410728 0.266289 0.178923
H4    H     H_    0.266875 0.580752 0.286546 0.188675
H5    H     H_    0.280043 0.385636 0.742564 0.195930
H6    H     H_    0.263447 0.550389 0.710791 0.188877
H7    H     H_    0.720219 0.386275 0.257674 0.192060
H8    H     H_    0.736495 0.551079 0.289168 0.191946
H9    H     H_    0.239974 0.859246 0.898808 0.255594
H10   H     H_    0.269504 0.763270 0.797392 0.267707
H11   H     H_    0.116316 0.829269 0.818564 0.241695
H12   H     H_    0.887364 0.708299 0.547485 0.148589
H13   H     H_    0.116734 0.581473 0.855958 0.233638
H14   H     H_    0.088869 0.686014 0.947932 0.178182
H15   H     H_    0.759908 0.859775 0.100245 0.254256
H16   H     H_    0.729982 0.764062 0.201835 0.268510
H17   H     H_    0.883272 0.829939 0.180806 0.242828
H18   H     H_    0.883181 0.582139 0.143959 0.233856
H19   H     H_    0.911046 0.686370 0.051732 0.177997
H20   H     H_    0.132268 0.700095 0.091207 0.183607
H21   H     H_    0.090120 0.534761 0.067461 0.172255
H22   H     H_    0.867706 0.700167 0.908432 0.183140
H23   H     H_    0.887046 0.291648 0.452914 0.154085
H24   H     H_    0.909880 0.534852 0.932533 0.172510
H25   H     H_    0.112979 0.708340 0.547373 0.154532
H26   H     H_    0.644048 0.126266 0.597635 0.126952
H27   H     H_    0.355981 0.873711 0.402344 0.127882
H28   H     H_    0.355933 0.126633 0.402375 0.122332
H29   H     H_    0.644037 0.873343 0.597647 0.123360
H30   H     H_    0.730552 0.411574 0.733572 0.182571
N1    N     N_R   0.500000 0.857200 0.500000 -0.080572
N2    N     N_R   0.500000 0.142800 0.500000 -0.080244
N3    N     N_3   0.729255 0.507518 0.763798 -0.426966
N4    N     N_3   0.270779 0.506760 0.236054 -0.427143
N5    N     N_3   0.273848 0.485464 0.766189 -0.467828
N6    N     N_3   0.726236 0.486089 0.233878 -0.468939
N7    N     N_3   0.158789 0.598079 0.094623 -0.440727
N8    N     N_3   0.841216 0.598150 0.905227 -0.441212
O1    O     O_R   0.316770 0.614620 0.499990 -0.630192
O2    O     O_R   0.683230 0.385380 0.500010 -0.627474
O3    O     O_R   0.683230 0.614620 0.500010 -0.628753
O4    O     O_R   0.316770 0.385380 0.499990 -0.626005
O5    O     O_R   0.499980 0.614680 0.367850 -0.615774
O6    O     O_R   0.500020 0.385320 0.632150 -0.617760
O7    O     O_R   0.500020 0.614680 0.632150 -0.618351
O8    O     O_R   0.499980 0.385320 0.367850 -0.620355
Zn1   Zn    Zn3+2 0.500000 0.653120 0.500000 0.937640
Zn2   Zn    Zn3+2 0.500000 0.346880 0.500000 0.937354

loop_
_geom_bond_atom_site_label_1
_geom_bond_atom_site_label_2
_ccdc_geom_bond_type
C12   O2    A    
C24   C27   S    
C3    C6    A    
H2    N3    S    
C26   H10   S    
C30   H1    S    
C19   C21   A    
C18   C19   A    
C4    N1    A    
C28   H17   S    
H3    N4    S    
H8    N6    S    
C1    C2    S    
C24   C29   A    
C26   H11   S    
C28   H16   S    
C6    N1    A    
H20   N7    S    
H22   N8    S    
C22   C25   S    
C8    O7    A    
C31   C33   A    
C25   H13   S    
C7    O5    A    
C29   N8    S    
C3    H26   S    
C33   H25   S    
C8    O6    A    
C32   H23   S    
O2    Zn2   S    
O1    Zn1   S    
C26   H9    S    
C20   C29   A    
C10   C21   A    
C17   C24   A    
H6    N5    S    
H30   N3    S    
C23   N7    S    
O8    Zn2   S    
O4    Zn2   S    
C11   C14   A    
O7    Zn1   S    
O3    Zn1   S    
C25   C26   S    
C4    H27   S    
C31   H12   S    
C32   C34   A    
C6    H29   S    
C9    N3    S    
N2    Zn2   S    
C28   H15   S    
O6    Zn2   S    
C9    C20   A    
N1    Zn1   S    
O5    Zn1   S    
H5    N5    S    
C31   C34   A    
C9    C11   A    
C25   H14   S    
C2    C33   A    
H4    N4    S    
C13   C15   A    
C14   N5    S    
C14   C16   A    
C3    N2    A    
C12   C34   S    
C27   H18   S    
C15   C17   A    
C15   N6    S    
C16   C22   A    
C1    O4    A    
C5    N2    A    
C10   C13   A    
C27   H19   S    
C10   N4    S    
C2    C30   A    
C1    O1    A    
C21   C23   A    
C30   C32   A    
H24   N8    S    
C8    C11   S    
C4    C5    A    
C17   C19   A    
C5    H28   S    
C18   C20   A    
C7    C13   S    
C16   C18   A    
C12   O3    A    
C27   C28   S    
C22   C23   A    
H7    N6    S    
H21   N7    S    
C7    O8    A    
