data_mof_unit_44036.cif
_audit_creation_date              2013-03-05T16:23:19-0500
_audit_creation_method            fapswitch 2.2
_symmetry_space_group_name_H-M    P1
_symmetry_Int_Tables_number       1
_space_group_crystal_system       triclinic
_cell_length_a                    27.729344
_cell_length_b                    10.49279
_cell_length_c                    9.747567
_cell_angle_alpha                 90.572454
_cell_angle_beta                  89.251998
_cell_angle_gamma                 90.260037
_cell_volume                      2835.72359904

loop_
_atom_site_label
_atom_site_type_symbol
_atom_site_description
_atom_site_fract_x
_atom_site_fract_y
_atom_site_fract_z
_atom_type_partial_charge
O1    O     O_R   0.500000 0.313960 0.616610 -0.608430
O2    O     O_R   0.500000 0.686040 0.383390 -0.608420
O3    O     O_R   0.500020 0.313950 0.383350 -0.626344
O4    O     O_R   0.499980 0.686050 0.616650 -0.626342
C1    C     C_R   0.499783 0.257725 0.499233 0.947611
C2    C     C_R   0.500217 0.742275 0.500767 0.947624
O5    O     O_R   0.428750 0.500030 0.616610 -0.631802
O6    O     O_R   0.571250 0.499970 0.383390 -0.631904
O7    O     O_R   0.428770 0.500020 0.383360 -0.616384
O8    O     O_R   0.571230 0.499980 0.616640 -0.616289
C3    C     C_R   0.406106 0.499881 0.500913 0.903390
C4    C     C_R   0.593894 0.500110 0.499086 0.903367
Zn1   Zn    Zn3+2 0.499990 0.500010 0.655740 0.976242
Zn2   Zn    Zn3+2 0.500010 0.499990 0.344260 0.976191
C5    C     C_R   0.177753 0.380720 0.498020 0.549367
C6    C     C_R   0.822255 0.619284 0.501893 0.549321
O9    O     O_2   0.203305 0.273947 0.471862 -0.465800
O10   O     O_2   0.796704 0.726074 0.527987 -0.465921
N1    N     N_R   0.201696 0.493477 0.515394 -0.367823
N2    N     N_R   0.798309 0.506524 0.484546 -0.367759
C7    C     C_R   0.178101 0.605610 0.536490 0.529263
C8    C     C_R   0.821907 0.394388 0.463473 0.529220
C9    C     C_R   0.277413 0.492843 0.384944 -0.079078
C10   C     C_R   0.722586 0.508384 0.614992 -0.078846
C11   C     C_R   0.327536 0.495091 0.381050 -0.157761
C12   C     C_R   0.672463 0.506112 0.618909 -0.158604
C13   C     C_R   0.328517 0.500275 0.630415 -0.187197
C14   C     C_R   0.671480 0.498459 0.369592 -0.186790
C15   C     C_R   0.278471 0.498208 0.633864 -0.079850
C16   C     C_R   0.721526 0.500531 0.366121 -0.079754
C17   C     C_R   0.253011 0.494373 0.511304 0.296870
C18   C     C_R   0.746990 0.505621 0.488645 0.296613
C19   C     C_R   0.101783 0.493782 0.516945 -0.087246
C20   C     C_R   0.898225 0.506220 0.482991 -0.087259
C21   C     C_R   0.126951 0.377068 0.504234 -0.148128
C22   C     C_R   0.873058 0.622933 0.495689 -0.148088
C23   C     C_R   0.100553 0.262032 0.495850 0.356942
C24   C     C_R   0.899457 0.737970 0.504064 0.356947
C25   C     C_R   0.127813 0.608208 0.536216 -0.028474
C26   C     C_R   0.872195 0.391793 0.463733 -0.028425
C27   C     C_R   0.353417 0.498667 0.503920 -0.024288
C28   C     C_R   0.646582 0.501302 0.496073 -0.024124
H1    H     H_    0.347599 0.503106 0.726644 0.159912
H2    H     H_    0.652397 0.494620 0.273392 0.160031
H3    H     H_    0.259381 0.499575 0.731502 0.146910
H4    H     H_    0.740612 0.498197 0.268492 0.147051
C29   C     C_R   0.973834 0.384911 0.477511 0.071563
C30   C     C_R   0.026175 0.615089 0.522428 0.071560
C31   C     C_R   0.975270 0.618470 0.509917 -0.004174
C32   C     C_R   0.024739 0.381531 0.490014 -0.004173
C33   C     C_R   0.949300 0.503282 0.490142 0.080171
C34   C     C_R   0.050708 0.496719 0.509793 0.080178
C35   C     C_R   0.946430 0.273643 0.450215 -0.185065
C36   C     C_R   0.053578 0.726356 0.549737 -0.185053
C37   C     C_R   0.896654 0.277137 0.444918 -0.074305
C38   C     C_R   0.103355 0.722862 0.555040 -0.074308
O11   O     O_2   0.796578 0.285517 0.444610 -0.495993
O12   O     O_2   0.203434 0.714464 0.555416 -0.495888
C39   C     C_R   0.050510 0.265677 0.487984 -0.268093
C40   C     C_R   0.949499 0.734324 0.511934 -0.268102
H5    H     H_    0.654085 0.508342 0.717629 0.164501
H6    H     H_    0.345914 0.493861 0.282317 0.164611
H7    H     H_    0.742529 0.511934 0.709743 0.146863
H8    H     H_    0.257468 0.490267 0.290173 0.146704
H9    H     H_    0.877354 0.188782 0.426032 0.237607
H10   H     H_    0.122654 0.811216 0.573937 0.237593
H11   H     H_    0.962091 0.181523 0.430658 0.164884
H12   H     H_    0.037916 0.818473 0.569302 0.164882
H13   H     H_    0.032776 0.174313 0.486079 0.173037
H14   H     H_    0.967235 0.825688 0.513832 0.173034
C41   C     C_3   0.538599 0.043205 0.561598 0.376949
C42   C     C_3   0.461400 0.956795 0.438401 0.377017
C43   C     C_3   0.540176 0.957418 0.433356 -0.275556
C44   C     C_3   0.459823 0.042582 0.566643 -0.275507
H15   H     H_    0.573121 0.919056 0.382194 0.185370
H16   H     H_    0.426878 0.080944 0.617805 0.185356
C45   C     C_3   0.500483 0.876936 0.502449 -0.154486
C46   C     C_3   0.499516 0.123063 0.497550 -0.154489
C47   C     C_3   0.499919 0.961232 0.632555 -0.220575
C48   C     C_3   0.500081 0.038768 0.367444 -0.220578
H17   H     H_    0.500719 0.926503 0.739732 0.187214
H18   H     H_    0.499281 0.073497 0.260267 0.187213
C49   C     C_3   0.488751 0.388723 0.047827 -0.065513
C50   C     C_3   0.511249 0.611277 0.952173 -0.065464
C51   C     C_3   0.530774 0.419023 0.949224 -0.057815
C52   C     C_3   0.469226 0.580976 0.050776 -0.057749
H19   H     H_    0.556639 0.350898 0.901283 0.168173
H20   H     H_    0.443360 0.649101 0.098718 0.168086
H21   H     H_    0.479264 0.295055 0.093034 0.140443
H22   H     H_    0.520736 0.704945 0.906966 0.140417
N3    N     N_3   0.499960 0.500030 0.863290 -0.086232
N4    N     N_3   0.500040 0.499970 0.136710 -0.086227
C53   C     C_3   0.457933 0.469735 0.952716 -0.081045
C54   C     C_3   0.542067 0.530265 0.047284 -0.081170
H23   H     H_    0.422531 0.444158 0.907971 0.131728
H24   H     H_    0.577469 0.555840 0.092030 0.131818
N5    N     N_R   0.581038 0.096615 0.627764 0.212889
O13   O     O_R   0.588757 0.075356 0.756803 -0.390599
O14   O     O_R   0.611252 0.166464 0.557993 -0.380466
N6    N     N_R   0.418962 0.903384 0.372234 0.212863
O15   O     O_R   0.411243 0.924641 0.243195 -0.390627
O16   O     O_R   0.388748 0.833534 0.442005 -0.380533
N7    N     N_R   0.123259 0.139638 0.503094 0.244006
O17   O     O_R   0.147123 0.109786 0.612185 -0.322268
O18   O     O_R   0.111649 0.050027 0.416220 -0.381100
N8    N     N_R   0.876752 0.860365 0.496812 0.244012
O19   O     O_R   0.852901 0.890228 0.387701 -0.322232
O20   O     O_R   0.888355 0.949968 0.583704 -0.381099

loop_
_geom_bond_atom_site_label_1
_geom_bond_atom_site_label_2
_geom_bond_distance
_ccdc_geom_bond_type
C13   C15   1.387793 A    
N1    C17   1.422974 S    
C8    O11   1.350546 S    
C41   C47   1.533879 S    
N5    O13   1.300284 A    
C51   N3    1.481122 S    
C19   C34   1.419389 A    
C5    N1    1.364213 A    
C49   N4    1.481464 S    
C41   N5    1.456548 S    
C20   C33   1.419394 A    
C19   C25   1.410327 A    
C31   C40   1.412747 A    
C44   H16   1.110273 S    
C20   C26   1.410312 A    
C32   C39   1.412753 A    
N1    C7    1.361375 A    
C12   H5    1.083088 S    
C50   C52   1.535001 S    
C30   C34   1.422340 A    
C42   N6    1.456548 S    
C46   C48   1.538877 S    
C36   H12   1.075733 S    
N8    O19   1.301407 A    
C49   C53   1.534721 S    
O4    Zn1   1.992652 S    
C4    C28   1.460918 S    
C37   H9    1.083720 S    
C31   C33   1.416899 A    
C32   C34   1.416901 A    
C50   N3    1.481466 S    
C20   C22   1.415838 A    
C6    N2    1.364257 A    
C29   C35   1.415041 A    
C45   C47   1.538877 S    
C53   H23   1.110150 S    
Zn1   N3    2.023094 S    
C43   H15   1.110274 S    
O2    C2    1.282152 A    
C50   H22   1.110245 S    
C35   H11   1.075730 S    
C5    C21   1.409584 A    
N5    O14   1.300435 A    
O5    C3    1.297911 A    
C29   C32   1.419038 A    
C35   C37   1.382563 A    
C49   H21   1.110246 S    
C36   C38   1.382572 A    
C51   H19   1.110410 S    
C42   C44   1.533376 S    
C11   C27   1.404350 A    
C23   N7    1.435636 S    
C2    C45   1.412889 S    
C29   C33   1.422343 A    
C14   H2    1.083019 S    
C15   H3    1.082988 S    
C9    C17   1.397539 A    
C24   N8    1.435631 S    
C30   C36   1.415044 A    
O7    Zn2   2.006976 S    
C10   C18   1.397589 A    
C42   C45   1.517493 S    
C52   C53   1.535033 S    
N3    C53   1.481427 S    
C51   C54   1.535033 S    
C13   C27   1.405275 A    
C25   C38   1.393089 A    
C7    C25   1.394882 A    
C40   H14   1.075566 S    
O6    C4    1.297899 A    
C26   C37   1.393095 A    
C8    C26   1.394876 A    
N4    C54   1.481425 S    
N7    O18   1.301267 A    
C6    O10   1.348711 S    
C50   C54   1.534723 S    
C54   H24   1.110153 S    
O7    C3    1.299685 A    
Zn2   N4    2.023095 S    
C23   C39   1.391482 A    
O3    Zn2   1.992654 S    
O8    C4    1.299684 A    
C39   H13   1.075562 S    
C24   C40   1.391479 A    
C48   H18   1.110405 S    
C9    H8    1.082916 S    
C49   C51   1.534999 S    
N2    C8    1.361417 A    
C10   H7    1.082905 S    
C44   C47   1.554271 S    
O1    C1    1.282154 A    
O4    C2    1.279507 A    
O1    Zn1   1.985354 S    
C22   C24   1.411061 A    
C12   C28   1.404328 A    
C47   H17   1.110405 S    
N6    O16   1.300437 A    
N2    C18   1.423081 S    
C5    O9    1.348708 S    
C30   C31   1.419037 A    
O6    Zn2   2.016812 S    
C21   C23   1.411048 A    
C16   H4    1.082982 S    
C10   C12   1.390015 A    
O3    C1    1.279505 A    
O8    Zn1   2.006979 S    
C14   C16   1.387793 A    
C7    O12   1.350538 S    
C15   C17   1.395731 A    
C52   N4    1.481123 S    
C6    C22   1.409597 A    
C16   C18   1.395784 A    
N8    O20   1.301267 A    
C38   H10   1.083721 S    
C14   C28   1.405254 A    
N6    O15   1.300284 A    
C19   C21   1.415845 A    
C43   C48   1.554269 S    
C3    C27   1.460932 S    
C52   H20   1.110410 S    
C11   H6    1.083098 S    
C9    C11   1.390000 A    
O2    Zn2   1.985352 S    
C13   H1    1.083027 S    
O5    Zn1   2.016806 S    
C42   C48   1.533881 S    
C44   C46   1.536796 S    
C41   C43   1.533374 S    
N7    O17   1.301408 A    
C43   C45   1.536798 S    
C1    C46   1.412891 S    
C41   C46   1.517493 S    
