data_mof_unit_68425.cif
_audit_creation_date              2012-10-26T21:06:57-0400
_audit_creation_method            fapswitch 2.2
_symmetry_space_group_name_H-M    P1
_symmetry_Int_Tables_number       1
_space_group_crystal_system       triclinic
_cell_length_a                    10.729487
_cell_length_b                    8.703918
_cell_length_c                    7.490958
_cell_angle_alpha                 103.374348
_cell_angle_beta                  94.529717
_cell_angle_gamma                 93.104445
_cell_volume                      676.576966313

loop_
_atom_site_label
_atom_site_type_symbol
_atom_type_description
_atom_site_fract_x
_atom_site_fract_y
_atom_site_fract_z
_atom_type_partial_charge
C1    C     C_R   0.500719 0.200284 0.453712 0.583769
C2    C     C_3   0.066387 0.343588 0.543555 -0.074921
C3    C     C_3   0.919840 0.336424 0.518732 -0.066570
C4    C     C_3   0.084386 0.645376 0.645891 0.218685
C5    C     C_3   0.060978 0.515605 0.308423 -0.252004
C6    C     C_3   0.121664 0.500253 0.500070 -0.000976
C7    C     C_2   0.604334 0.056129 0.753000 0.629474
C8    C     C_2   0.353522 0.374565 0.941695 0.820256
C9    C     C_2   0.120247 0.191155 0.445806 0.570500
C10   C     C_2   0.860618 0.198291 0.365372 0.604121
C11   C     C_3   0.877061 0.500375 0.494536 -0.058464
C12   C     C_3   0.941528 0.633756 0.656205 -0.212765
C13   C     C_3   0.920004 0.535005 0.313602 -0.265755
C14   C     C_2   0.500718 0.032500 0.432176 -0.105736
C15   C     C_2   0.534964 0.968164 0.574028 0.046790
C16   C     C_R   0.260224 0.503075 0.501526 0.586732
C17   C     C_R   0.510397 0.800297 0.547213 0.514002
C18   C     C_R   0.739722 0.502636 0.498311 0.540593
Cu1   Cu    Cu3+1 0.514070 0.517380 0.684380 1.097190
Cu2   Cu    Cu3+1 0.485930 0.482620 0.315620 1.064612
F1    F     F_    0.144044 0.655764 0.819510 -0.598326
H1    H     H_    0.093277 0.353714 0.692283 0.170180
H2    H     H_    0.075279 0.409665 0.198854 0.253175
H3    H     H_    0.867993 0.456968 0.188514 0.205033
H4    H     H_    0.620759 0.097287 0.030541 0.346398
H5    H     H_    0.266671 0.166045 0.800236 0.338679
H6    H     H_    0.212857 0.074933 0.237211 0.355293
H7    H     H_    0.850628 0.079888 0.098228 0.350357
H8    H     H_    0.900805 0.658412 0.308150 0.144950
H9    H     H_    0.112373 0.756365 0.604665 0.171735
H10   H     H_    0.904340 0.749899 0.651403 0.131811
H11   H     H_    0.460823 0.959799 0.299597 0.140101
H12   H     H_    0.609126 0.607791 0.047374 0.223236
H13   H     H_    0.886445 0.317821 0.649944 0.158249
H14   H     H_    0.920843 0.608748 0.790519 0.182661
H15   H     H_    0.105643 0.620029 0.269211 0.174875
N1    N     N_2   0.464720 0.456420 0.038520 -0.138866
N2    N     N_2   0.535280 0.543580 0.961480 -0.257503
O1    O     O_R   0.509140 0.286130 0.619770 -0.458888
O2    O     O_R   0.566884 0.031007 0.919275 -0.643499
O3    O     O_2   0.254529 0.436150 0.961703 -0.472537
O4    O     O_R   0.353755 0.215704 0.849911 -0.666099
O5    O     O_2   0.105206 0.072320 0.504836 -0.538972
O6    O     O_R   0.183046 0.183685 0.287782 -0.658816
O7    O     O_2   0.787505 0.100056 0.402009 -0.513525
O8    O     O_R   0.893224 0.179154 0.184833 -0.684701
O9    O     O_R   0.485380 0.256770 0.308360 -0.487335
O10   O     O_R   0.329570 0.514650 0.655700 -0.444908
O11   O     O_R   0.305810 0.485300 0.344290 -0.480250
O12   O     O_R   0.514620 0.743230 0.691640 -0.462824
O13   O     O_R   0.490860 0.713870 0.380230 -0.537900
O14   O     O_R   0.694190 0.514700 0.655710 -0.516323
O15   O     O_R   0.670430 0.485350 0.344300 -0.529758
O16   O     O_2   0.695810 0.146625 0.754348 -0.495239

loop_
_geom_bond_atom_site_label_1
_geom_bond_atom_site_label_2
_ccdc_geom_bond_type
C17   O12   A    
C10   O8    S    
C7    O2    S    
C11   C18   S    
C2    H1    S    
N1    N2    D    
Cu2   N1    S    
Cu1   N2    S    
C4    C12   S    
Cu2   O11   S    
C5    C13   S    
H12   N2    S    
C7    O16   D    
C11   C12   S    
H7    O8    S    
C16   O10   A    
C10   O7    D    
C7    C15   S    
C2    C3    S    
C18   O14   A    
C12   H10   S    
C3    C10   S    
C8    O3    D    
C12   H14   S    
C4    F1    S    
C11   C13   S    
Cu1   O12   S    
C17   O13   A    
C2    C6    S    
Cu1   O1    S    
Cu1   O14   S    
C13   H8    S    
C8    O4    S    
Cu2   O13   S    
H4    O2    S    
C5    C6    S    
C9    O5    D    
Cu2   O9    S    
C3    C11   S    
C8    N1    S    
C1    O1    A    
C6    C16   S    
C5    H15   S    
C16   O11   A    
H5    O4    S    
C4    C6    S    
C15   C17   S    
C14   C15   D    
C1    O9    A    
C9    O6    S    
C1    C14   S    
C18   O15   A    
C3    H13   S    
Cu1   O10   S    
C2    C9    S    
H6    O6    S    
C4    H9    S    
Cu1   Cu2   S    
C13   H3    S    
C14   H11   S    
Cu2   O15   S    
C5    H2    S    
