data_mof_unit_18366.cif
_audit_creation_date              2013-03-05T16:48:17-0500
_audit_creation_method            fapswitch 2.2
_symmetry_space_group_name_H-M    P1
_symmetry_Int_Tables_number       1
_space_group_crystal_system       triclinic
_cell_length_a                    23.481662
_cell_length_b                    8.943927
_cell_length_c                    8.111154
_cell_angle_alpha                 92.118034
_cell_angle_beta                  90.110606
_cell_angle_gamma                 89.972693
_cell_volume                      1702.32341836

loop_
_atom_site_label
_atom_site_type_symbol
_atom_site_description
_atom_site_fract_x
_atom_site_fract_y
_atom_site_fract_z
_atom_type_partial_charge
O1    O     O_R   0.500000 0.285350 0.636850 -0.611504
O2    O     O_R   0.500000 0.714650 0.363150 -0.612042
O3    O     O_R   0.500000 0.714650 0.636850 -0.618426
O4    O     O_R   0.500000 0.285350 0.363150 -0.618043
C1    C     C_R   0.500004 0.217934 0.498068 0.938199
C2    C     C_R   0.500001 0.782066 0.501932 0.936531
O5    O     O_R   0.416160 0.500000 0.636910 -0.613712
O6    O     O_R   0.583840 0.500000 0.363090 -0.620371
O7    O     O_R   0.583840 0.500000 0.636910 -0.621029
O8    O     O_R   0.416160 0.500000 0.363090 -0.613935
C3    C     C_R   0.208354 0.504315 0.505441 -0.016719
C4    C     C_R   0.791666 0.500486 0.505401 0.001843
C5    C     C_R   0.389187 0.500472 0.499934 0.933558
C6    C     C_R   0.610816 0.500132 0.500215 0.919365
Zn1   Zn    Zn3+2 0.500000 0.500000 0.682780 1.015484
Zn2   Zn    Zn3+2 0.500000 0.500000 0.317220 1.015266
C7    C     C_R   0.298666 0.567529 0.635514 -0.232498
C8    C     C_R   0.702541 0.437339 0.367811 -0.266074
C9    C     C_R   0.297096 0.439765 0.367259 -0.247430
C10   C     C_R   0.701712 0.564239 0.636559 -0.267742
H1    H     H_    0.322684 0.618172 0.737159 0.216640
H2    H     H_    0.679386 0.386867 0.264448 0.185466
H3    H     H_    0.319909 0.388417 0.263883 0.211389
H4    H     H_    0.677937 0.614720 0.738480 0.185542
C11   C     C_R   0.327340 0.502776 0.500529 -0.187833
C12   C     C_R   0.672673 0.500775 0.501254 -0.155688
C13   C     C_R   0.881303 0.633874 0.508624 0.703325
C14   C     C_R   0.119003 0.369984 0.509977 0.703415
C15   C     C_R   0.881485 0.367723 0.508513 0.702932
C16   C     C_R   0.118342 0.636160 0.510253 0.713665
N1    N     N_R   0.852725 0.500667 0.507478 -0.358061
N2    N     N_R   0.147325 0.503502 0.508889 -0.346515
C17   C     C_R   0.940579 0.365515 0.484827 -0.143778
C18   C     C_R   0.059424 0.637616 0.536723 -0.142819
C19   C     C_R   0.940229 0.636537 0.535670 -0.144158
C20   C     C_R   0.059905 0.366587 0.485915 -0.155562
C21   C     C_R   0.970241 0.501213 0.510803 -0.107432
C22   C     C_R   0.029829 0.501744 0.511360 -0.105712
C23   C     C_R   0.970542 0.235557 0.431559 0.393782
C24   C     C_R   0.029530 0.767273 0.591051 0.388641
C25   C     C_R   0.969728 0.766763 0.590461 0.389382
C26   C     C_R   0.030364 0.236093 0.432085 0.370891
C27   C     C_1   0.500005 0.065056 0.497246 -0.167323
C28   C     C_1   0.500004 0.934943 0.502755 -0.167301
C29   C     C_R   0.239521 0.569902 0.640007 0.446815
C30   C     C_R   0.761777 0.435232 0.368004 0.423733
C31   C     C_R   0.237825 0.438847 0.367770 0.426333
C32   C     C_R   0.760886 0.565925 0.640598 0.423607
N3    N     N_1   0.500000 0.500000 0.073640 -0.023712
N4    N     N_1   0.500000 0.500000 0.926360 -0.023736
O9    O     O_2   0.852903 0.761552 0.480782 -0.399094
O10   O     O_2   0.147888 0.242720 0.536200 -0.397172
O11   O     O_2   0.853085 0.239927 0.535133 -0.398851
O12   O     O_2   0.146319 0.764444 0.482880 -0.408630
Cl1   Cl    Cl    0.934438 0.082565 0.333954 -0.311884
Cl2   Cl    Cl    0.065771 0.919673 0.689408 -0.320848
Cl3   Cl    Cl    0.933033 0.918734 0.687844 -0.309605
Cl4   Cl    Cl    0.066980 0.083710 0.335158 -0.342614
S1    S     S_3+6 0.207185 0.657277 0.816343 0.119708
O13   O     O_2   0.195209 0.818282 0.782592 -0.168983
O14   O     O_2   0.152490 0.579944 0.857110 -0.250777
O15   O     O_3   0.251689 0.653234 0.978847 -0.519844
H5    H     H_    0.230520 0.702823 0.071301 0.412061
S2    S     S_3+6 0.796024 0.347793 0.194654 0.135196
O16   O     O_2   0.850815 0.426308 0.157681 -0.194519
O17   O     O_2   0.808793 0.187540 0.230277 -0.195472
O18   O     O_3   0.753595 0.349490 0.027257 -0.472073
H6    H     H_    0.730883 0.256314 0.029896 0.354654
S3    S     S_3+6 0.202932 0.351189 0.195350 0.104725
O19   O     O_2   0.239739 0.357468 0.044479 -0.222896
O20   O     O_2   0.192992 0.189496 0.230305 -0.181951
O21   O     O_3   0.140264 0.434973 0.158792 -0.524955
H7    H     H_    0.117988 0.360386 0.092423 0.413838
S4    S     S_3+6 0.793885 0.652733 0.816707 0.134064
O22   O     O_2   0.848566 0.574655 0.856731 -0.191175
O23   O     O_2   0.806577 0.813398 0.783093 -0.196294
O24   O     O_3   0.750361 0.649385 0.981183 -0.477639
H8    H     H_    0.727730 0.742746 0.978340 0.354381

loop_
_geom_bond_atom_site_label_1
_geom_bond_atom_site_label_2
_geom_bond_distance
_ccdc_geom_bond_type
C20   C26   1.412790 A    
C8    C12   1.393734 A    
C4    C32   1.422215 A    
O3    C2    1.268826 A    
C26   Cl4   1.771204 S    
O24   H8    0.990526 S    
C16   O12   1.348110 S    
C21   C22   1.399231 A    
S4    O23   1.502582 D    
C18   C24   1.412222 A    
C19   C21   1.408510 A    
C7    C29   1.389505 A    
C9    C31   1.391825 A    
C15   C17   1.401261 A    
Zn1   N4    1.975715 S    
S3    O20   1.502382 D    
C31   S3    1.776792 S    
C3    C31   1.422313 A    
C23   Cl1   1.770968 S    
C10   H4    1.083004 S    
C24   Cl2   1.771070 S    
S4    O24   1.683285 S    
O1    Zn1   1.942063 S    
O2    Zn2   1.942062 S    
C4    N1    1.433848 S    
O5    Zn1   2.002848 S    
C1    C27   1.367098 S    
S1    O13   1.502046 D    
O6    Zn2   2.002845 S    
C2    C28   1.367091 S    
C5    C11   1.452424 S    
O2    C2    1.257201 A    
C9    C11   1.393857 A    
C8    C30   1.391075 A    
C13   O9    1.348147 S    
C23   C26   1.404716 A    
S1    O14   1.502193 D    
S4    O22   1.502003 D    
C16   C18   1.400441 A    
C13   N1    1.367381 A    
O18   H6    0.990527 S    
S2    O18   1.683072 S    
C32   S4    1.777084 S    
C14   N2    1.367476 A    
Zn2   N3    1.975715 S    
C4    C30   1.422849 A    
O4    C1    1.268827 A    
C13   C19   1.400629 A    
C17   C21   1.408487 A    
C30   S2    1.777031 S    
C18   C22   1.408484 A    
O4    Zn2   1.969097 S    
S3    O21   1.681848 S    
C9    H3    1.083521 S    
O7    C6    1.278036 A    
O15   H5    0.991357 S    
C17   C23   1.412799 A    
C6    C12   1.452531 S    
C10   C32   1.389903 A    
C24   C25   1.404254 A    
C3    N2    1.433412 S    
C27   C28   1.166231 T    
O1    C1    1.257199 A    
C3    C29   1.421640 A    
O3    Zn1   1.969096 S    
C29   S1    1.775946 S    
S1    O15   1.681940 S    
O6    C6    1.278870 A    
C8    H2    1.082958 S    
O21   H7    0.990526 S    
C10   C12   1.393938 A    
O8    C5    1.278894 A    
C7    C11   1.393957 A    
S2    O16   1.502088 D    
C20   C22   1.408535 A    
O7    Zn1   2.004257 S    
C25   Cl3   1.770874 S    
C15   N1    1.367445 A    
O8    Zn2   2.004259 S    
C16   N2    1.367232 A    
C14   O10   1.348132 S    
C15   O11   1.348079 S    
S3    O19   1.502302 D    
C19   C25   1.412534 A    
C7    H1    1.083425 S    
O5    C5    1.277969 A    
C14   C20   1.401186 A    
N3    N4    1.194610 T    
S2    O17   1.502527 D    
