data_mof_unit_16820.cif
_audit_creation_date              2012-12-10T16:51:13-0500
_audit_creation_method            fapswitch 2.2
_symmetry_space_group_name_H-M    P1
_symmetry_Int_Tables_number       1
_space_group_crystal_system       triclinic
_cell_length_a                    27.762072
_cell_length_b                    8.646727
_cell_length_c                    7.613083
_cell_angle_alpha                 102.259506
_cell_angle_beta                  96.414814
_cell_angle_gamma                 95.735474
_cell_volume                      1760.22435067

loop_
_atom_site_label
_atom_site_type_symbol
_atom_type_description
_atom_site_fract_x
_atom_site_fract_y
_atom_site_fract_z
_atom_type_partial_charge
C1    C     C_R   0.496928 0.200136 0.454487 0.852643
C2    C     C_R   0.503075 0.799864 0.545514 0.850824
C3    C     C_R   0.101470 0.499341 0.485063 -0.043425
C4    C     C_R   0.898010 0.489002 0.513319 -0.043973
C5    C     C_R   0.120022 0.365997 0.387788 -0.030150
C6    C     C_R   0.880020 0.615765 0.625305 -0.028161
C7    C     C_R   0.087875 0.231297 0.296199 -0.131544
C8    C     C_R   0.912728 0.742514 0.732553 -0.127939
C9    C     C_R   0.134135 0.635242 0.576149 -0.030887
C10   C     C_R   0.864802 0.360417 0.407538 -0.033934
C11   C     C_R   0.354684 0.500839 0.495668 -0.100899
C12   C     C_R   0.645184 0.497066 0.504226 -0.067717
C13   C     C_R   0.966660 0.360086 0.396730 0.037427
C14   C     C_R   0.032567 0.630414 0.595377 0.038069
C15   C     C_R   0.981848 0.624359 0.609804 0.045742
C16   C     C_R   0.017841 0.360263 0.394755 0.045291
C17   C     C_R   0.949057 0.491043 0.506758 0.073097
C18   C     C_R   0.050406 0.496703 0.491589 0.073919
C19   C     C_R   0.932140 0.233416 0.291435 -0.200343
C20   C     C_R   0.066297 0.766839 0.679992 -0.204646
C21   C     C_R   0.882330 0.233807 0.297250 -0.102084
C22   C     C_R   0.116011 0.768743 0.670664 -0.108508
C23   C     C_R   0.407711 0.500223 0.498709 0.815183
C24   C     C_R   0.592256 0.499426 0.501262 0.814390
C25   C     C_R   0.037868 0.228033 0.299566 -0.202678
C26   C     C_R   0.962606 0.746864 0.725554 -0.201348
C27   C     C_2   0.489726 0.031484 0.435053 -0.243514
C28   C     C_2   0.510291 0.968517 0.564943 -0.241218
C29   C     C_R   0.170670 0.369622 0.387035 0.636025
C30   C     C_R   0.829416 0.613173 0.626385 0.627787
C31   C     C_R   0.184482 0.634022 0.571347 0.614849
C32   C     C_R   0.814485 0.362868 0.412248 0.616797
C33   C     C_R   0.276981 0.549444 0.352577 -0.080337
C34   C     C_R   0.721967 0.435670 0.640348 -0.104946
C35   C     C_R   0.327183 0.548424 0.355025 -0.135857
C36   C     C_R   0.671825 0.438519 0.637895 -0.209703
C37   C     C_R   0.331171 0.453390 0.633174 -0.270919
C38   C     C_R   0.669412 0.553338 0.373495 -0.262140
C39   C     C_R   0.280517 0.448921 0.628379 0.414672
C40   C     C_R   0.719996 0.555395 0.378083 0.404896
C41   C     C_R   0.253388 0.499062 0.487484 0.217372
C42   C     C_R   0.746288 0.494203 0.511845 0.239046
Cu1   Cu    Cu3+1 0.505380 0.517380 0.684380 1.145371
Cu2   Cu    Cu3+1 0.494620 0.482620 0.315620 1.149089
H1    H     H_    0.352156 0.417437 0.742552 0.224902
H2    H     H_    0.649037 0.598105 0.269924 0.217033
H3    H     H_    0.101267 0.126638 0.221848 0.186100
H4    H     H_    0.899892 0.839994 0.822341 0.184180
H5    H     H_    0.653733 0.392619 0.738634 0.167779
H6    H     H_    0.344597 0.587160 0.248549 0.192638
H7    H     H_    0.742080 0.387644 0.742120 0.202425
H8    H     H_    0.256222 0.589518 0.245688 0.211510
H9    H     H_    0.857498 0.134198 0.213354 0.213544
H10   H     H_    0.140290 0.875793 0.739044 0.213087
H11   H     H_    0.942137 0.132677 0.199545 0.140620
H12   H     H_    0.055480 0.876073 0.752444 0.145219
H13   H     H_    0.016069 0.117986 0.228374 0.136776
H14   H     H_    0.985168 0.847296 0.815635 0.135051
H15   H     H_    0.465074 0.959768 0.319418 0.191183
H16   H     H_    0.534942 0.040232 0.680588 0.191761
N1    N     N_R   0.201677 0.501097 0.481185 -0.457573
N2    N     N_R   0.797891 0.489705 0.517574 -0.461749
N3    N     N_2   0.486510 0.456430 0.038510 0.082979
N4    N     N_2   0.513490 0.543570 0.961490 0.078695
O1    O     O_R   0.503500 0.286120 0.619780 -0.544659
O2    O     O_R   0.496500 0.713880 0.380220 -0.545046
O3    O     O_R   0.494410 0.256780 0.308360 -0.520195
O4    O     O_R   0.505590 0.743220 0.691640 -0.520829
O5    O     O_R   0.434810 0.514700 0.655690 -0.557759
O6    O     O_R   0.565190 0.485300 0.344310 -0.560377
O7    O     O_R   0.425720 0.485350 0.344280 -0.557397
O8    O     O_R   0.574280 0.514650 0.655720 -0.563507
O9    O     O_2   0.188889 0.242410 0.294747 -0.476653
O10   O     O_2   0.811754 0.733930 0.733110 -0.469585
O11   O     O_2   0.782319 0.240382 0.311249 -0.472077
O12   O     O_2   0.216108 0.763678 0.657884 -0.491035
S1    S     S_3+6 0.454619 0.270547 0.932971 0.135569
O13   O     O_2   0.425859 0.260855 0.751941 -0.317225
O14   O     O_2   0.489928 0.149640 0.917742 -0.289478
O15   O     O_3   0.413963 0.221166 0.066157 -0.499058
H17   H     H_    0.402720 0.106120 0.016623 0.358115
S2    S     S_3+6 0.545259 0.729627 0.066926 0.138134
O16   O     O_2   0.509869 0.850286 0.081646 -0.289268
O17   O     O_2   0.573920 0.739635 0.248183 -0.307313
O18   O     O_3   0.585985 0.779036 0.934001 -0.497898
H18   H     H_    0.596968 0.894330 0.982814 0.368937
S3    S     S_3+6 0.251702 0.377617 0.796797 0.029442
O19   O     O_2   0.225236 0.505273 0.895422 -0.274272
O20   O     O_2   0.215177 0.234128 0.708984 -0.256754
O21   O     O_3   0.292882 0.327038 0.947266 -0.509512
H19   H     H_    0.301744 0.223547 0.883865 0.374842
S4    S     S_3+6 0.749767 0.637602 0.218653 0.049723
O22   O     O_2   0.790000 0.766144 0.317353 -0.221512
O23   O     O_2   0.771762 0.509844 0.098772 -0.303778
O24   O     O_3   0.710506 0.717715 0.089796 -0.458717
H20   H     H_    0.689957 0.625462 0.006116 0.347361

loop_
_geom_bond_atom_site_label_1
_geom_bond_atom_site_label_2
_ccdc_geom_bond_type
C38   C40   A    
S3    O19   D    
Cu1   O8    S    
C8    C26   A    
C14   C18   A    
Cu2   O2    S    
O24   H20   S    
C34   C42   A    
C41   N1    S    
C20   H12   S    
C32   O11   S    
C31   O12   S    
C24   O6    A    
C39   C41   A    
O18   H18   S    
C33   H8    S    
C34   H7    S    
Cu2   O7    S    
C19   C21   A    
C2    O4    A    
C30   O10   S    
C9    C22   A    
C29   O9    S    
C3    C18   A    
C11   C37   A    
C31   N1    A    
C33   C35   A    
Cu1   O4    S    
C1    O1    A    
Cu2   O6    S    
C39   S3    S    
C12   C36   A    
C42   N2    S    
C40   C42   A    
Cu2   N3    S    
C22   H10   S    
C25   H13   S    
Cu1   N4    S    
C5    C29   A    
C28   H16   S    
C10   C21   A    
C29   N1    A    
C13   C19   A    
C14   C20   A    
C4    C6    A    
C5    C7    A    
C15   C26   A    
C6    C8    A    
C3    C5    A    
S1    O13   D    
C23   O5    A    
S4    O24   S    
C7    H3    S    
Cu1   Cu2   S    
C8    H4    S    
C3    C9    A    
C23   O7    A    
Cu1   O1    S    
C35   H6    S    
S4    O23   D    
S1    O14   D    
C40   S4    S    
C26   H14   S    
N4    S2    S    
C4    C17   A    
C6    C30   A    
C20   C22   A    
S2    O17   D    
C30   N2    A    
C13   C16   A    
C4    C10   A    
C24   O8    A    
N3    S1    S    
S1    O15   S    
C19   H11   S    
C16   C25   A    
C15   C17   A    
O15   H17   S    
C2    O2    A    
S2    O18   S    
C12   C24   S    
C7    C25   A    
C13   C17   A    
C33   C41   A    
C11   C35   A    
C32   N2    A    
C37   C39   A    
C27   H15   S    
C21   H9    S    
O21   H19   S    
C11   C23   S    
S4    O22   D    
C1    O3    A    
C34   C36   A    
C12   C38   A    
C38   H2    S    
C9    C31   A    
N3    N4    D    
C10   C32   A    
C16   C18   A    
S2    O16   D    
S3    O21   S    
C27   C28   D    
C1    C27   S    
S3    O20   D    
C14   C15   A    
Cu2   O3    S    
C2    C28   S    
Cu1   O5    S    
C37   H1    S    
C36   H5    S    
