data_mof_unit_57344.cif
_audit_creation_date              2012-12-10T20:27:58-0500
_audit_creation_method            fapswitch 2.2
_symmetry_space_group_name_H-M    P1
_symmetry_Int_Tables_number       1
_space_group_crystal_system       triclinic
_cell_length_a                    12.89693
_cell_length_b                    10.683977
_cell_length_c                    9.85007
_cell_angle_alpha                 90.588727
_cell_angle_beta                  96.846682
_cell_angle_gamma                 89.858486
_cell_volume                      1347.49498988

loop_
_atom_site_label
_atom_site_type_symbol
_atom_type_description
_atom_site_fract_x
_atom_site_fract_y
_atom_site_fract_z
_atom_type_partial_charge
C1    C     C_R   0.499429 0.259823 0.499381 0.939208
C2    C     C_R   0.453452 0.933989 0.375513 -0.142196
C3    C     C_R   0.475973 0.871083 0.499975 -0.101574
C4    C     C_R   0.298165 0.500055 0.473596 0.877549
C5    C     C_R   0.481716 0.937945 0.623144 0.030049
C6    C     C_3   0.554325 0.926152 0.753166 0.233680
C7    C     C_3   0.572576 0.066883 0.745911 0.207425
C8    C     C_R   0.412120 0.467464 0.057236 0.213357
C9    C     C_R   0.583817 0.542223 0.085456 -0.115928
C10   C     C_R   0.583892 0.542048 0.941489 -0.013653
C11   C     C_R   0.412062 0.467664 0.914600 0.259208
C12   C     C_R   0.028947 0.502792 0.565531 0.173526
C13   C     C_3   0.356687 0.345221 0.898345 -0.486798
C14   C     C_3   0.357337 0.344501 0.052588 -0.489436
C15   C     C_R   0.494686 0.739931 0.500050 0.882672
C16   C     C_R   0.701829 0.499860 0.526419 0.938978
C17   C     C_R   0.813842 0.499333 0.541929 -0.045354
C18   C     C_R   0.186154 0.499436 0.458193 -0.050524
C19   C     C_R   0.021093 0.489165 0.316532 -0.190838
C20   C     C_R   0.128989 0.491639 0.328251 -0.190446
C21   C     C_R   0.136100 0.505515 0.576194 -0.251695
C22   C     C_R   0.971069 0.494599 0.434718 0.180582
C23   C     C_R   0.863908 0.492547 0.423992 -0.259693
C24   C     C_R   0.870997 0.506588 0.671928 -0.129598
C25   C     C_R   0.978915 0.508267 0.683713 -0.194624
C26   C     C_R   0.493682 0.064608 0.620906 -0.068798
C27   C     C_R   0.487303 0.128038 0.497635 -0.034374
C28   C     C_R   0.458417 0.063358 0.374495 -0.161307
H1    H     H_    0.819819 0.486220 0.323237 0.161970
H2    H     H_    0.180176 0.512412 0.676891 0.164363
H3    H     H_    0.438898 0.883863 0.279093 0.182452
H4    H     H_    0.547345 0.123411 0.831317 0.138259
H5    H     H_    0.795496 0.068587 0.546033 0.390546
H6    H     H_    0.277038 0.354447 0.842335 0.202669
H7    H     H_    0.406870 0.269127 0.103081 0.228517
H8    H     H_    0.977002 0.483014 0.215862 0.147249
H9    H     H_    0.445691 0.111209 0.277637 0.173765
H10   H     H_    0.536882 0.813189 0.096436 0.370931
H11   H     H_    0.623419 0.865986 0.742207 0.135584
H12   H     H_    0.651964 0.575095 0.150454 0.156409
H13   H     H_    0.652022 0.574643 0.898178 0.143013
H14   H     H_    0.405169 0.269910 0.859405 0.228782
H15   H     H_    0.278042 0.352520 0.085317 0.200821
H16   H     H_    0.832545 0.511625 0.763794 0.166840
H17   H     H_    0.023014 0.514277 0.784389 0.145011
H18   H     H_    0.167393 0.487084 0.236358 0.161189
N1    N     N_R   0.499290 0.499140 0.142710 -0.117999
N2    N     N_R   0.499290 0.499180 0.857070 -0.103838
O1    O     O_R   0.500010 0.316790 0.614690 -0.612131
O2    O     O_2   0.779287 0.048711 0.823469 -0.267174
O3    O     O_3   0.724948 0.039143 0.560649 -0.570866
O4    O     O_2   0.411963 0.986340 0.926047 -0.320926
O5    O     O_2   0.425326 0.765967 0.860857 -0.305608
O6    O     O_3   0.574419 0.861208 0.032113 -0.548987
O7    O     O_R   0.500000 0.316760 0.385350 -0.630317
O8    O     O_R   0.346360 0.499990 0.595720 -0.621352
O9    O     O_R   0.346350 0.499960 0.366370 -0.631205
O10   O     O_R   0.500000 0.683240 0.614650 -0.587723
O11   O     O_R   0.499990 0.683210 0.385310 -0.627144
O12   O     O_R   0.653650 0.500040 0.633630 -0.611682
O13   O     O_R   0.653640 0.500010 0.404280 -0.634508
O14   O     O_2   0.716888 0.241539 0.708607 -0.309293
S1    S     S_3+6 0.702900 0.102166 0.711787 0.007649
S2    S     S_3+6 0.486169 0.884159 0.894693 0.003463
Zn1   Zn    Zn3+2 0.500010 0.500020 0.653130 1.016712
Zn2   Zn    Zn3+2 0.499990 0.499980 0.346870 0.965162

loop_
_geom_bond_atom_site_label_1
_geom_bond_atom_site_label_2
_ccdc_geom_bond_type
C4    O9    A    
C2    C28   A    
C6    C7    S    
C12   C22   A    
N2    Zn1   S    
H5    O3    S    
C18   C21   A    
C21   H2    S    
C12   C25   A    
N1    Zn2   S    
C19   C20   A    
H10   O6    S    
O9    Zn2   S    
C4    C18   S    
C19   C22   A    
C2    C3    A    
C1    O7    A    
C8    N1    A    
O3    S1    S    
C13   H6    S    
C17   C23   A    
C13   C14   S    
C4    O8    A    
C10   H13   S    
C10   N2    A    
O2    S1    D    
C11   C13   S    
C7    S1    S    
C11   N2    A    
O14   S1    D    
C7    C26   S    
O1    Zn1   S    
C28   H9    S    
C8    C11   A    
C16   O12   A    
C23   H1    S    
C9    C10   A    
C13   H14   S    
O5    S2    D    
O12   Zn1   S    
C9    N1    A    
C18   C20   A    
C19   H8    S    
C2    H3    S    
O11   Zn2   S    
C26   C27   A    
C5    C6    S    
C24   H16   S    
C15   O10   A    
C17   C24   A    
C16   O13   A    
O13   Zn2   S    
O8    Zn1   S    
C25   H17   S    
C27   C28   A    
O7    Zn2   S    
C3    C15   S    
C24   C25   A    
O6    S2    S    
O4    S2    D    
C6    S2    S    
C14   H7    S    
C1    C27   S    
C6    H11   S    
C14   H15   S    
C8    C14   S    
C7    H4    S    
O10   Zn1   S    
C22   C23   A    
C15   O11   A    
C12   C21   A    
C9    H12   S    
C20   H18   S    
C5    C26   A    
C16   C17   S    
C3    C5    A    
C1    O1    A    
