data_mof_unit_5910.cif
_audit_creation_date              2013-03-05T16:45:22-0500
_audit_creation_method            fapswitch 2.2
_symmetry_space_group_name_H-M    P1
_symmetry_Int_Tables_number       1
_space_group_crystal_system       triclinic
_cell_length_a                    8.911541
_cell_length_b                    10.692558
_cell_length_c                    9.945586
_cell_angle_alpha                 89.408335
_cell_angle_beta                  90.649644
_cell_angle_gamma                 91.559456
_cell_volume                      947.227263895

loop_
_atom_site_label
_atom_site_type_symbol
_atom_site_description
_atom_site_fract_x
_atom_site_fract_y
_atom_site_fract_z
_atom_type_partial_charge
O1    O     O_R   0.500020 0.316790 0.614690 -0.631679
O2    O     O_R   0.500000 0.316760 0.385350 -0.638871
C1    C     C_R   0.499759 0.260217 0.500615 0.863905
O3    O     O_R   0.285350 0.500020 0.614650 -0.555463
O4    O     O_R   0.285340 0.499980 0.385310 -0.644703
C2    C     C_R   0.218954 0.499665 0.499508 0.923447
Zn1   Zn    Zn3+2 0.500010 0.500020 0.653130 1.057941
Zn2   Zn    Zn3+2 0.499990 0.499980 0.346870 0.953436
O5    O     O_R   0.500000 0.683240 0.614650 -0.571385
O6    O     O_R   0.499980 0.683210 0.385310 -0.617118
O7    O     O_R   0.714660 0.500020 0.614690 -0.553782
O8    O     O_R   0.714650 0.499980 0.385350 -0.642872
C3    C     C_R   0.501397 0.739294 0.499015 0.899305
C4    C     C_R   0.781057 0.500150 0.500492 0.934470
C5    C     C_1   0.065443 0.499736 0.499276 -0.109165
C6    C     C_1   0.934573 0.499905 0.500683 -0.103706
C7    C     C_R   0.402469 0.058961 0.585081 0.084396
C8    C     C_R   0.496952 0.127646 0.499328 -0.072899
C9    C     C_R   0.576444 0.067212 0.399268 -0.220354
H1    H     H_    0.646063 0.119464 0.328834 0.165324
C10   C     C_R   0.574203 0.938053 0.395781 -0.164186
H2    H     H_    0.641147 0.891400 0.322137 0.169868
C11   C     C_R   0.495203 0.870622 0.494575 -0.110600
C12   C     C_R   0.402876 0.930825 0.582783 0.071889
C13   C     C_3   0.391654 0.918002 0.731745 0.121630
C14   C     C_3   0.389555 0.059562 0.735088 -0.546161
H3    H     H_    0.492383 0.878062 0.781338 0.167131
H4    H     H_    0.280041 0.095283 0.767096 0.261466
H5    H     H_    0.490696 0.101417 0.785422 0.198663
C15   C     C_R   0.377143 0.456993 0.068999 0.128096
N1    N     N_R   0.499010 0.499140 0.142800 -0.133730
C16   C     C_R   0.614765 0.553343 0.073926 -0.172295
H6    H     H_    0.707204 0.595768 0.130036 0.192314
C17   C     C_R   0.615944 0.554543 0.930635 0.320866
N2    N     N_R   0.499010 0.499180 0.857150 -0.184741
C18   C     C_R   0.375398 0.461905 0.927292 0.111926
C19   C     C_3   0.293532 0.340216 0.911705 0.069272
C20   C     C_3   0.301831 0.327842 0.065812 0.211774
H7    H     H_    0.359752 0.274917 0.853864 0.102145
N3    N     N_2   0.154502 0.325475 0.128690 -0.280415
H8    H     H_    0.148645 0.374686 0.216711 0.245065
C21   C     C_3   0.072657 0.206525 0.134318 -0.660069
H9    H     H_    0.950860 0.223606 0.143275 0.237169
H10   H     H_    0.109432 0.151547 0.223582 0.209649
H11   H     H_    0.090539 0.150992 0.042479 0.287590
N4    N     N_2   0.395435 0.224838 0.111990 -0.298515
H12   H     H_    0.374347 0.192125 0.207787 0.267149
C22   C     C_3   0.552434 0.220347 0.074754 -0.778951
H13   H     H_    0.589304 0.122185 0.082020 0.246764
H14   H     H_    0.622951 0.277958 0.144210 0.258309
H15   H     H_    0.571886 0.253454 0.970439 0.229700
N5    N     N_R   0.250155 0.857194 0.773092 0.244850
O9    O     O_R   0.122862 0.888303 0.718398 -0.331285
O10   O     O_R   0.251848 0.767591 0.862482 -0.332437
N6    N     N_R   0.741052 0.615989 0.866204 0.235565
O11   O     O_R   0.717769 0.706121 0.780817 -0.359304
O12   O     O_R   0.873023 0.610911 0.922746 -0.311237
N7    N     N_R   0.141723 0.354365 0.856111 0.237467
O13   O     O_R   0.067784 0.256720 0.810928 -0.406696
O14   O     O_R   0.087527 0.464577 0.834749 -0.275923

loop_
_geom_bond_atom_site_label_1
_geom_bond_atom_site_label_2
_geom_bond_distance
_ccdc_geom_bond_type
O4    Zn2   1.954938 S    
Zn1   O7    1.954939 S    
C11   C12   1.384855 A    
C19   C20   1.538137 S    
C13   H3    1.112614 S    
C19   N7    1.466724 S    
C14   H4    1.108844 S    
C9    H1    1.081980 S    
C15   C18   1.409719 A    
Zn2   O8    1.946598 S    
C16   H6    1.081785 S    
N6    O11   1.297320 A    
C22   H14   1.108798 S    
C7    C8    1.394775 A    
C13   C14   1.514970 S    
C13   N5    1.464074 S    
C17   N6    1.432803 S    
C19   H7    1.097767 S    
C10   H2    1.083902 S    
N5    O9    1.302366 A    
C20   N3    1.460130 S    
Zn2   N1    2.029627 S    
C15   C20   1.519366 S    
C15   N1    1.372372 A    
C21   H10   1.110967 S    
C1    C8    1.417255 S    
O3    Zn1   1.946598 S    
C22   H13   1.109737 S    
C7    C14   1.497728 S    
N3    C21   1.449746 S    
N3    H8    1.028592 S    
C9    C10   1.381435 A    
N5    O10   1.300545 A    
C8    C9    1.401389 A    
C4    C6    1.368119 S    
N6    O12   1.300063 A    
C10   C11   1.397970 A    
O4    C2    1.286476 A    
O7    C4    1.286558 A    
N4    C22   1.453518 S    
C20   N4    1.466508 S    
C7    C12   1.370622 A    
C21   H9    1.110271 S    
N7    O14   1.300230 A    
C5    C6    1.166542 T    
Zn1   N2    2.029145 S    
C12   C13   1.490676 S    
C3    C11   1.407035 S    
C14   H5    1.111629 S    
Zn2   O6    2.000023 S    
C17   N2    1.388732 A    
Zn1   O5    1.992240 S    
O5    C3    1.291403 A    
N4    H12   1.029078 S    
C18   C19   1.482984 S    
O2    C1    1.290498 A    
N2    C18   1.358952 A    
C2    C5    1.368022 S    
O1    Zn1   2.000023 S    
N7    O13   1.300661 A    
O3    C2    1.283000 A    
O6    C3    1.285261 A    
C22   H15   1.106736 S    
O2    Zn2   1.992242 S    
N1    C16   1.358125 A    
O8    C4    1.283050 A    
O1    C1    1.291179 A    
C21   H11   1.109909 S    
C16   C17   1.425196 A    
