data_mof_unit_9819.cif
_audit_creation_date              2012-12-10T17:15:08-0500
_audit_creation_method            fapswitch 2.2
_symmetry_space_group_name_H-M    P1
_symmetry_Int_Tables_number       1
_space_group_crystal_system       triclinic
_cell_length_a                    10.176048
_cell_length_b                    10.901182
_cell_length_c                    13.029573
_cell_angle_alpha                 88.493011
_cell_angle_beta                  94.221525
_cell_angle_gamma                 96.301217
_cell_volume                      1432.51100649

loop_
_atom_site_label
_atom_site_type_symbol
_atom_type_description
_atom_site_fract_x
_atom_site_fract_y
_atom_site_fract_z
_atom_type_partial_charge
C1    C     C_R   0.444054 0.267908 0.492840 0.871514
C2    C     C_R   0.600738 0.377337 0.057182 0.214453
C3    C     C_R   0.388242 0.590580 0.840158 -0.298414
C4    C     C_R   0.607248 0.407268 0.159352 -0.303445
C5    C     C_R   0.544420 0.438409 0.876914 -0.100704
C6    C     C_R   0.446572 0.555567 0.122842 -0.098785
C7    C     C_R   0.533770 0.451076 0.983112 0.034959
C8    C     C_R   0.456283 0.542431 0.016703 0.032296
C9    C     C_2   0.411834 0.138181 0.474197 -0.173268
C10   C     C_2   0.587615 0.863752 0.523473 -0.182174
C11   C     C_2   0.496407 0.062801 0.517476 -0.223324
C12   C     C_R   0.555808 0.732495 0.507615 0.870383
C13   C     C_2   0.496011 0.936465 0.486630 -0.207191
C14   C     C_R   0.338916 0.620865 0.160020 0.221756
C15   C     C_R   0.206631 0.568466 0.144366 -0.109609
C16   C     C_R   0.103827 0.630946 0.174933 -0.181848
C17   C     C_R   0.132408 0.745587 0.221536 -0.143549
C18   C     C_R   0.263948 0.797183 0.238650 -0.128191
C19   C     C_R   0.367298 0.734959 0.208726 -0.096851
C20   C     C_R   0.646252 0.366043 0.840140 0.223570
C21   C     C_R   0.610099 0.249755 0.796531 -0.114174
C22   C     C_R   0.707998 0.174133 0.778664 -0.122980
C23   C     C_2   0.067725 0.476853 0.494473 0.170108
C24   C     C_R   0.841522 0.215398 0.802135 -0.123693
C25   C     C_R   0.878187 0.333754 0.839964 -0.195042
C26   C     C_R   0.780929 0.409361 0.858590 -0.112414
C27   C     C_3   0.421082 0.835161 0.971437 -0.814045
C28   C     C_3   0.558887 0.157827 0.034684 -0.814802
C29   C     C_R   0.710665 0.906612 0.587048 0.121896
C30   C     C_R   0.741759 0.845262 0.680731 -0.142490
C31   C     C_R   0.866140 0.871043 0.733086 -0.158896
C32   C     C_R   0.960357 0.958131 0.692566 -0.147122
C33   C     C_R   0.928589 0.022559 0.601645 -0.172207
C34   C     C_2   0.926619 0.508794 0.487716 0.159861
C35   C     C_R   0.804418 0.997148 0.548751 -0.166102
C36   C     C_R   0.303583 0.102512 0.394736 0.135464
C37   C     C_R   0.185363 0.035779 0.422369 -0.167768
C38   C     C_R   0.075259 0.021638 0.351051 -0.186269
C39   C     C_R   0.083749 0.070812 0.251294 -0.123143
C40   C     C_R   0.202151 0.135246 0.222675 -0.139380
C41   C     C_R   0.311361 0.152157 0.294323 -0.138073
C42   C     C_3   0.910034 0.727285 0.458264 -0.726294
C43   C     C_3   0.125732 0.350788 0.645145 -0.735966
C44   C     C_R   0.476652 0.500217 0.697926 0.867714
C45   C     C_R   0.522980 0.500014 0.301971 0.878848
C46   C     C_R   0.529755 0.493028 0.192627 -0.135611
C47   C     C_R   0.466864 0.505548 0.806980 -0.139778
C48   C     C_R   0.389135 0.616297 0.942950 0.213658
H1    H     H_    0.662030 0.352402 0.214599 0.165015
H2    H     H_    0.286101 0.885800 0.274238 0.149631
H3    H     H_    0.468760 0.776170 0.221754 0.093893
H4    H     H_    0.506603 0.215551 0.781714 0.091885
H5    H     H_    0.680108 0.082313 0.749682 0.141311
H6    H     H_    0.917046 0.155690 0.792184 0.141242
H7    H     H_    0.981760 0.365646 0.857382 0.131717
H8    H     H_    0.809889 0.499247 0.891729 0.110583
H9    H     H_    0.242466 0.734182 0.927854 0.220484
H10   H     H_    0.371136 0.911627 0.000364 0.245078
H11   H     H_    0.451619 0.860033 0.892712 0.233787
H12   H     H_    0.335276 0.646881 0.784886 0.166954
H13   H     H_    0.510490 0.823539 0.023567 0.244980
H14   H     H_    0.742146 0.254079 0.072079 0.221982
H15   H     H_    0.604130 0.077982 0.006645 0.245967
H16   H     H_    0.468500 0.170776 0.984069 0.243806
H17   H     H_    0.530810 0.137257 0.114673 0.232082
H18   H     H_    0.670911 0.775092 0.711764 0.129565
H19   H     H_    0.890095 0.822205 0.804232 0.130316
H20   H     H_    0.057256 0.977309 0.732491 0.124815
H21   H     H_    0.001222 0.090749 0.571426 0.140085
H22   H     H_    0.783351 0.044405 0.476232 0.138374
H23   H     H_    0.412341 0.898340 0.436590 0.179828
H24   H     H_    0.177574 0.998378 0.499726 0.137629
H25   H     H_    0.982781 0.973590 0.373038 0.135883
H26   H     H_    0.998474 0.059188 0.196311 0.123143
H27   H     H_    0.208658 0.173931 0.145613 0.127166
H28   H     H_    0.401142 0.206071 0.272360 0.118140
H29   H     H_    0.920472 0.597861 0.345483 0.196419
H30   H     H_    0.838080 0.784414 0.417614 0.231878
H31   H     H_    0.010815 0.771226 0.445165 0.188815
H32   H     H_    0.897316 0.726976 0.542186 0.272123
H33   H     H_    0.033113 0.287261 0.505070 0.194898
H34   H     H_    0.572577 0.098427 0.575122 0.182108
H35   H     H_    0.130059 0.441802 0.682644 0.240871
H36   H     H_    0.048701 0.286540 0.679679 0.191217
H37   H     H_    0.221744 0.312313 0.661344 0.245196
H38   H     H_    0.865876 0.381034 0.592278 0.165834
H39   H     H_    0.140535 0.632319 0.423935 0.160023
H40   H     H_    0.183487 0.480068 0.107428 0.109964
H41   H     H_    0.002029 0.590838 0.161925 0.127319
H42   H     H_    0.052457 0.793960 0.244572 0.139276
N1    N     N_2   0.162330 0.550370 0.457540 -0.195618
N2    N     N_2   0.837670 0.449630 0.542460 -0.203666
N3    N     N_2   0.330719 0.722963 0.969533 -0.295793
N4    N     N_2   0.653299 0.267044 0.031955 -0.291705
N5    N     N_2   0.888276 0.603456 0.418188 -0.254423
N6    N     N_2   0.096755 0.359735 0.534874 -0.253230
O1    O     O_R   0.567930 0.307680 0.508550 -0.620283
O2    O     O_R   0.432070 0.692320 0.491450 -0.620898
O3    O     O_R   0.351090 0.340020 0.481290 -0.572835
O4    O     O_R   0.648910 0.659980 0.518710 -0.585651
O5    O     O_R   0.590490 0.486480 0.665020 -0.612357
O6    O     O_R   0.409510 0.513520 0.334980 -0.608107
O7    O     O_R   0.373660 0.518820 0.637760 -0.610188
O8    O     O_R   0.626340 0.481180 0.362240 -0.600467
Zn1   Zn    Zn3+2 0.644780 0.478400 0.518200 0.957243
Zn2   Zn    Zn3+2 0.355220 0.521600 0.481800 0.963821

loop_
_geom_bond_atom_site_label_1
_geom_bond_atom_site_label_2
_ccdc_geom_bond_type
C42   H32   S    
H39   N1    S    
C43   H35   S    
C2    C7    A    
C1    O3    A    
C7    C8    A    
C5    C20   S    
C4    C46   A    
C45   C46   S    
C31   H19   S    
C5    C47   A    
O4    Zn1   S    
C29   C30   A    
C36   C37   A    
C30   C31   A    
C24   H6    S    
C15   C16   A    
C3    C48   A    
C23   N6    S    
C28   N4    S    
C18   C19   A    
C39   H26   S    
C27   H13   S    
C35   H22   S    
C16   C17   A    
C9    C36   S    
C12   O2    A    
C44   C47   S    
C33   H21   S    
C32   H20   S    
O1    Zn1   S    
C3    H12   S    
C16   H41   S    
H9    N3    S    
C21   C22   A    
C43   H36   S    
N1    Zn2   S    
C36   C41   A    
O8    Zn1   S    
C44   O7    A    
C43   N6    S    
C22   H5    S    
C11   H34   S    
O5    Zn1   S    
C48   N3    S    
C42   N5    S    
C43   H37   S    
C2    N4    S    
C1    C9    S    
C24   C25   A    
C1    O1    A    
C39   C40   A    
C5    C7    A    
H33   N6    S    
C6    C8    A    
C13   H23   S    
C25   C26   A    
C10   C13   D    
C2    C4    A    
C8    C48   A    
C37   C38   A    
C45   O8    A    
C6    C14   S    
C31   C32   A    
C23   C34   S    
C17   C18   A    
C34   N5    S    
C9    C11   D    
C30   H18   S    
C10   C12   S    
C28   H16   S    
C40   C41   A    
C42   H30   S    
H14   N4    S    
C23   N1    D    
C27   N3    S    
C18   H2    S    
O3    Zn2   S    
C6    C46   A    
C14   C19   A    
C17   H42   S    
C25   H7    S    
C27   H10   S    
C26   H8    S    
C44   O5    A    
C29   C35   A    
O2    Zn2   S    
C40   H27   S    
C4    H1    S    
C32   C33   A    
C28   H17   S    
H38   N2    S    
C41   H28   S    
C11   C13   S    
C10   C29   S    
C38   C39   A    
C20   C26   A    
C3    C47   A    
C33   C35   A    
H29   N5    S    
O6    Zn2   S    
O7    Zn2   S    
C22   C24   A    
C34   N2    D    
C12   O4    A    
C45   O6    A    
C28   H15   S    
C19   H3    S    
N2    Zn1   S    
C42   H31   S    
C20   C21   A    
C37   H24   S    
C14   C15   A    
C27   H11   S    
C21   H4    S    
C15   H40   S    
C38   H25   S    
