data_mof_unit_7306.cif
_audit_creation_date              2012-12-10T17:04:28-0500
_audit_creation_method            fapswitch 2.2
_symmetry_space_group_name_H-M    P1
_symmetry_Int_Tables_number       1
_space_group_crystal_system       triclinic
_cell_length_a                    14.982447
_cell_length_b                    10.577721
_cell_length_c                    10.038956
_cell_angle_alpha                 91.663889
_cell_angle_beta                  89.727733
_cell_angle_gamma                 89.884845
_cell_volume                      1590.28274802

loop_
_atom_site_label
_atom_site_type_symbol
_atom_type_description
_atom_site_fract_x
_atom_site_fract_y
_atom_site_fract_z
_atom_type_partial_charge
C1    C     C_R   0.502274 0.261464 0.497579 0.802070
C2    C     C_R   0.186983 0.420619 0.404033 0.606811
C3    C     C_R   0.230886 0.492004 0.502771 -0.381682
C4    C     C_R   0.326738 0.499671 0.500414 0.934345
C5    C     C_R   0.184406 0.548825 0.609377 0.563607
C6    C     C_2   0.438188 0.930214 0.399860 0.339603
C7    C     C_2   0.455205 0.864712 0.510615 0.252390
C8    C     C_2   0.441685 0.068383 0.409262 0.360312
C9    C     C_2   0.504172 0.125316 0.487444 0.248027
C10   C     C_2   0.548031 0.575767 0.928376 0.562288
C11   C     C_2   0.564329 0.546403 0.074504 0.534374
C12   C     C_R   0.906257 0.532383 0.616727 -0.215354
C13   C     C_R   0.488471 0.736615 0.502147 0.874639
C14   C     C_R   0.673303 0.495945 0.499745 0.954157
C15   C     C_R   0.814325 0.541693 0.607769 0.607425
C16   C     C_R   0.769142 0.480811 0.502708 -0.356946
C17   C     C_R   0.814557 0.401338 0.408964 0.433803
C18   C     C_R   0.907808 0.388778 0.419352 -0.123302
C19   C     C_R   0.953609 0.460407 0.518818 -0.157232
C20   C     C_3   0.355728 0.917934 0.674521 -0.324570
C21   C     C_3   0.393464 0.147365 0.212383 -0.144007
C22   C     C_3   0.610716 0.101485 0.653448 -0.193381
C23   C     C_R   0.957093 0.308281 0.331038 0.480492
C24   C     C_3   0.562376 0.790617 0.942450 -0.199603
C25   C     C_3   0.390599 0.361774 0.871162 0.035318
C26   C     C_3   0.717547 0.537539 0.054883 -0.156117
C27   C     C_3   0.713551 0.254780 0.322467 -0.174959
C28   C     C_3   0.905764 0.107368 0.330882 -0.282452
C29   C     C_3   0.131239 0.143334 0.259520 -0.128728
C30   C     C_3   0.341737 0.823244 0.264453 -0.238087
C31   C     C_R   0.049948 0.319874 0.322573 0.453694
C32   C     C_R   0.094981 0.401570 0.413293 -0.168620
C33   C     C_R   0.047026 0.464673 0.517404 -0.176118
C34   C     C_R   0.092235 0.537635 0.616525 -0.200936
C35   C     C_R   0.044275 0.599529 0.719585 0.600154
C36   C     C_R   0.952010 0.597436 0.719368 0.576975
F1    F     F_    0.768660 0.618255 0.695767 -0.587790
F2    F     F_    0.418190 0.517895 0.101964 -0.595191
F3    F     F_    0.234916 0.367942 0.301441 -0.604044
F4    F     F_    0.229178 0.618930 0.703016 -0.626671
F5    F     F_    0.086001 0.665907 0.818956 -0.565774
F6    F     F_    0.908001 0.661706 0.818819 -0.581585
H1    H     H_    0.330373 0.819222 0.675934 0.231064
H2    H     H_    0.596364 0.797886 0.040502 0.183666
H3    H     H_    0.488575 0.797133 0.955659 0.163055
H4    H     H_    0.583427 0.873173 0.884388 0.203165
H5    H     H_    0.385641 0.308226 0.775406 0.144414
H6    H     H_    0.347779 0.448038 0.870009 0.210895
H7    H     H_    0.362592 0.300041 0.948153 0.123839
H8    H     H_    0.729064 0.603687 0.972847 0.244953
H9    H     H_    0.709204 0.438861 0.015050 0.146272
H10   H     H_    0.778683 0.539577 0.116728 0.234437
H11   H     H_    0.706388 0.233841 0.429966 0.100990
H12   H     H_    0.314078 0.975835 0.607879 0.157012
H13   H     H_    0.736252 0.167995 0.267993 0.191645
H14   H     H_    0.647228 0.276419 0.280943 0.187243
H15   H     H_    0.859927 0.125470 0.416768 0.151786
H16   H     H_    0.970360 0.072997 0.369858 0.132706
H17   H     H_    0.876859 0.030281 0.267578 0.207551
H18   H     H_    0.142695 0.138845 0.369063 0.115193
H19   H     H_    0.196754 0.129115 0.209547 0.205391
H20   H     H_    0.088100 0.063819 0.225532 0.156640
H21   H     H_    0.290717 0.899377 0.276973 0.145040
H22   H     H_    0.329169 0.748587 0.337905 0.155451
H23   H     H_    0.349199 0.959121 0.777001 0.201380
H24   H     H_    0.333585 0.779627 0.163431 0.230705
H25   H     H_    0.364410 0.066174 0.155523 0.154975
H26   H     H_    0.466092 0.155108 0.189022 0.140624
H27   H     H_    0.361139 0.234275 0.176703 0.243122
H28   H     H_    0.556220 0.111003 0.728889 0.199676
H29   H     H_    0.646887 0.192313 0.643695 0.133927
H30   H     H_    0.659132 0.031511 0.690673 0.200215
N1    N     N_2   0.500970 0.501330 0.852150 0.043872
N2    N     N_2   0.500990 0.501360 0.147810 0.117506
O1    O     O_R   0.499990 0.319060 0.613040 -0.640249
O2    O     O_3   0.374899 0.138219 0.349971 -0.638015
O3    O     O_3   0.578440 0.056682 0.528941 -0.647139
O4    O     O_3   0.587765 0.679348 0.871150 -0.585578
O5    O     O_3   0.480183 0.388585 0.903921 -0.606050
O6    O     O_3   0.644717 0.577090 0.135558 -0.634129
O7    O     O_3   0.772094 0.355440 0.294660 -0.561336
O8    O     O_3   0.915764 0.216038 0.253217 -0.540369
O9    O     O_3   0.094560 0.258849 0.217786 -0.526267
O10   O     O_3   0.429189 0.871906 0.275220 -0.631236
O11   O     O_R   0.500010 0.319100 0.386900 -0.627437
O12   O     O_R   0.367830 0.499950 0.613080 -0.620367
O13   O     O_R   0.367860 0.499990 0.386940 -0.521557
O14   O     O_R   0.499990 0.680900 0.613100 -0.544972
O15   O     O_R   0.500010 0.680940 0.386960 -0.584130
O16   O     O_R   0.632140 0.500010 0.613060 -0.563410
O17   O     O_R   0.632170 0.500050 0.386920 -0.558571
O18   O     O_3   0.446409 0.920739 0.636915 -0.613939
Zn1   Zn    Zn3+2 0.499980 0.499970 0.650990 1.051407
Zn2   Zn    Zn3+2 0.500020 0.500030 0.349010 1.097595

loop_
_geom_bond_atom_site_label_1
_geom_bond_atom_site_label_2
_ccdc_geom_bond_type
C23   O8    S    
C30   H22   S    
N2    Zn2   S    
C36   F6    S    
C35   C36   A    
N1    Zn1   S    
C10   O4    S    
C4    O13   A    
C28   H15   S    
C20   O18   S    
C21   O2    S    
C24   H3    S    
C29   O9    S    
C26   H8    S    
C10   N1    D    
C27   H13   S    
C4    O12   A    
C15   C16   A    
O13   Zn2   S    
C8    O2    S    
C31   O9    S    
C13   O14   A    
C2    C32   A    
C34   C35   A    
O15   Zn2   S    
C14   O16   A    
O14   Zn1   S    
C2    F3    S    
C15   F1    S    
C8    C9    D    
C29   H18   S    
C12   C36   A    
C25   H5    S    
C30   H21   S    
C21   H25   S    
C22   H30   S    
C33   C34   A    
C1    O11   A    
C29   H19   S    
C6    O10   S    
C28   O8    S    
C18   C23   A    
C1    O1    A    
C20   H23   S    
C27   O7    S    
C1    C9    S    
C20   H12   S    
C19   C33   A    
C27   H14   S    
C16   C17   A    
C6    C8    S    
C26   O6    S    
C21   H27   S    
C23   C31   A    
O12   Zn1   S    
C26   H10   S    
O11   Zn2   S    
C31   C32   A    
C12   C15   A    
C5    C34   A    
C17   C18   A    
N1    O5    S    
C9    O3    S    
C25   H6    S    
C30   H24   S    
C24   O4    S    
C21   H26   S    
C24   H2    S    
C14   C16   S    
C3    C4    S    
C22   H29   S    
C20   H1    S    
O1    Zn1   S    
O16   Zn1   S    
F2    N2    S    
C28   H17   S    
C29   H20   S    
C13   O15   A    
C25   O5    S    
C22   O3    S    
C3    C5    A    
C11   N2    D    
C27   H11   S    
C6    C7    D    
C11   O6    S    
C28   H16   S    
C24   H4    S    
C32   C33   A    
C2    C3    A    
C26   H9    S    
O17   Zn2   S    
C7    O18   S    
C12   C19   A    
C17   O7    S    
C30   O10   S    
C35   F5    S    
C25   H7    S    
C14   O17   A    
C10   C11   S    
C7    C13   S    
C5    F4    S    
C18   C19   A    
C22   H28   S    
