data_mof_unit_61156.cif
_audit_creation_date              2012-12-11T15:10:55-0500
_audit_creation_method            fapswitch 2.2
_symmetry_space_group_name_H-M    P1
_symmetry_Int_Tables_number       1
_space_group_crystal_system       triclinic
_cell_length_a                    14.286831
_cell_length_b                    14.181174
_cell_length_c                    28.147413
_cell_angle_alpha                 90.644062
_cell_angle_beta                  88.545573
_cell_angle_gamma                 119.873446
_cell_volume                      4943.43835323

loop_
_atom_site_label
_atom_site_type_symbol
_atom_type_description
_atom_site_fract_x
_atom_site_fract_y
_atom_site_fract_z
_atom_type_partial_charge
Br1   Br    Br    0.292922 0.987159 0.440305 -0.181614
Br2   Br    Br    0.923848 0.284577 0.947204 -0.267256
Br3   Br    Br    0.654746 0.225391 0.920045 -0.307972
Br4   Br    Br    0.594921 0.479827 0.899290 -0.281669
Br5   Br    Br    0.365698 0.777678 0.950897 -0.493454
Br6   Br    Br    0.107590 0.760820 0.948652 -0.305592
Br7   Br    Br    0.296826 0.563284 0.010237 -0.507296
Br8   Br    Br    0.950316 0.288781 0.064138 -0.231418
Br9   Br    Br    0.712035 0.228840 0.031214 -0.309225
Br10  Br    Br    0.580304 0.360609 0.995866 -0.378137
Br11  Br    Br    0.734850 0.010521 0.052751 -0.251901
Br12  Br    Br    0.007972 0.307192 0.431716 -0.191908
Br13  Br    Br    0.768804 0.462797 0.070682 -0.439418
Br14  Br    Br    0.342072 0.241606 0.049905 -0.379969
Br15  Br    Br    0.844014 0.586681 0.941271 -0.296716
Br16  Br    Br    0.634083 0.875191 0.934923 -0.410924
Br17  Br    Br    0.218963 0.327742 0.957090 -0.336660
Br18  Br    Br    0.720171 0.102602 0.576242 -0.155170
Br19  Br    Br    0.900464 0.613596 0.584908 -0.150314
Br20  Br    Br    0.390910 0.281436 0.580163 -0.156452
Br21  Br    Br    0.099495 0.717200 0.418572 -0.155268
Br22  Br    Br    0.609499 0.897875 0.413843 -0.156015
Br23  Br    Br    0.690704 0.702644 0.432038 -0.195869
Br24  Br    Br    0.279349 0.388068 0.424811 -0.159060
Br25  Br    Br    0.753955 0.128155 0.461609 -0.285024
Br26  Br    Br    0.875127 0.634857 0.472344 -0.262122
Br27  Br    Br    0.365881 0.241852 0.466632 -0.274117
Br28  Br    Br    0.125340 0.758281 0.531913 -0.264915
Br29  Br    Br    0.638071 0.876903 0.525900 -0.260526
Br30  Br    Br    0.246082 0.372187 0.539636 -0.284461
Br31  Br    Br    0.375075 0.815021 0.428269 -0.304014
Br32  Br    Br    0.181273 0.563269 0.422701 -0.288197
Br33  Br    Br    0.434331 0.624153 0.432214 -0.316585
Br34  Br    Br    0.990648 0.295498 0.563117 -0.184247
Br35  Br    Br    0.819098 0.378131 0.575989 -0.288554
Br36  Br    Br    0.565501 0.182812 0.574626 -0.295616
Br37  Br    Br    0.626745 0.434975 0.566425 -0.317285
Br38  Br    Br    0.310150 0.005663 0.571439 -0.201241
Br39  Br    Br    0.706825 0.692439 0.562840 -0.185807
Br40  Br    Br    0.353807 0.809006 0.068088 -0.351463
Br41  Br    Br    0.094558 0.756425 0.064622 -0.313810
Br42  Br    Br    0.440179 0.626093 0.103114 -0.345280
C1    C     C_R   0.549732 0.428108 0.182489 0.568591
C2    C     C_3   0.919134 0.511010 0.543198 0.320415
C3    C     C_3   0.595648 0.082669 0.539890 0.319612
C4    C     C_3   0.491795 0.404309 0.539519 0.318640
C5    C     C_1   0.465838 0.912268 0.634766 0.109415
C6    C     C_1   0.089695 0.548927 0.634286 0.107870
C7    C     C_1   0.456684 0.535686 0.636275 0.110757
C8    C     C_1   0.910397 0.462335 0.365643 0.109002
C9    C     C_1   0.545194 0.086432 0.365012 0.110605
C10   C     C_1   0.532832 0.452777 0.363946 0.110799
C11   C     C_3   0.520802 0.032988 0.455622 -0.063957
C12   C     C_R   0.570638 0.115711 0.183540 0.561361
C13   C     C_3   0.965642 0.491380 0.455966 -0.067577
C14   C     C_3   0.506127 0.476531 0.455089 -0.060699
C15   C     C_3   0.035117 0.523917 0.543856 -0.067231
C16   C     C_3   0.494160 0.965804 0.544123 -0.065583
C17   C     C_3   0.480274 0.508378 0.545231 -0.060559
C18   C     C_3   0.390949 0.965242 0.525980 0.028597
C19   C     C_3   0.033983 0.421446 0.521409 0.031564
C20   C     C_3   0.580618 0.610351 0.522825 0.036126
C21   C     C_3   0.966928 0.389211 0.476032 0.030594
C22   C     C_3   0.419839 0.031548 0.479672 0.037022
C23   C     C_R   0.891180 0.456966 0.186275 0.570056
C24   C     C_3   0.609534 0.577714 0.474723 0.032475
C25   C     C_1   0.477027 0.932532 0.593471 0.063307
C26   C     C_1   0.069396 0.537835 0.593008 0.067203
C27   C     C_1   0.469030 0.526379 0.595072 0.070895
C28   C     C_1   0.931101 0.472343 0.406844 0.066447
C29   C     C_1   0.532803 0.066083 0.406321 0.068462
C30   C     C_1   0.522270 0.463470 0.405189 0.069710
C31   C     C_R   0.546535 0.429731 0.316803 0.554725
C32   C     C_R   0.570311 0.119087 0.317356 0.553749
C33   C     C_R   0.878710 0.451392 0.317908 0.551324
C34   C     C_R   0.402232 0.567152 0.820765 0.548647
C35   C     C_R   0.430598 0.546998 0.683299 0.565999
C36   C     C_R   0.120895 0.571584 0.682141 0.559948
C37   C     C_R   0.452541 0.879992 0.682473 0.552572
C38   C     C_3   0.563995 0.129175 0.017707 0.049901
C39   C     C_3   0.016972 0.428347 0.030904 0.068049
C40   C     C_3   0.583332 0.495991 0.006265 0.057122
C41   C     C_3   0.095000 0.629573 0.977717 0.047903
C42   C     C_3   0.407553 0.921688 0.973629 0.039014
C43   C     C_3   0.443074 0.598682 0.997586 0.053370
C44   C     C_3   0.412213 0.939519 0.028994 0.028009
C45   C     C_R   0.112968 0.568331 0.816171 0.551524
C46   C     C_3   0.092908 0.629507 0.033896 0.012478
C47   C     C_3   0.496257 0.592905 0.044296 0.014010
C48   C     C_3   0.019547 0.426448 0.975602 0.020274
C49   C     C_3   0.542400 0.116110 0.962845 0.032632
C50   C     C_3   0.562967 0.537689 0.958313 0.016007
C51   C     C_1   0.480567 0.949428 0.857247 0.120825
C52   C     C_1   0.056243 0.537447 0.862028 0.099948
C53   C     C_1   0.413290 0.556508 0.870475 0.106117
C54   C     C_1   0.952619 0.485466 0.143066 0.129396
C55   C     C_1   0.545924 0.066539 0.136790 0.108463
C56   C     C_R   0.455288 0.889203 0.814176 0.555624
C57   C     C_1   0.536660 0.452931 0.134680 0.121981
C58   C     C_3   0.529858 0.018521 0.042930 -0.038901
C59   C     C_3   0.996580 0.520501 0.050945 -0.051574
C60   C     C_3   0.496511 0.483233 0.045227 -0.031576
C61   C     C_3   0.003948 0.519706 0.955890 -0.056193
C62   C     C_3   0.517197 0.001451 0.948567 -0.035499
C63   C     C_3   0.445876 0.518498 0.959544 -0.033911
C64   C     C_3   0.611698 0.985241 0.967398 0.080851
C65   C     C_3   0.890379 0.498147 0.974661 0.099081
C66   C     C_3   0.369556 0.396925 0.975817 0.091606
C67   C     C_3   0.509325 0.916806 0.457306 0.321204
C68   C     C_3   0.897038 0.521538 0.029314 0.078410
C69   C     C_3   0.598241 0.967255 0.022230 0.089440
C70   C     C_3   0.381303 0.389244 0.030430 0.087184
C71   C     C_1   0.502152 0.983822 0.896979 0.104008
C72   C     C_1   0.022545 0.524239 0.903031 0.098340
C73   C     C_1   0.422705 0.541351 0.911645 0.102834
C74   C     C_1   0.985175 0.508687 0.102815 0.104247
C75   C     C_1   0.536588 0.038143 0.095463 0.100554
C76   C     C_1   0.522482 0.466320 0.093777 0.105408
C77   C     C_3   0.619569 0.115171 0.485774 0.012700
C78   C     C_3   0.081535 0.594364 0.457602 0.320107
C79   C     C_3   0.885903 0.508248 0.489945 0.018971
C80   C     C_3   0.491309 0.377275 0.485166 0.014103
C81   C     C_3   0.114905 0.622163 0.511155 0.016194
C82   C     C_3   0.510161 0.885079 0.510675 0.019383
C83   C     C_3   0.381041 0.494157 0.516731 0.013022
C84   C     C_3   0.404245 0.490360 0.462038 0.318487
Cr1   Cr    Cr6+3 0.748260 0.501860 0.250510 1.134543
Cr2   Cr    Cr6+3 0.498140 0.246400 0.250510 1.133082
Cr3   Cr    Cr6+3 0.753600 0.251740 0.250510 1.142191
Cr4   Cr    Cr6+3 0.501860 0.748260 0.749490 1.140073
Cr5   Cr    Cr6+3 0.246400 0.498140 0.749490 1.126865
Cr6   Cr    Cr6+3 0.251740 0.753600 0.749490 1.129598
H1    H     H_    0.515587 0.162848 0.034317 0.187626
H2    H     H_    0.166474 0.633047 0.046718 0.226027
H3    H     H_    0.361817 0.976935 0.038631 0.169421
H4    H     H_    0.581663 0.660532 0.043058 0.139811
H5    H     H_    0.442368 0.801028 0.517209 0.123367
H6    H     H_    0.198124 0.635965 0.515072 0.129102
H7    H     H_    0.369603 0.565119 0.524072 0.117048
H8    H     H_    0.802695 0.438850 0.485314 0.130075
H9    H     H_    0.631503 0.198341 0.481174 0.124062
H10   H     H_    0.559798 0.362945 0.476815 0.116579
H11   H     H_    0.444007 0.115711 0.489805 0.197206
H12   H     H_    0.098945 0.451473 0.041911 0.177557
H13   H     H_    0.883415 0.329935 0.486759 0.198312
H14   H     H_    0.667824 0.550741 0.481386 0.191123
H15   H     H_    0.117633 0.445494 0.510474 0.199961
H16   H     H_    0.332642 0.880467 0.517206 0.192159
H17   H     H_    0.554889 0.669612 0.515387 0.191740
H18   H     H_    0.553651 0.878167 0.028529 0.218729
H19   H     H_    0.910757 0.605402 0.031330 0.227791
H20   H     H_    0.319480 0.401224 0.049831 0.232910
H21   H     H_    0.828048 0.412833 0.968344 0.263592
H22   H     H_    0.689574 0.060815 0.960220 0.250810
H23   H     H_    0.665439 0.556002 0.018288 0.186098
H24   H     H_    0.396397 0.344911 0.957122 0.226150
H25   H     H_    0.169711 0.631782 0.966560 0.200972
H26   H     H_    0.343820 0.937473 0.960409 0.177192
H27   H     H_    0.487768 0.683197 0.984182 0.208087
H28   H     H_    0.470235 0.124490 0.956503 0.160893
H29   H     H_    0.100451 0.442084 0.963509 0.189462
H30   H     H_    0.620287 0.626861 0.955987 0.164994
O1    O     O_R   0.863770 0.527700 0.199270 -0.475531
O2    O     O_R   0.490970 0.643280 0.797590 -0.455495
O3    O     O_R   0.152310 0.509030 0.797590 -0.500731
O4    O     O_R   0.356720 0.847690 0.797590 -0.487652
O5    O     O_R   0.862920 0.527590 0.302350 -0.479972
O6    O     O_R   0.472410 0.335330 0.302350 -0.475714
O7    O     O_R   0.664670 0.137080 0.302350 -0.473602
O8    O     O_R   0.527590 0.862920 0.697650 -0.478695
O9    O     O_R   0.335330 0.472410 0.697650 -0.470264
O10   O     O_R   0.137080 0.664670 0.697650 -0.471639
O11   O     O_R   0.642490 0.490870 0.297970 -0.491862
O12   O     O_R   0.472300 0.336070 0.199270 -0.475234
O13   O     O_R   0.509130 0.151620 0.297970 -0.491692
O14   O     O_R   0.848380 0.357510 0.297970 -0.492874
O15   O     O_R   0.490870 0.642490 0.702030 -0.486838
O16   O     O_R   0.151620 0.509130 0.702030 -0.487866
O17   O     O_R   0.357510 0.848380 0.702030 -0.489543
O18   O     O_3   0.666667 0.333333 0.250440 -0.347044
O19   O     O_3   0.333333 0.666667 0.749560 -0.370775
O20   O     O_R   0.663930 0.136230 0.199270 -0.464667
O21   O     O_R   0.527700 0.863770 0.800730 -0.472196
O22   O     O_R   0.336070 0.472300 0.800730 -0.462891
O23   O     O_R   0.136230 0.663930 0.800730 -0.463531
O24   O     O_R   0.643280 0.490970 0.202410 -0.478248
O25   O     O_R   0.509030 0.152310 0.202410 -0.485984
O26   O     O_R   0.847690 0.356720 0.202410 -0.474141

loop_
_geom_bond_atom_site_label_1
_geom_bond_atom_site_label_2
_ccdc_geom_bond_type
Cr1   O11   S    
Br15  C65   S    
Cr3   O20   S    
C13   C79   S    
C20   H17   S    
C47   C60   S    
Cr2   O25   S    
C60   C70   S    
C9    C32   S    
C5    C37   S    
C49   C62   S    
C18   H16   S    
C62   C64   S    
C46   C59   S    
C52   C72   T    
Br28  C81   S    
C45   O23   A    
C39   C59   S    
C83   H7    S    
Br14  C70   S    
C81   H6    S    
Cr5   O9    S    
C41   C61   S    
Cr1   O18   S    
C79   H8    S    
Cr3   O7    S    
C42   C44   S    
Br21  C78   S    
Cr4   O21   S    
C34   C53   S    
C4    C17   S    
C1    O12   A    
C16   C18   S    
C45   C52   S    
C2    C79   S    
Cr1   O24   S    
C40   C50   S    
C65   H21   S    
Br3   C49   S    
C6    C36   S    
C56   O21   A    
Br2   C48   S    
C32   O7    A    
Cr5   O16   S    
C23   C54   S    
C53   C73   T    
C14   C30   S    
C13   C21   S    
Cr1   O1    S    
C70   H20   S    
C12   C55   S    
C16   C25   S    
Cr2   O18   S    
Br26  C79   S    
C14   C84   S    
C44   C58   S    
C60   C76   S    
C78   C81   S    
Br16  C64   S    
C64   C69   S    
C3    C77   S    
C41   C46   S    
C23   O26   A    
C47   H4    S    
C7    C27   T    
C38   C58   S    
Br24  C84   S    
C9    C29   T    
Br32  C78   S    
C31   O6    A    
C43   C63   S    
Br25  C77   S    
C5    C25   T    
C63   C66   S    
Br27  C80   S    
C13   C78   S    
C39   H12   S    
Br31  C67   S    
Cr3   O18   S    
C3    C16   S    
C24   H14   S    
C20   C24   S    
C48   H29   S    
Br11  C69   S    
Br8   C39   S    
C82   H5    S    
C61   C72   S    
C10   C31   S    
Br17  C66   S    
Br40  C44   S    
Br12  C21   S    
C42   H26   S    
C1    O24   A    
C64   H22   S    
C59   C68   S    
Br7   C43   S    
C11   C22   S    
Br10  C40   S    
Br34  C19   S    
C35   O15   A    
C38   H1    S    
C66   C70   S    
Br9   C38   S    
C14   C80   S    
Br13  C68   S    
C10   C30   T    
Cr4   O15   S    
Cr6   O19   S    
C15   C81   S    
Cr5   O22   S    
C44   H3    S    
C41   H25   S    
C2    C15   S    
C35   O9    A    
Br22  C67   S    
C23   O1    A    
C12   O20   A    
C40   C60   S    
C37   O8    A    
Br36  C3    S    
Cr3   O14   S    
C51   C71   T    
C6    C26   T    
Cr4   O2    S    
Br29  C82   S    
Br35  C2    S    
C49   H28   S    
C56   O4    A    
C17   C27   S    
Br38  C18   S    
C39   C48   S    
C68   H19   S    
C12   O25   A    
C83   C84   S    
C42   C62   S    
C65   C68   S    
C37   O17   A    
C34   O2    A    
C40   H23   S    
C15   C26   S    
C11   C29   S    
Br18  C3    S    
Br19  C2    S    
Br23  C24   S    
Cr2   O6    S    
C11   C67   S    
Br5   C42   S    
Br41  C46   S    
Br37  C4    S    
C17   C20   S    
C43   C47   S    
Br6   C41   S    
C19   H15   S    
C33   O14   A    
C36   O16   A    
Cr2   O12   S    
C63   C73   S    
C19   C21   S    
C4    C80   S    
C1    C57   S    
Cr2   O13   S    
Cr4   O19   S    
Cr6   O23   S    
C61   C65   S    
C11   C77   S    
C67   C82   S    
C15   C19   S    
C22   H11   S    
C17   C83   S    
C43   H27   S    
C16   C82   S    
C66   H24   S    
C31   O11   A    
C18   C22   S    
Br42  C47   S    
C38   C49   S    
C8    C28   T    
C46   H2    S    
C32   O13   A    
C8    C33   S    
C57   C76   T    
Cr5   O19   S    
C45   O3    A    
Cr4   O8    S    
C14   C24   S    
C77   H9    S    
C51   C56   S    
Br33  C84   S    
C50   H30   S    
C7    C35   S    
C55   C75   T    
C69   H18   S    
C48   C61   S    
Br30  C83   S    
C13   C28   S    
Cr6   O17   S    
C62   C71   S    
C50   C63   S    
Cr6   O4    S    
Cr5   O3    S    
C58   C69   S    
Cr1   O5    S    
Cr3   O26   S    
Br39  C20   S    
C59   C74   S    
C80   H10   S    
C54   C74   T    
C33   O5    A    
C58   C75   S    
Cr6   O10   S    
C36   O10   A    
C34   O22   A    
Br1   C22   S    
C21   H13   S    
Br20  C4    S    
Br4   C50   S    
