data_mof_unit_60014.cif
_audit_creation_date              2012-12-10T19:49:14-0500
_audit_creation_method            fapswitch 2.2
_symmetry_space_group_name_H-M    P1
_symmetry_Int_Tables_number       1
_space_group_crystal_system       triclinic
_cell_length_a                    26.075527
_cell_length_b                    26.048807
_cell_length_c                    22.253293
_cell_angle_alpha                 89.998714
_cell_angle_beta                  54.055439
_cell_angle_gamma                 90.000911
_cell_volume                      12237.0817206

loop_
_atom_site_label
_atom_site_type_symbol
_atom_type_description
_atom_site_fract_x
_atom_site_fract_y
_atom_site_fract_z
_atom_type_partial_charge
C1    C     C_R   0.849460 0.750022 0.301130 0.801248
C2    C     C_R   0.445311 0.250699 0.500293 -0.127512
C3    C     C_R   0.304301 0.974099 0.456434 0.111676
C4    C     C_R   0.749187 0.554458 0.500550 -0.075359
C5    C     C_R   0.749189 0.445543 0.500545 -0.075482
C6    C     C_R   0.249187 0.054458 0.500550 -0.075375
C7    C     C_R   0.249189 0.945543 0.500545 -0.075503
C8    C     C_R   0.691849 0.526995 0.546339 -0.201698
C9    C     C_R   0.691849 0.473002 0.546336 -0.200392
C10   C     C_R   0.191849 0.026995 0.546341 -0.201673
C11   C     C_R   0.191850 0.973002 0.546338 -0.200336
C12   C     C_3   0.874298 0.470428 0.401093 -0.421159
C13   C     C_R   0.945260 0.249366 0.500397 -0.127811
C14   C     C_3   0.874298 0.529580 0.401096 -0.422564
C15   C     C_3   0.374297 0.970428 0.401087 -0.421156
C16   C     C_3   0.374297 0.029581 0.401091 -0.422567
C17   C     C_R   0.750028 0.889991 0.500060 0.821666
C18   C     C_R   0.750028 0.110009 0.500060 0.821710
C19   C     C_R   0.250028 0.389991 0.500060 0.821670
C20   C     C_R   0.250028 0.610009 0.500060 0.821713
C21   C     C_R   0.889981 0.750044 0.499994 0.862483
C22   C     C_R   0.889976 0.249963 0.500005 0.861946
C23   C     C_R   0.389981 0.250044 0.499994 0.862491
C24   C     C_R   0.945310 0.750698 0.500294 -0.127524
C25   C     C_R   0.389976 0.749963 0.500005 0.861928
C26   C     C_R   0.609923 0.749903 0.500154 0.861694
C27   C     C_R   0.609935 0.250112 0.500130 0.861691
C28   C     C_R   0.109923 0.249903 0.500154 0.861698
C29   C     C_R   0.109935 0.750111 0.500130 0.861672
C30   C     C_R   0.547714 0.782109 0.456523 -0.161184
C31   C     C_R   0.547597 0.217746 0.456751 -0.161993
C32   C     C_R   0.047713 0.282109 0.456523 -0.161182
C33   C     C_R   0.047600 0.717749 0.456746 -0.161975
C34   C     C_R   0.553948 0.749074 0.500849 -0.185518
C35   C     C_R   0.496025 0.782240 0.456281 -0.074020
C36   C     C_R   0.554010 0.251003 0.500725 -0.185277
C37   C     C_R   0.053948 0.249074 0.500849 -0.185522
C38   C     C_R   0.054009 0.751001 0.500726 -0.185290
C39   C     C_R   0.503200 0.714606 0.546666 0.629891
C40   C     C_R   0.503489 0.285750 0.546091 0.630274
C41   C     C_R   0.003201 0.214605 0.546664 0.629903
C42   C     C_R   0.003484 0.785744 0.546100 0.630275
C43   C     C_3   0.512615 0.838707 0.075412 -0.378698
C44   C     C_3   0.567646 0.816165 0.073510 -0.837178
C45   C     C_3   0.523383 0.166809 0.075592 -0.363747
C46   C     C_R   0.495905 0.217611 0.456516 -0.073960
C47   C     C_3   0.592677 0.179248 0.042740 -0.848813
C48   C     C_3   0.012617 0.338705 0.075412 -0.378697
C49   C     C_3   0.067647 0.316162 0.073511 -0.837191
C50   C     C_3   0.024100 0.667342 0.075592 -0.363639
C51   C     C_3   0.093284 0.680239 0.042741 -0.848965
C52   C     C_3   0.455472 0.678473 0.932570 -0.360848
C53   C     C_3   0.481879 0.675874 0.850487 -0.770476
C54   C     C_3   0.455320 0.312466 0.923855 -0.315060
C55   C     C_3   0.440018 0.363776 0.964933 -0.751070
C56   C     C_3   0.955470 0.178475 0.932570 -0.360818
C57   C     C_R   0.996025 0.282241 0.456282 -0.074020
C58   C     C_3   0.981876 0.175878 0.850486 -0.770386
C59   C     C_3   0.954780 0.811745 0.923855 -0.315072
C60   C     C_3   0.939030 0.863098 0.964934 -0.751001
C61   C     C_R   0.995908 0.717614 0.456511 -0.073956
C62   C     C_3   0.520225 0.824590 0.400979 0.482714
C63   C     C_3   0.519773 0.174857 0.401873 0.482148
C64   C     C_3   0.020224 0.324591 0.400982 0.482720
C65   C     C_R   0.849459 0.249978 0.301115 0.799719
C66   C     C_3   0.019782 0.674867 0.401856 0.482165
C67   C     C_3   0.579198 0.824493 0.401259 0.547741
C68   C     C_3   0.578748 0.174956 0.402149 0.548481
C69   C     C_3   0.079197 0.324494 0.401261 0.547744
C70   C     C_3   0.078756 0.674967 0.402133 0.548474
C71   C     C_3   0.464254 0.731040 0.958797 0.006745
C72   C     C_3   0.464886 0.264356 0.958586 0.010865
C73   C     C_3   0.964253 0.231042 0.958796 0.006704
C74   C     C_3   0.964762 0.763870 0.958586 0.010854
C75   C     C_3   0.532215 0.802738 0.954669 -0.595582
C76   C     C_R   0.349460 0.250022 0.301130 0.801236
C77   C     C_3   0.535625 0.196105 0.954732 -0.559735
C78   C     C_3   0.032216 0.302738 0.954669 -0.595575
C79   C     C_3   0.036091 0.696219 0.954732 -0.559724
C80   C     C_3   0.486775 0.805162 0.040881 0.031651
C81   C     C_3   0.492902 0.194524 0.041359 0.025221
C82   C     C_3   0.986777 0.305162 0.040881 0.031654
C83   C     C_3   0.993381 0.694644 0.041358 0.025193
C84   C     C_1   0.388979 0.750107 0.221790 -0.147431
C85   C     C_1   0.389074 0.249836 0.221832 -0.144194
C86   C     C_1   0.888979 0.250107 0.221790 -0.147421
C87   C     C_R   0.349459 0.749978 0.301115 0.799718
C88   C     C_1   0.889075 0.749836 0.221832 -0.144196
C89   C     C_3   0.534323 0.747542 0.926546 0.184112
C90   C     C_3   0.535444 0.250752 0.926630 0.152559
C91   C     C_3   0.034322 0.247542 0.926546 0.184100
C92   C     C_3   0.035436 0.750741 0.926630 0.152551
C93   C     C_R   0.650577 0.749954 0.698886 0.829525
C94   C     C_R   0.650588 0.250030 0.698877 0.830020
C95   C     C_R   0.150577 0.249954 0.698886 0.829532
C96   C     C_R   0.150589 0.750030 0.698877 0.829973
C97   C     C_3   0.422859 0.731631 0.045716 -0.533050
C98   C     C_R   0.449498 0.714906 0.546262 -0.286399
C99   C     C_3   0.422809 0.263235 0.045417 -0.453085
C100  C     C_3   0.922858 0.231633 0.045716 -0.533028
C101  C     C_3   0.922695 0.762762 0.045418 -0.453110
C102  C     C_3   0.462231 0.749961 0.073453 0.237435
C103  C     C_3   0.463357 0.249026 0.073456 0.196659
C104  C     C_3   0.962231 0.249961 0.073453 0.237419
C105  C     C_3   0.963364 0.749027 0.073456 0.196663
C106  C     C_3   0.517356 0.710744 0.042843 -0.435535
C107  C     C_3   0.515657 0.290604 0.043139 -0.433307
C108  C     C_3   0.017355 0.210743 0.042843 -0.435530
C109  C     C_R   0.449776 0.285439 0.545708 -0.286533
C110  C     C_3   0.015302 0.790925 0.043139 -0.433286
C111  C     C_3   0.562234 0.712310 0.956995 0.496290
C112  C     C_3   0.561608 0.287968 0.957220 0.520926
C113  C     C_3   0.062233 0.212309 0.956995 0.496302
C114  C     C_3   0.061275 0.788316 0.957220 0.520942
C115  C     C_1   0.422031 0.750118 0.155040 -0.071211
C116  C     C_1   0.422492 0.249500 0.155088 -0.090959
C117  C     C_1   0.922031 0.250118 0.155040 -0.071201
C118  C     C_1   0.922496 0.749501 0.155088 -0.090960
C119  C     C_1   0.576315 0.748592 0.844969 -0.012500
C120  C     C_R   0.949499 0.214905 0.546261 -0.286364
C121  C     C_1   0.576992 0.250331 0.844935 -0.052329
C122  C     C_1   0.076315 0.248592 0.844969 -0.012499
C123  C     C_1   0.076987 0.750325 0.844935 -0.052346
C124  C     C_1   0.610692 0.749642 0.778206 -0.135349
C125  C     C_1   0.610774 0.250083 0.778186 -0.114301
C126  C     C_1   0.110692 0.249642 0.778206 -0.135341
C127  C     C_1   0.110772 0.750081 0.778186 -0.114295
C128  C     C_R   0.740694 0.974077 0.455304 -0.081861
C129  C     C_R   0.740694 0.025924 0.455304 -0.081587
C130  C     C_R   0.240694 0.474077 0.455304 -0.081857
C131  C     C_R   0.949771 0.785434 0.545717 -0.286533
C132  C     C_R   0.240694 0.525924 0.455304 -0.081591
C133  C     C_R   0.750257 0.945542 0.500594 -0.039810
C134  C     C_R   0.750258 0.054457 0.500594 -0.039739
C135  C     C_R   0.250258 0.445542 0.500594 -0.039809
C136  C     C_R   0.250258 0.554457 0.500594 -0.039741
C137  C     C_R   0.760326 0.973005 0.547588 -0.195295
C138  C     C_R   0.760326 0.026993 0.547588 -0.195398
C139  C     C_R   0.260327 0.473005 0.547587 -0.195296
C140  C     C_R   0.260327 0.526993 0.547587 -0.195400
C141  C     C_R   0.749953 0.610024 0.500068 0.812848
C142  C     C_R   0.445259 0.749366 0.500398 -0.127810
C143  C     C_R   0.749954 0.389977 0.500064 0.812627
C144  C     C_R   0.249953 0.110023 0.500068 0.812850
C145  C     C_R   0.249954 0.889977 0.500064 0.812621
C146  C     C_3   0.728110 0.029584 0.398240 0.495387
C147  C     C_3   0.728109 0.970415 0.398241 0.495813
C148  C     C_3   0.228108 0.529584 0.398241 0.495394
C149  C     C_3   0.228107 0.470416 0.398242 0.495818
C150  C     C_R   0.804300 0.525906 0.456439 0.112303
C151  C     C_R   0.804301 0.474099 0.456436 0.111680
C152  C     C_R   0.304300 0.025906 0.456437 0.112304
F1    F     F_    0.504877 0.680678 0.591796 -0.643841
F2    F     F_    0.669038 0.949559 0.427313 -0.503459
F3    F     F_    0.169038 0.550438 0.427312 -0.503608
F4    F     F_    0.169036 0.449559 0.427315 -0.503460
F5    F     F_    0.483909 0.868574 0.431802 -0.573066
F6    F     F_    0.483118 0.131102 0.433377 -0.573424
F7    F     F_    0.983908 0.368574 0.431806 -0.573059
F8    F     F_    0.983132 0.631108 0.433348 -0.573427
F9    F     F_    0.584454 0.868401 0.432331 -0.506464
F10   F     F_    0.583656 0.131281 0.433907 -0.506341
F11   F     F_    0.084452 0.368401 0.432335 -0.506459
F12   F     F_    0.505398 0.319962 0.590764 -0.642911
F13   F     F_    0.083671 0.631287 0.433878 -0.506345
F14   F     F_    0.004879 0.180677 0.591794 -0.643823
F15   F     F_    0.005389 0.819951 0.590781 -0.642890
F16   F     F_    0.573199 0.663144 0.928129 -0.667740
F17   F     F_    0.572229 0.336427 0.926425 -0.663267
F18   F     F_    0.073196 0.163143 0.928129 -0.667706
F19   F     F_    0.071474 0.836731 0.926426 -0.663231
F20   F     F_    0.669040 0.050438 0.427309 -0.503610
H1    H     H_    0.515698 0.830329 0.931137 0.181322
H2    H     H_    0.608309 0.273609 0.941049 0.084248
H3    H     H_    0.033010 0.166254 0.816122 0.284998
H4    H     H_    0.957616 0.144741 0.842010 0.247720
H5    H     H_    0.975010 0.146494 0.946263 0.273949
H6    H     H_    0.903679 0.171170 0.964421 0.193802
H7    H     H_    0.888054 0.864678 0.012151 0.220071
H8    H     H_    0.967794 0.870004 0.985767 0.302576
H9    H     H_    0.948030 0.894900 0.926617 0.248357
H10   H     H_    0.996741 0.817718 0.865848 0.234247
H11   H     H_    0.915102 0.803183 0.919808 0.182631
H12   H     H_    0.108920 0.227758 0.939497 0.082119
H13   H     H_    0.108100 0.774294 0.941048 0.084241
H14   H     H_    0.497290 0.671404 0.061191 0.204244
H15   H     H_    0.493293 0.329221 0.060468 0.197024
H16   H     H_    0.997288 0.171403 0.061191 0.204260
H17   H     H_    0.992605 0.829423 0.060469 0.197056
H18   H     H_    0.402977 0.692921 0.069349 0.193573
H19   H     H_    0.398353 0.300108 0.070785 0.203497
H20   H     H_    0.902975 0.192922 0.069349 0.193586
H21   H     H_    0.517710 0.167666 0.933770 0.175990
H22   H     H_    0.897920 0.799531 0.070785 0.203490
H23   H     H_    0.544703 0.717176 0.065745 0.151006
H24   H     H_    0.541829 0.286796 0.068057 0.148494
H25   H     H_    0.044702 0.217174 0.065744 0.151004
H26   H     H_    0.041507 0.787453 0.068056 0.148483
H27   H     H_    0.768140 0.953063 0.584265 0.174156
H28   H     H_    0.768140 0.046934 0.584265 0.174090
H29   H     H_    0.268141 0.453063 0.584264 0.174153
H30   H     H_    0.268141 0.546934 0.584264 0.174087
H31   H     H_    0.411492 0.688176 0.581893 0.199542
H32   H     H_    0.015701 0.330329 0.931137 0.181329
H33   H     H_    0.411933 0.312374 0.581012 0.199635
H34   H     H_    0.911493 0.188175 0.581891 0.199550
H35   H     H_    0.911926 0.812364 0.581027 0.199641
H36   H     H_    0.767538 0.047421 0.345453 -0.007965
H37   H     H_    0.767537 0.952581 0.345455 -0.007949
H38   H     H_    0.267536 0.547421 0.345454 -0.007984
H39   H     H_    0.267535 0.452581 0.345456 -0.007983
H40   H     H_    0.647145 0.546942 0.582051 0.191836
H41   H     H_    0.647146 0.453052 0.582045 0.192496
H42   H     H_    0.147146 0.046943 0.582055 0.191852
H43   H     H_    0.018424 0.667534 0.933769 0.175977
H44   H     H_    0.147146 0.953052 0.582048 0.192531
H45   H     H_    0.897615 0.453371 0.425148 0.264508
H46   H     H_    0.897615 0.546635 0.425153 0.264517
H47   H     H_    0.397617 0.953371 0.425141 0.264506
H48   H     H_    0.397616 0.046635 0.425145 0.264519
H49   H     H_    0.888017 0.453357 0.347767 0.199326
H50   H     H_    0.888017 0.546657 0.347771 0.198983
H51   H     H_    0.388014 0.953357 0.347762 0.199323
H52   H     H_    0.388014 0.046657 0.347767 0.198978
H53   H     H_    0.529251 0.812671 0.347594 -0.007352
H54   H     H_    0.444517 0.827153 0.054342 0.124896
H55   H     H_    0.528885 0.186382 0.348309 -0.007195
H56   H     H_    0.029250 0.312673 0.347596 -0.007360
H57   H     H_    0.028892 0.686400 0.348296 -0.007247
H58   H     H_    0.623791 0.812579 0.348012 -0.013000
H59   H     H_    0.623435 0.186474 0.348722 -0.012343
H60   H     H_    0.123790 0.312581 0.348014 -0.013008
H61   H     H_    0.123442 0.686492 0.348709 -0.012379
H62   H     H_    0.381263 0.757252 0.067417 0.165828
H63   H     H_    0.384240 0.234523 0.065919 0.151412
H64   H     H_    0.881263 0.257254 0.067417 0.165844
H65   H     H_    0.451937 0.169398 0.057820 0.123480
H66   H     H_    0.884376 0.733805 0.065920 0.151387
H67   H     H_    0.444534 0.760804 0.941639 0.151404
H68   H     H_    0.448213 0.231702 0.941749 0.120123
H69   H     H_    0.944534 0.260806 0.941639 0.151427
H70   H     H_    0.948372 0.730999 0.941749 0.120099
H71   H     H_    0.580828 0.815199 0.933882 0.201484
H72   H     H_    0.585066 0.184466 0.930296 0.207471
H73   H     H_    0.080830 0.315198 0.933882 0.201480
H74   H     H_    0.085632 0.684905 0.930297 0.207484
H75   H     H_    0.549888 0.787407 0.118386 0.252910
H76   H     H_    0.944519 0.327154 0.054342 0.124906
H77   H     H_    0.603981 0.798878 0.018801 0.247460
H78   H     H_    0.590580 0.847226 0.084092 0.249124
H79   H     H_    0.528206 0.876109 0.045639 0.206143
H80   H     H_    0.473427 0.847634 0.134069 0.205407
H81   H     H_    0.625301 0.158955 0.989273 0.248838
H82   H     H_    0.602889 0.220699 0.034464 0.248329
H83   H     H_    0.603516 0.165276 0.081299 0.249274
H84   H     H_    0.494484 0.173670 0.136326 0.213285
H85   H     H_    0.520894 0.124720 0.069196 0.198364
H86   H     H_    0.049888 0.287404 0.118387 0.252912
H87   H     H_    0.952635 0.669235 0.057819 0.123486
H88   H     H_    0.103982 0.298874 0.018802 0.247460
H89   H     H_    0.090582 0.347222 0.084093 0.249119
H90   H     H_    0.028210 0.376107 0.045639 0.206139
H91   H     H_    0.973429 0.347633 0.134069 0.205409
H92   H     H_    0.126084 0.659995 0.989277 0.248876
H93   H     H_    0.103138 0.721741 0.034460 0.248336
H94   H     H_    0.104241 0.666532 0.081303 0.249203
H95   H     H_    0.995141 0.674215 0.136326 0.213290
H96   H     H_    0.021975 0.625205 0.069196 0.198422
H97   H     H_    0.474057 0.712557 0.831538 0.250227
H98   H     H_    0.608921 0.727760 0.939497 0.082123
H99   H     H_    0.533013 0.666251 0.816123 0.285000
H100  H     H_    0.457620 0.644736 0.842010 0.247694
H101  H     H_    0.475013 0.646492 0.946264 0.273921
H102  H     H_    0.403681 0.671166 0.964421 0.193780
H103  H     H_    0.389058 0.365595 0.012150 0.220093
H104  H     H_    0.468841 0.370340 0.985765 0.302582
H105  H     H_    0.449295 0.395665 0.926614 0.248348
H106  H     H_    0.497332 0.318326 0.865847 0.234206
H107  H     H_    0.415569 0.304267 0.919810 0.182658
H108  H     H_    0.974055 0.212561 0.831538 0.250222
O1    O     O_3   0.750020 0.750020 0.500000 -0.506856
O2    O     O_R   0.741140 0.134170 0.457020 -0.604755
O3    O     O_R   0.241140 0.365830 0.457020 -0.604730
O4    O     O_R   0.241140 0.634170 0.457020 -0.604754
O5    O     O_R   0.862350 0.719680 0.336040 -0.646505
O6    O     O_R   0.862350 0.280320 0.336040 -0.644577
O7    O     O_R   0.362350 0.219680 0.336040 -0.646481
O8    O     O_R   0.362350 0.780320 0.336040 -0.644574
O9    O     O_R   0.698420 0.780360 0.663960 -0.634845
O10   O     O_R   0.698420 0.219640 0.663960 -0.636842
O11   O     O_R   0.198420 0.280360 0.663960 -0.634847
O12   O     O_3   0.750020 0.249980 0.500000 -0.507553
O13   O     O_R   0.198420 0.719640 0.663960 -0.636901
O14   O     O_R   0.801620 0.780400 0.336040 -0.640356
O15   O     O_R   0.801620 0.219600 0.336040 -0.640681
O16   O     O_R   0.301620 0.280400 0.336040 -0.640372
O17   O     O_R   0.301620 0.719600 0.336040 -0.640684
O18   O     O_R   0.637700 0.719640 0.663960 -0.627332
O19   O     O_R   0.637700 0.280360 0.663960 -0.623687
O20   O     O_R   0.137700 0.219640 0.663960 -0.627324
O21   O     O_R   0.137700 0.780360 0.663960 -0.623578
O22   O     O_R   0.801870 0.634220 0.457010 -0.631737
O23   O     O_3   0.250020 0.250020 0.500000 -0.506859
O24   O     O_R   0.801870 0.365780 0.457010 -0.631799
O25   O     O_R   0.301870 0.134220 0.457010 -0.631741
O26   O     O_R   0.301870 0.865780 0.457010 -0.631805
O27   O     O_R   0.758890 0.865820 0.542980 -0.659156
O28   O     O_R   0.758890 0.134180 0.542980 -0.659226
O29   O     O_R   0.258890 0.365820 0.542980 -0.659157
O30   O     O_R   0.258890 0.634180 0.542980 -0.659222
O31   O     O_R   0.887320 0.719660 0.457000 -0.617962
O32   O     O_R   0.887320 0.280340 0.457000 -0.617581
O33   O     O_R   0.387320 0.219660 0.457000 -0.617962
O34   O     O_3   0.250020 0.749980 0.500000 -0.507558
O35   O     O_R   0.387320 0.780340 0.457000 -0.617577
O36   O     O_R   0.655700 0.780400 0.457020 -0.616913
O37   O     O_R   0.655700 0.219600 0.457020 -0.617394
O38   O     O_R   0.155700 0.280400 0.457020 -0.616915
O39   O     O_R   0.155700 0.719600 0.457020 -0.617388
O40   O     O_R   0.844340 0.780370 0.542980 -0.655591
O41   O     O_R   0.844340 0.219630 0.542980 -0.655648
O42   O     O_R   0.344340 0.280370 0.542980 -0.655592
O43   O     O_R   0.344340 0.719630 0.542980 -0.655661
O44   O     O_R   0.612730 0.719670 0.543000 -0.584580
O45   O     O_R   0.698170 0.634220 0.542990 -0.640364
O46   O     O_R   0.612730 0.280330 0.543000 -0.584625
O47   O     O_R   0.112730 0.219670 0.543000 -0.584578
O48   O     O_R   0.112730 0.780330 0.543000 -0.584625
O49   O     O_R   0.698170 0.365780 0.542990 -0.639494
O50   O     O_R   0.198170 0.134220 0.542990 -0.640359
O51   O     O_R   0.198170 0.865780 0.542990 -0.639469
O52   O     O_R   0.741140 0.865830 0.457020 -0.604729
Zn1   Zn    Zn3+2 0.675940 0.706640 0.561420 1.023448
Zn2   Zn    Zn3+2 0.762700 0.206610 0.561410 0.976449
Zn3   Zn    Zn3+2 0.262700 0.293390 0.561410 0.977007
Zn4   Zn    Zn3+2 0.262700 0.706610 0.561410 0.976399
Zn5   Zn    Zn3+2 0.737340 0.793410 0.438590 1.018068
Zn6   Zn    Zn3+2 0.737340 0.206590 0.438590 1.017330
Zn7   Zn    Zn3+2 0.237340 0.293410 0.438590 1.018056
Zn8   Zn    Zn3+2 0.237340 0.706590 0.438590 1.017326
Zn9   Zn    Zn3+2 0.675940 0.293360 0.561420 1.027332
Zn10  Zn    Zn3+2 0.175940 0.206640 0.561420 1.023464
Zn11  Zn    Zn3+2 0.175940 0.793360 0.561420 1.027395
Zn12  Zn    Zn3+2 0.824100 0.706650 0.438580 0.987314
Zn13  Zn    Zn3+2 0.824100 0.293350 0.438580 0.988168
Zn14  Zn    Zn3+2 0.324100 0.206650 0.438580 0.987323
Zn15  Zn    Zn3+2 0.324100 0.793350 0.438580 0.988158
Zn16  Zn    Zn3+2 0.762700 0.793390 0.561410 0.977003

loop_
_geom_bond_atom_site_label_1
_geom_bond_atom_site_label_2
_ccdc_geom_bond_type
C145  O26   A    
C99   C103  S    
C105  C110  S    
C22   O41   A    
C133  C137  A    
C24   C61   A    
O4    Zn8   S    
C77   H72   S    
C107  C112  S    
C94   O10   A    
O23   Zn3   S    
C136  C140  A    
C42   F15   S    
C135  C139  A    
C1    O14   A    
C146  C147  S    
C49   H88   S    
C144  O50   A    
C5    C143  S    
C113  H12   S    
C100  C104  S    
C78   H73   S    
C74   C92   S    
C23   O33   A    
C77   H21   S    
C130  C135  A    
C53   H99   S    
C91   C122  S    
C76   O7    A    
C68   H59   S    
O34   Zn4   S    
C11   H44   S    
C59   C60   S    
O2    Zn6   S    
C32   C57   A    
O28   Zn2   S    
C50   C83   S    
O22   Zn12  S    
C45   C47   S    
C87   O17   A    
C79   H74   S    
C106  H14   S    
C69   H60   S    
C39   C98   A    
C63   H55   S    
C9    H41   S    
C83   C105  S    
C96   C127  S    
C108  C113  S    
C59   H10   S    
C43   C44   S    
C29   O39   A    
C140  H30   S    
C78   C82   S    
C112  F17   S    
C62   F5    S    
O50   Zn10  S    
C40   C109  A    
C74   C101  S    
C55   H105  S    
O24   Zn13  S    
C17   C133  S    
C105  C118  S    
C100  H64   S    
C19   O3    A    
C101  H22   S    
C104  C117  S    
C50   H95   S    
C56   C73   S    
C27   O37   A    
C108  H16   S    
C85   C116  T    
C45   C81   S    
O43   Zn4   S    
C139  C140  A    
C128  C147  S    
C113  F18   S    
O12   Zn9   S    
C62   H53   S    
C4    C150  A    
C33   C38   A    
C5    C151  A    
C82   H76   S    
C19   O29   A    
O3    Zn7   S    
C103  C116  S    
C24   C131  A    
C66   C70   S    
C51   H93   S    
C64   F7    S    
C143  O49   A    
C86   C117  T    
C41   C120  A    
C74   H70   S    
C43   H79   S    
C44   H77   S    
C33   C61   A    
C21   C24   S    
C82   C104  S    
C31   C36   A    
C14   H46   S    
C103  C107  S    
C111  H98   S    
C76   C85   S    
C112  H2    S    
O38   Zn7   S    
C2    C109  A    
C25   C142  S    
C131  H35   S    
O34   Zn11  S    
C56   H6    S    
C60   H7    S    
C5    C9    A    
O42   Zn3   S    
C71   C97   S    
C55   H104  S    
C114  H13   S    
C141  O45   A    
O1    Zn1   S    
O29   Zn3   S    
C40   F12   S    
C13   C57   A    
C49   H86   S    
C108  H25   S    
C96   O13   A    
O5    Zn12  S    
C44   H75   S    
C137  H27   S    
O12   Zn6   S    
C31   C46   A    
C71   C89   S    
C29   C38   S    
C42   C131  A    
C148  F3    S    
C95   O11   A    
C110  C114  S    
C30   C67   S    
C16   H52   S    
C98   C142  A    
O16   Zn7   S    
C100  H20   S    
O6    Zn13  S    
O20   Zn10  S    
C107  H24   S    
C106  C111  S    
C114  F19   S    
O33   Zn14  S    
C30   C34   A    
C34   C39   A    
O23   Zn10  S    
C98   H31   S    
C47   H82   S    
C70   F13   S    
C52   H102  S    
C43   C80   S    
C32   C37   A    
C80   C102  S    
C70   H61   S    
C59   H11   S    
C121  C125  T    
O34   Zn8   S    
C72   C90   S    
C123  C127  T    
C25   O43   A    
C132  C136  A    
O7    Zn14  S    
C41   F14   S    
C64   C69   S    
C20   C136  S    
C109  H33   S    
C143  O24   A    
O14   Zn5   S    
C90   C121  S    
C15   H47   S    
C47   H81   S    
C13   C120  A    
C52   C53   S    
C81   C103  S    
C94   C125  S    
C60   H9    S    
C54   C55   S    
O52   Zn5   S    
C17   O52   A    
C48   H91   S    
C53   H97   S    
O39   Zn8   S    
C29   O48   A    
C26   O44   A    
O12   Zn2   S    
O10   Zn2   S    
C95   C126  S    
C28   C37   S    
C144  O25   A    
C97   H62   S    
C56   C58   S    
C16   H48   S    
C37   C41   A    
C10   C11   A    
C75   C89   S    
C35   C142  A    
C54   H106  S    
C2    C23   S    
C150  C151  A    
C80   H54   S    
C8    H40   S    
C88   C118  T    
C7    C145  S    
C72   C99   S    
O12   Zn13  S    
C73   C100  S    
C54   H107  S    
C110  H26   S    
C95   O20   A    
C58   H3    S    
C1    O5    A    
C65   C86   S    
O8    Zn15  S    
O1    Zn16  S    
C66   H57   S    
C3    C152  A    
C39   F1    S    
O21   Zn11  S    
C3    C7    A    
O37   Zn6   S    
C28   O47   A    
C19   C135  S    
C145  O51   A    
C102  C115  S    
C63   C68   S    
C89   C119  S    
C99   H19   S    
C84   C87   S    
C83   H87   S    
O34   Zn15  S    
C97   C102  S    
C6    C152  A    
C1    C88   S    
C128  C129  A    
O1    Zn5   S    
C141  O22   A    
C31   C68   S    
O13   Zn4   S    
C50   H96   S    
C77   C90   S    
O19   Zn9   S    
C87   O8    A    
C146  H36   S    
O9    Zn16  S    
C4    C141  S    
C49   H89   S    
C10   H42   S    
O17   Zn8   S    
O1    Zn12  S    
C65   O6    A    
C71   H67   S    
C130  C132  A    
C47   H83   S    
O27   Zn16  S    
O47   Zn10  S    
C67   F9    S    
C77   C81   S    
C53   H100  S    
C14   C150  S    
C50   C51   S    
C16   C152  S    
O35   Zn15  S    
C27   O46   A    
C59   C74   S    
O49   Zn9   S    
C129  C146  S    
C32   C69   S    
C33   C70   S    
C30   C35   A    
C23   O42   A    
C44   H78   S    
C48   C49   S    
C58   H108  S    
O23   Zn14  S    
C93   O18   A    
C92   C123  S    
C12   H45   S    
C104  C108  S    
O48   Zn11  S    
C137  C138  A    
O44   Zn1   S    
C149  H39   S    
O15   Zn6   S    
C6    C10   A    
C45   H85   S    
C106  H23   S    
C27   C36   S    
C60   H8    S    
C46   C63   S    
C110  H17   S    
C55   H103  S    
C93   O9    A    
C52   C71   S    
C79   C83   S    
C48   H90   S    
C48   C82   S    
C13   C22   S    
C15   H51   S    
C45   H84   S    
C129  C134  A    
C73   H69   S    
C20   O30   A    
C21   O31   A    
C22   O32   A    
C111  F16   S    
C20   O4    A    
C147  H37   S    
C138  H28   S    
C146  F20   S    
C75   H1    S    
O45   Zn1   S    
C93   C124  S    
C90   C112  S    
O25   Zn14  S    
C4    C8    A    
C66   F8    S    
C119  C124  T    
C2    C46   A    
C7    C11   A    
C62   C67   S    
C149  F4    S    
C78   H32   S    
C76   O16   A    
C15   C16   S    
C51   H94   S    
C107  H15   S    
O31   Zn12  S    
C147  F2    S    
C65   O15   A    
C61   C66   S    
C26   C34   S    
C67   H58   S    
C81   H65   S    
C8    C9    A    
C72   H68   S    
C18   C134  S    
C94   O19   A    
C75   C80   S    
C79   H43   S    
C12   C151  S    
C43   H80   S    
O30   Zn4   S    
C56   H5    S    
C101  C105  S    
C132  C148  S    
C36   C40   A    
C148  C149  S    
C73   C91   S    
C139  H29   S    
C25   O35   A    
C26   O36   A    
C91   C113  S    
C28   O38   A    
C122  C126  T    
C148  H38   S    
C99   H63   S    
O36   Zn5   S    
C18   O2    A    
C6    C144  S    
C17   O27   A    
C130  C149  S    
C18   O28   A    
C79   C92   S    
O51   Zn11  S    
C97   H18   S    
C12   C14   S    
C84   C115  T    
O23   Zn7   S    
C96   O21   A    
O40   Zn16  S    
C64   H56   S    
C3    C15   S    
C57   C64   S    
O32   Zn13  S    
C21   O40   A    
O41   Zn2   S    
C101  H66   S    
C14   H50   S    
C58   H4    S    
C69   F11   S    
C134  C138  A    
C52   H101  S    
C68   F10   S    
C78   C91   S    
C51   H92   S    
C89   C111  S    
C120  H34   S    
C128  C133  A    
O11   Zn3   S    
C102  C106  S    
C35   C62   S    
C12   H49   S    
C75   H71   S    
C38   C42   A    
O26   Zn15  S    
C54   C72   S    
O18   Zn1   S    
C63   F6    S    
O46   Zn9   S    
C92   C114  S    
