data_mof_unit_5646.cif
_audit_creation_date              2012-12-10T18:39:49-0500
_audit_creation_method            fapswitch 2.2
_symmetry_space_group_name_H-M    P1
_symmetry_Int_Tables_number       1
_space_group_crystal_system       triclinic
_cell_length_a                    15.316492
_cell_length_b                    13.925958
_cell_length_c                    23.575951
_cell_angle_alpha                 89.949637
_cell_angle_beta                  91.11728
_cell_angle_gamma                 90.161342
_cell_volume                      5027.69776876

loop_
_atom_site_label
_atom_site_type_symbol
_atom_type_description
_atom_site_fract_x
_atom_site_fract_y
_atom_site_fract_z
_atom_type_partial_charge
C1    C     C_R   0.329819 0.499639 0.500576 0.850246
C2    C     C_R   0.670130 0.499971 0.499319 0.854196
C3    C     C_R   0.542115 0.432024 0.239269 0.381117
C4    C     C_R   0.453186 0.437506 0.761165 0.340975
C5    C     C_R   0.551283 0.439200 0.298345 0.276763
C6    C     C_R   0.445434 0.442684 0.701937 0.293454
C7    C     C_R   0.494892 0.498794 0.328740 -0.351806
C8    C     C_R   0.504537 0.499250 0.671296 -0.348812
C9    C     C_R   0.433876 0.556287 0.298900 0.320685
C10   C     C_R   0.566793 0.555803 0.700905 0.320258
C11   C     C_R   0.439400 0.565010 0.239764 0.072173
C12   C     C_R   0.560912 0.566235 0.759921 0.075694
C13   C     C_R   0.490756 0.499957 0.209296 0.101438
C14   C     C_R   0.506880 0.503995 0.790717 0.110001
C15   C     C_R   0.093081 0.574201 0.481106 0.396838
C16   C     C_R   0.903425 0.414393 0.482147 0.395367
C17   C     C_R   0.906108 0.574548 0.524450 0.393978
C18   C     C_R   0.097130 0.414695 0.524164 0.383642
C19   C     C_R   0.184050 0.580200 0.486821 -0.007058
C20   C     C_R   0.811998 0.415064 0.482861 -0.007769
C21   C     C_R   0.815503 0.580707 0.516184 -0.012134
C22   C     C_R   0.188064 0.413286 0.518117 -0.018020
C23   C     C_R   0.232941 0.497876 0.501939 -0.188917
C24   C     C_R   0.766986 0.498908 0.499175 -0.192880
C25   C     C_R   0.048453 0.493639 0.503276 -0.132376
C26   C     C_R   0.951477 0.493051 0.504484 -0.124640
C27   C     C_R   0.499313 0.499887 0.391139 0.877899
C28   C     C_R   0.500777 0.499866 0.608861 0.873928
C29   C     C_R   0.558509 0.108643 0.534587 -0.336730
C30   C     C_R   0.458773 0.892556 0.456451 -0.339580
C31   C     C_R   0.441818 0.108408 0.465152 -0.336224
C32   C     C_R   0.541150 0.892723 0.543546 -0.339256
C33   C     C_R   0.556497 0.209786 0.534980 0.360873
C34   C     C_R   0.457179 0.791335 0.457811 0.327916
C35   C     C_R   0.443787 0.209560 0.464816 0.361795
C36   C     C_R   0.542706 0.791498 0.542243 0.328083
C37   C     C_R   0.500098 0.055229 0.499911 0.117906
C38   C     C_R   0.500025 0.945981 0.499961 0.128655
C39   C     C_R   0.580974 0.496886 0.882947 0.591097
C40   C     C_R   0.416872 0.495695 0.116960 0.592788
C41   C     C_R   0.427380 0.522679 0.878134 0.658472
C42   C     C_R   0.571317 0.515868 0.122073 0.651995
C43   C     C_R   0.422021 0.515912 0.937645 -0.076791
C44   C     C_R   0.576498 0.511353 0.062459 -0.075435
C45   C     C_R   0.500507 0.512013 0.970088 -0.133956
C46   C     C_R   0.497909 0.510948 0.029991 -0.134037
C47   C     C_R   0.581505 0.506781 0.942512 -0.119967
C48   C     C_R   0.416728 0.507162 0.057488 -0.120365
C49   C     C_R   0.340869 0.512778 0.965195 0.057246
C50   C     C_R   0.657554 0.507376 0.034789 0.060057
C51   C     C_R   0.338160 0.512270 0.024975 0.423448
C52   C     C_R   0.660178 0.508689 0.975012 0.422837
Cu1   Cu    Cu3+1 0.500000 0.596430 0.500000 1.002645
Cu2   Cu    Cu3+1 0.500000 0.403570 0.500000 1.014398
H1    H     H_    0.606807 0.073748 0.561351 0.132899
H2    H     H_    0.427461 0.927546 0.420642 0.132534
H3    H     H_    0.393682 0.073337 0.438249 0.133357
H4    H     H_    0.572401 0.927867 0.579356 0.132715
N1    N     N_R   0.505251 0.508762 0.851952 -0.432600
N2    N     N_R   0.492894 0.504238 0.148066 -0.434536
N3    N     N_R   0.500000 0.258690 0.500000 -0.155006
N4    N     N_R   0.500000 0.741310 0.500000 -0.159628
O1    O     O_R   0.371460 0.581430 0.500000 -0.549732
O2    O     O_R   0.628540 0.418570 0.500000 -0.540932
O3    O     O_R   0.628540 0.581430 0.500000 -0.549385
O4    O     O_R   0.371460 0.418570 0.500000 -0.540871
O5    O     O_R   0.499970 0.581450 0.417880 -0.552795
O6    O     O_R   0.500030 0.418550 0.582120 -0.550524
O7    O     O_R   0.500030 0.581450 0.582120 -0.553285
O8    O     O_R   0.499970 0.418550 0.417880 -0.549804
O9    O     O_2   0.654853 0.473244 0.856134 -0.525060
O10   O     O_2   0.342202 0.474097 0.143604 -0.523958
O11   O     O_2   0.355747 0.544172 0.846462 -0.507505
O12   O     O_2   0.643696 0.533086 0.154053 -0.499681
N5    N     N_3   0.261189 0.501917 0.932608 -0.511909
H5    H     H_    0.222105 0.562360 0.937977 0.216187
H6    H     H_    0.227742 0.441457 0.947184 0.237797
N6    N     N_3   0.737108 0.494288 0.067151 -0.507876
H7    H     H_    0.777313 0.554212 0.062178 0.214493
H8    H     H_    0.769332 0.433679 0.052000 0.240664
N7    N     N_3   0.613944 0.261577 0.572495 -0.530625
H9    H     H_    0.677984 0.240802 0.564320 0.192112
H10   H     H_    0.600204 0.240981 0.614041 0.191713
N8    N     N_3   0.410232 0.741365 0.414131 -0.476894
H11   H     H_    0.438226 0.759778 0.375491 0.222516
H12   H     H_    0.346170 0.766907 0.413048 0.200369
N9    N     N_3   0.386881 0.261107 0.426953 -0.529115
H13   H     H_    0.322792 0.239262 0.434357 0.194532
H14   H     H_    0.401738 0.241226 0.385492 0.190097
N10   N     N_3   0.589433 0.741711 0.586058 -0.476283
H15   H     H_    0.560799 0.759192 0.624597 0.220665
H16   H     H_    0.653263 0.768271 0.587617 0.199486
O13   O     O_3   0.258001 0.510145 0.051341 -0.570371
C53   C     C_3   0.218762 0.602364 0.049966 0.053935
H17   H     H_    0.149110 0.592667 0.037124 0.161298
H18   H     H_    0.247913 0.653434 0.018992 0.107898
C54   C     C_3   0.223340 0.647910 0.108882 -0.295713
H19   H     H_    0.198944 0.596264 0.140922 0.252155
H20   H     H_    0.292426 0.665892 0.119178 0.231876
C55   C     C_3   0.169302 0.739622 0.111343 -0.952682
H21   H     H_    0.193231 0.792916 0.080149 0.261979
H22   H     H_    0.175139 0.771192 0.154495 0.258884
H23   H     H_    0.099389 0.723580 0.102070 0.260649
O14   O     O_3   0.740221 0.505363 0.948567 -0.570483
C56   C     C_3   0.781500 0.596723 0.950401 0.053061
H24   H     H_    0.850774 0.585437 0.963558 0.161381
H25   H     H_    0.753141 0.648071 0.981387 0.107407
C57   C     C_3   0.778672 0.642890 0.891577 -0.294563
H26   H     H_    0.802183 0.590975 0.859534 0.251624
H27   H     H_    0.710150 0.662534 0.880969 0.231960
C58   C     C_3   0.834956 0.733347 0.889575 -0.952769
H28   H     H_    0.811959 0.786927 0.920764 0.261997
H29   H     H_    0.830395 0.765382 0.846469 0.258369
H30   H     H_    0.904361 0.715621 0.899150 0.260780
O15   O     O_3   0.591313 0.365148 0.210718 -0.574273
C59   C     C_3   0.537577 0.286746 0.194301 0.052701
H31   H     H_    0.568176 0.252024 0.157259 0.171195
H32   H     H_    0.470795 0.308945 0.179832 0.139801
C60   C     C_3   0.532032 0.212903 0.242432 -0.325800
H33   H     H_    0.599029 0.191747 0.256337 0.243701
H34   H     H_    0.498535 0.245086 0.279190 0.220301
C61   C     C_3   0.481521 0.123584 0.223497 -0.933146
H35   H     H_    0.413915 0.143091 0.210124 0.261742
H36   H     H_    0.478243 0.071938 0.259313 0.257427
H37   H     H_    0.514677 0.088310 0.187610 0.260764
O16   O     O_3   0.400403 0.374669 0.790313 -0.570844
C62   C     C_3   0.449623 0.292448 0.804732 0.068634
H38   H     H_    0.509830 0.311963 0.829533 0.144648
H39   H     H_    0.468187 0.253186 0.765602 0.152142
C63   C     C_3   0.393981 0.226488 0.841193 -0.310370
H40   H     H_    0.374156 0.265725 0.879914 0.228353
H41   H     H_    0.334009 0.205368 0.816923 0.228335
C64   C     C_3   0.443968 0.136275 0.858760 -0.925361
H42   H     H_    0.463495 0.095247 0.820683 0.257455
H43   H     H_    0.401669 0.089848 0.884995 0.260639
H44   H     H_    0.503235 0.155734 0.884175 0.260809
O17   O     O_3   0.618772 0.391315 0.325862 -0.576334
C65   C     C_3   0.690602 0.455217 0.332749 0.093465
H45   H     H_    0.711228 0.454830 0.378041 0.143083
H46   H     H_    0.675749 0.532015 0.322316 0.123967
C66   C     C_3   0.766870 0.421315 0.297028 -0.298061
H47   H     H_    0.793492 0.353562 0.315176 0.198680
H48   H     H_    0.743970 0.406657 0.252929 0.285172
C67   C     C_3   0.838827 0.497187 0.295116 -0.958078
H49   H     H_    0.815765 0.560679 0.270588 0.282155
H50   H     H_    0.896861 0.467091 0.274048 0.259858
H51   H     H_    0.857910 0.520708 0.338608 0.236597
O18   O     O_3   0.378447 0.393539 0.674439 -0.570885
C68   C     C_3   0.309616 0.458549 0.661717 0.072616
H52   H     H_    0.280361 0.437610 0.620349 0.155347
H53   H     H_    0.331200 0.534750 0.656503 0.116257
C69   C     C_3   0.238958 0.452473 0.706598 -0.294872
H54   H     H_    0.211725 0.378472 0.707473 0.213948
H55   H     H_    0.267506 0.468846 0.749097 0.285595
C70   C     C_3   0.165780 0.524030 0.694307 -0.968898
H56   H     H_    0.190526 0.598607 0.699516 0.269817
H57   H     H_    0.112142 0.512010 0.724498 0.269517
H58   H     H_    0.139658 0.515328 0.650393 0.232744
O19   O     O_3   0.369498 0.606071 0.326712 -0.602717
C71   C     C_3   0.304371 0.540965 0.344874 0.077519
H59   H     H_    0.268921 0.576011 0.379553 0.171672
H60   H     H_    0.331454 0.473268 0.363178 0.131002
C72   C     C_3   0.238551 0.517666 0.297004 -0.377671
H61   H     H_    0.207578 0.585026 0.281462 0.222914
H62   H     H_    0.272249 0.482983 0.261153 0.246353
C73   C     C_3   0.168096 0.449389 0.317672 -0.933817
H63   H     H_    0.197402 0.379166 0.329599 0.258016
H64   H     H_    0.118423 0.437884 0.283413 0.264921
H65   H     H_    0.135716 0.479994 0.355144 0.246322
O20   O     O_3   0.632640 0.603290 0.672851 -0.602341
C74   C     C_3   0.696192 0.536144 0.655436 0.074755
H66   H     H_    0.732052 0.569170 0.620178 0.171730
H67   H     H_    0.667673 0.468210 0.638232 0.132111
C75   C     C_3   0.761856 0.513553 0.703437 -0.382632
H68   H     H_    0.793042 0.581179 0.718564 0.224105
H69   H     H_    0.727883 0.479565 0.739516 0.245807
C76   C     C_3   0.832217 0.445042 0.683338 -0.921052
H70   H     H_    0.803425 0.373467 0.673659 0.262125
H71   H     H_    0.882992 0.436993 0.717204 0.257200
H72   H     H_    0.863136 0.473451 0.644637 0.245775
N11   N     N_3   0.393960 0.640624 0.210553 -0.562616
H73   H     H_    0.416302 0.706051 0.227086 0.229178
H74   H     H_    0.327521 0.635069 0.219058 0.241292
N12   N     N_3   0.608616 0.640871 0.788693 -0.562716
H75   H     H_    0.588887 0.706645 0.771387 0.228956
H76   H     H_    0.674949 0.632612 0.780716 0.240994
O21   O     O_3   0.048829 0.652340 0.458067 -0.565437
C77   C     C_3   0.009755 0.628940 0.404847 0.081058
H77   H     H_    0.939632 0.648846 0.406299 0.163503
H78   H     H_    0.011985 0.551240 0.393739 0.091177
C78   C     C_3   0.053047 0.687624 0.358228 -0.359721
H79   H     H_    0.048529 0.765332 0.368448 0.229938
H80   H     H_    0.123029 0.668101 0.356088 0.210146
C79   C     C_3   0.010093 0.669432 0.300328 -0.912516
H81   H     H_    0.016155 0.592588 0.288609 0.267247
H82   H     H_    0.043062 0.713409 0.267737 0.257483
H83   H     H_    0.940007 0.689569 0.300873 0.262403
O22   O     O_3   0.944289 0.331963 0.463550 -0.556205
C80   C     C_3   0.967883 0.342062 0.406303 0.043989
H84   H     H_    0.033505 0.375819 0.404326 0.152161
H85   H     H_    0.920396 0.385993 0.381302 0.126023
C81   C     C_3   0.971401 0.242212 0.379645 -0.312281
H86   H     H_    0.019288 0.197241 0.403646 0.232095
H87   H     H_    0.906062 0.207723 0.382306 0.212832
C82   C     C_3   0.997532 0.246614 0.317604 -0.931918
H88   H     H_    0.951979 0.293172 0.292886 0.260940
H89   H     H_    0.995350 0.173294 0.299167 0.260359
H90   H     H_    0.064999 0.274752 0.314212 0.263009
O23   O     O_3   0.949719 0.654367 0.546227 -0.566588
C83   C     C_3   0.986447 0.635181 0.600643 0.083284
H91   H     H_    0.056187 0.657310 0.600265 0.168174
H92   H     H_    0.985238 0.558244 0.613178 0.097470
C84   C     C_3   0.939444 0.694690 0.645137 -0.359249
H93   H     H_    0.942691 0.771979 0.633538 0.228959
H94   H     H_    0.869873 0.672808 0.646210 0.210138
C85   C     C_3   0.979691 0.680807 0.704231 -0.912055
H95   H     H_    0.974705 0.604380 0.717247 0.262594
H96   H     H_    0.943959 0.725195 0.735203 0.255992
H97   H     H_    0.049299 0.703350 0.704881 0.263805
O24   O     O_3   0.055953 0.333176 0.544205 -0.554284
C86   C     C_3   0.048429 0.339116 0.603582 0.045173
H98   H     H_    0.000847 0.395591 0.614807 0.133891
H99   H     H_    0.112522 0.354807 0.624485 0.135755
C87   C     C_3   0.015432 0.242761 0.625670 -0.297725
H100  H     H_    0.948034 0.229770 0.608987 0.223166
H101  H     H_    0.058209 0.184313 0.610280 0.224511
C88   C     C_3   0.015336 0.240239 0.690372 -0.927644
H102  H     H_    0.082730 0.249694 0.707770 0.257453
H103  H     H_    0.989795 0.169868 0.704866 0.258552
H104  H     H_    0.973154 0.297874 0.707012 0.261535
N13   N     N_3   0.226374 0.670522 0.476935 -0.543315
H105  H     H_    0.203357 0.719883 0.506462 0.242392
H106  H     H_    0.208645 0.695395 0.436598 0.220380
N14   N     N_3   0.765095 0.330707 0.464753 -0.531504
H107  H     H_    0.785420 0.273080 0.490154 0.239177
H108  H     H_    0.781228 0.315301 0.422892 0.224934
N15   N     N_3   0.773180 0.671224 0.524459 -0.540467
H109  H     H_    0.798830 0.720420 0.495647 0.243034
H110  H     H_    0.787966 0.696109 0.565229 0.220912
N16   N     N_3   0.234355 0.325226 0.528516 -0.532850
H111  H     H_    0.207706 0.272393 0.501826 0.237591
H112  H     H_    0.225370 0.303298 0.570339 0.227890

loop_
_geom_bond_atom_site_label_1
_geom_bond_atom_site_label_2
_ccdc_geom_bond_type
C21   N15   S    
C74   H66   S    
O16   C62   S    
C40   N2    A    
C1    O1    A    
C70   H57   S    
Cu1   O1    S    
C63   H41   S    
C28   O7    A    
C11   N11   S    
C85   H97   S    
C32   H4    S    
N9    H13   S    
C2    O3    A    
Cu1   O7    S    
C87   H100  S    
C62   H39   S    
C54   H19   S    
C1    O4    A    
C13   N2    S    
C12   N12   S    
C84   H93   S    
N12   H75   S    
C15   C19   A    
C14   N1    S    
C56   H25   S    
O13   C53   S    
C81   H87   S    
C77   C78   S    
C17   C26   A    
C32   C36   A    
C72   H62   S    
N8    H12   S    
C86   C87   S    
C17   O23   S    
C66   H48   S    
C73   H65   S    
N6    H8    S    
C82   H90   S    
C79   H83   S    
Cu2   O6    S    
O20   C74   S    
C9    O19   S    
C44   C50   A    
O15   C59   S    
C34   N8    S    
N15   H110  S    
C29   C33   A    
C34   N4    A    
C7    C27   S    
C57   H26   S    
C30   C38   A    
C77   H78   S    
N14   H108  S    
C45   C47   A    
C88   H102  S    
C75   H68   S    
O14   C56   S    
N7    H10   S    
C35   N9    S    
N8    H11   S    
C48   C51   A    
C58   H28   S    
Cu1   Cu2   S    
C44   C46   A    
C49   C51   A    
C81   C82   S    
C64   H44   S    
C50   C52   A    
C49   N5    S    
O22   C80   S    
C32   C38   A    
Cu1   O3    S    
C74   H67   S    
C3    C13   A    
N11   H74   S    
C79   H81   S    
C18   O24   S    
C80   H84   S    
N15   H109  S    
C70   H58   S    
C73   H64   S    
C41   C43   A    
C18   C25   A    
C42   C44   A    
C67   H51   S    
C36   N4    A    
C50   N6    S    
C55   H22   S    
O24   C86   S    
C54   H20   S    
C2    O2    A    
N7    H9    S    
C22   N16   S    
C60   H34   S    
C16   C26   A    
C74   C75   S    
C46   C48   A    
C42   O12   S    
C81   H86   S    
C30   C34   A    
C78   H79   S    
C71   C72   S    
C20   C24   A    
C72   C73   S    
C85   H95   S    
C41   N1    A    
C67   H50   S    
C66   C67   S    
C42   N2    A    
C5    C7    A    
N6    H7    S    
C43   C49   A    
C6    C8    A    
C29   H1    S    
C53   C54   S    
C76   H71   S    
C25   C26   S    
N11   H73   S    
C30   H2    S    
C55   H23   S    
C17   C21   A    
C31   C37   A    
C77   H77   S    
C71   H60   S    
C19   C23   A    
N5    H5    S    
C78   H80   S    
C37   C38   S    
C80   C81   S    
C86   H98   S    
C6    O18   S    
Cu1   N4    S    
N10   H16   S    
O19   C71   S    
Cu2   O8    S    
C69   C70   S    
C16   C20   A    
C76   H72   S    
C39   N1    A    
C7    C9    A    
N16   H112  S    
O23   C83   S    
C58   H29   S    
C56   C57   S    
O18   C68   S    
C53   H18   S    
N5    H6    S    
C75   C76   S    
C80   H85   S    
C27   O8    A    
C10   C12   A    
C51   O13   S    
Cu2   O4    S    
C4    C6    A    
C88   H103  S    
C69   H55   S    
C1    C23   S    
C83   H92   S    
C9    C11   A    
C2    C24   S    
C64   H42   S    
C8    C28   S    
C31   C35   A    
C68   C69   S    
C63   C64   S    
N14   H107  S    
C61   H36   S    
C62   H38   S    
C19   N13   S    
C87   C88   S    
C79   H82   S    
N13   H105  S    
C54   C55   S    
C16   O22   S    
C39   C47   A    
O17   C65   S    
C84   C85   S    
C36   N10   S    
C40   C48   A    
C82   H88   S    
C52   O14   S    
C40   O10   S    
C28   O6    A    
C18   C22   A    
C76   H70   S    
C12   C14   A    
C67   H49   S    
C3    C5    A    
C65   C66   S    
C87   H101  S    
C60   H33   S    
C57   C58   S    
C5    O17   S    
C47   C52   A    
C65   H46   S    
Cu2   N3    S    
C10   O20   S    
C83   C84   S    
C56   H24   S    
C20   N14   S    
N12   H76   S    
C59   C60   S    
C4    O16   S    
C86   H99   S    
C71   H59   S    
C31   H3    S    
C61   H37   S    
C68   H53   S    
C63   H40   S    
C84   H94   S    
O21   C77   S    
C43   C45   A    
C3    O15   S    
C66   H47   S    
N16   H111  S    
C11   C13   A    
N10   H15   S    
C73   H63   S    
C57   H27   S    
C15   O21   S    
C35   N3    A    
C33   N3    A    
C55   H21   S    
C60   C61   S    
C59   H32   S    
C59   H31   S    
C58   H30   S    
C4    C14   A    
C53   H17   S    
Cu1   O5    S    
C75   H69   S    
C62   C63   S    
C72   H61   S    
C27   O5    A    
C65   H45   S    
N13   H106  S    
C41   O11   S    
C45   C46   A    
C88   H104  S    
C69   H54   S    
Cu2   O2    S    
C15   C25   A    
C8    C10   A    
C83   H91   S    
C21   C24   A    
C29   C37   A    
C70   H56   S    
C64   H43   S    
N9    H14   S    
C39   O9    S    
C22   C23   A    
C61   H35   S    
C68   H52   S    
C82   H89   S    
C33   N7    S    
C78   C79   S    
C85   H96   S    
