data_mof_unit_29958.cif
_audit_creation_date              2012-12-11T20:26:10-0500
_audit_creation_method            fapswitch 2.2
_symmetry_space_group_name_H-M    P1
_symmetry_Int_Tables_number       1
_space_group_crystal_system       triclinic
_cell_length_a                    8.237405
_cell_length_b                    17.358629
_cell_length_c                    18.712202
_cell_angle_alpha                 103.048298
_cell_angle_beta                  91.130662
_cell_angle_gamma                 98.354221
_cell_volume                      2575.08078891

loop_
_atom_site_label
_atom_site_type_symbol
_atom_type_description
_atom_site_fract_x
_atom_site_fract_y
_atom_site_fract_z
_atom_type_partial_charge
Ba1   Ba    Ba6+2 0.853800 0.535410 0.467450 1.630566
Ba2   Ba    Ba6+2 0.336030 0.464660 0.532560 1.623987
C1    C     C_3   0.692013 0.814276 0.284454 -0.372229
C2    C     C_3   0.643577 0.735174 0.306277 0.346931
C3    C     C_3   0.462479 0.334314 0.304764 0.312939
C4    C     C_3   0.450842 0.309194 0.221317 -0.394155
C5    C     C_3   0.061486 0.308740 0.723317 0.359914
C6    C     C_3   0.074744 0.289836 0.798508 -0.365609
C7    C     C_3   0.533177 0.261788 0.678389 0.363204
C8    C     C_3   0.500583 0.180542 0.697465 -0.368189
C9    C     C_R   0.991994 0.460640 0.045909 0.011178
C10   C     C_R   0.901295 0.416520 0.090770 -0.088798
C11   C     C_R   0.766389 0.431586 0.948961 -0.104410
C12   C     C_3   0.105820 0.700497 0.279019 0.382491
C13   C     C_R   0.929874 0.463814 0.975008 0.017397
C14   C     C_R   0.709703 0.431220 0.878421 -0.092746
C15   C     C_R   0.812886 0.463016 0.830156 -0.034607
C16   C     C_R   0.974044 0.500861 0.856076 -0.001749
C17   C     C_R   0.032380 0.502097 0.929006 0.022557
C18   C     C_R   0.759552 0.458291 0.756785 -0.008248
C19   C     C_R   0.868626 0.487921 0.709409 -0.286429
C20   C     C_R   0.024700 0.530043 0.734737 0.042889
C21   C     C_R   0.076296 0.538304 0.809460 -0.040155
C22   C     C_R   0.152584 0.499917 0.071995 0.023040
C23   C     C_3   0.092739 0.730838 0.209267 -0.374816
C24   C     C_R   0.211991 0.500178 0.144508 0.000276
C25   C     C_R   0.110950 0.461569 0.190780 -0.041854
C26   C     C_R   0.960209 0.416384 0.160908 -0.024926
C27   C     C_R   0.226072 0.583790 0.839432 -0.029032
C28   C     C_R   0.283953 0.585015 0.910010 -0.088971
C29   C     C_R   0.192808 0.541467 0.955143 0.012089
C30   C     C_R   0.254797 0.538479 0.026071 0.018309
C31   C     C_R   0.418441 0.570544 0.051897 -0.104399
C32   C     C_R   0.373653 0.537668 0.170162 -0.031598
C33   C     C_R   0.476029 0.570063 0.122017 -0.097199
C34   C     C_3   0.240737 0.708235 0.627112 0.301046
C35   C     C_R   0.428734 0.540854 0.242980 -0.010544
C36   C     C_R   0.321732 0.509374 0.289903 -0.293257
C37   C     C_R   0.164913 0.468521 0.265007 0.040632
C38   C     C_2   0.449466 0.714785 0.473405 -0.263893
C39   C     C_3   0.369313 0.762883 0.428664 -0.047315
C40   C     C_2   0.424148 0.851236 0.453120 -0.112301
C41   C     C_2   0.563308 0.880395 0.495865 -0.003235
C42   C     C_2   0.650356 0.823583 0.525632 -0.120180
C43   C     C_1   0.583694 0.747300 0.516134 0.091880
C44   C     C_R   0.803335 0.137756 0.532085 -0.127164
C45   C     C_3   0.276710 0.799203 0.646156 -0.390479
C46   C     C_R   0.860688 0.219558 0.543482 0.016000
C47   C     C_R   0.618904 0.237220 0.476511 0.032775
C48   C     C_R   0.561782 0.155284 0.464278 -0.117474
C49   C     C_R   0.652120 0.105097 0.492892 0.013602
C50   C     C_2   0.629431 0.967408 0.515163 -0.072092
C51   C     C_2   0.591867 0.018155 0.474564 -0.073829
C52   C     C_R   0.765392 0.269459 0.518285 -0.280875
C53   C     C_3   0.951433 0.287982 0.366620 0.310159
C54   C     C_3   0.918300 0.197114 0.342561 -0.395061
C55   C     C_3   0.665391 0.682650 0.710252 0.324781
C56   C     C_3   0.576269 0.720568 0.777000 -0.358672
H1    H     H_    0.685921 0.742959 0.364562 0.065330
H2    H     H_    0.380539 0.820531 0.687977 0.116676
H3    H     H_    0.309827 0.821204 0.596381 0.081726
H4    H     H_    0.166180 0.824211 0.667985 0.130283
H5    H     H_    0.838024 0.310483 0.386293 0.008201
H6    H     H_    0.048021 0.305365 0.411801 0.076865
H7    H     H_    0.814092 0.177969 0.300714 0.127899
H8    H     H_    0.887493 0.170682 0.390057 0.067242
H9    H     H_    0.029372 0.174351 0.318713 0.125151
H10   H     H_    0.598319 0.622380 0.684246 0.075920
H11   H     H_    0.826769 0.833621 0.293141 0.149576
H12   H     H_    0.642136 0.781199 0.803501 0.113823
H13   H     H_    0.569339 0.683106 0.818066 0.064254
H14   H     H_    0.450778 0.727013 0.760497 0.139437
H15   H     H_    0.508072 0.720002 0.299451 -0.052148
H16   H     H_    0.629242 0.860949 0.318617 0.069918
H17   H     H_    0.340857 0.347935 0.323761 0.016946
H18   H     H_    0.555816 0.389014 0.321282 0.063052
H19   H     H_    0.356191 0.255361 0.202639 0.124641
H20   H     H_    0.416231 0.358375 0.198099 0.057875
H21   H     H_    0.571428 0.295422 0.200788 0.119308
H22   H     H_    0.655243 0.807822 0.225720 0.108490
H23   H     H_    0.128877 0.686469 0.161965 0.074361
H24   H     H_    0.143475 0.365806 0.724526 0.091105
H25   H     H_    0.932423 0.315931 0.712242 -0.065532
H26   H     H_    0.203429 0.283724 0.812010 0.147675
H27   H     H_    0.037132 0.338630 0.841053 0.074985
H28   H     H_    0.993108 0.233092 0.798890 0.109878
H29   H     H_    0.666735 0.275820 0.671217 -0.066508
H30   H     H_    0.463845 0.257877 0.625876 0.091830
H31   H     H_    0.570513 0.182318 0.749320 0.107914
H32   H     H_    0.540034 0.134364 0.652694 0.073678
H33   H     H_    0.023647 0.642400 0.272074 0.097414
H34   H     H_    0.367370 0.164109 0.704341 0.149616
H35   H     H_    0.827643 0.482482 0.652952 0.079730
H36   H     H_    0.583412 0.405149 0.862484 0.112420
H37   H     H_    0.884470 0.380289 0.191258 0.097632
H38   H     H_    0.301118 0.619033 0.808597 0.088847
H39   H     H_    0.602736 0.595475 0.137496 0.113408
H40   H     H_    0.364193 0.513462 0.345918 0.071741
H41   H     H_    0.677020 0.407114 0.982359 0.071819
H42   H     H_    0.784460 0.379678 0.072745 0.058208
H43   H     H_    0.400420 0.622210 0.927999 0.056411
H44   H     H_    0.234342 0.689876 0.285437 -0.090130
H45   H     H_    0.507552 0.595249 0.018537 0.070886
H46   H     H_    0.512002 0.996024 0.425271 0.066989
H47   H     H_    0.765816 0.846237 0.557648 0.096835
H48   H     H_    0.880634 0.099850 0.550360 0.073903
H49   H     H_    0.711719 0.989474 0.563784 0.071134
H50   H     H_    0.351873 0.889764 0.432540 0.072881
H51   H     H_    0.449248 0.130399 0.430941 0.073200
H52   H     H_    0.409283 0.650642 0.460976 0.080830
H53   H     H_    0.811129 0.332657 0.526436 0.068194
H54   H     H_    0.965019 0.739808 0.198048 0.148263
H55   H     H_    0.176112 0.788496 0.215092 0.104439
H56   H     H_    0.352657 0.683970 0.607713 0.001337
H57   H     H_    0.142979 0.689279 0.582496 0.099406
O1    O     O_2   0.871520 0.445720 0.321500 -0.462502
O2    O     O_3   0.681672 0.734277 0.662388 -0.639686
O3    O     O_3   0.060081 0.756572 0.339406 -0.589390
O4    O     O_2   0.318180 0.554310 0.678550 -0.473592
O5    O     O_3   0.068680 0.548140 0.588860 -0.492110
O6    O     O_3   0.527520 0.406960 0.624950 -0.476821
O7    O     O_3   0.191193 0.681949 0.689925 -0.654590
O8    O     O_3   0.608500 0.402060 0.457050 -0.479842
O9    O     O_3   0.104610 0.363860 0.586060 -0.488090
O10   O     O_2   0.197540 0.221994 0.534800 -0.486038
O11   O     O_3   0.109419 0.246130 0.670356 -0.597251
O12   O     O_3   0.121030 0.451930 0.411150 -0.492830
O13   O     O_3   0.581210 0.598010 0.542960 -0.498472
O14   O     O_2   0.335820 0.303580 0.452320 -0.461075
O15   O     O_3   0.507705 0.271723 0.333223 -0.641101
O16   O     O_2   0.422302 0.466363 0.755723 -0.492647
O17   O     O_3   0.480851 0.319578 0.734889 -0.604960
O18   O     O_3   0.662190 0.593100 0.375060 -0.479009
O19   O     O_2   0.760983 0.527970 0.244262 -0.489440
O20   O     O_3   0.001667 0.318254 0.306177 -0.642704
O21   O     O_3   0.717483 0.675605 0.261133 -0.605872
O22   O     O_2   0.853880 0.696450 0.547730 -0.462798
O23   O     O_3   0.085100 0.636210 0.413950 -0.484099
O24   O     O_2   0.054257 0.784152 0.484114 -0.485157
P1    P     P_3+3 0.038810 0.422920 0.331160 0.972047
P2    P     P_3+3 0.678260 0.686080 0.568600 0.976022
P3    P     P_3+3 0.141442 0.737335 0.419531 0.953919
P4    P     P_3+3 0.150900 0.577150 0.668860 0.958146
P5    P     P_3+3 0.068456 0.261729 0.583043 0.950468
P6    P     P_3+3 0.640648 0.583488 0.280385 0.935081
P7    P     P_3+3 0.518142 0.301204 0.429291 0.948453
P8    P     P_3+3 0.548354 0.414345 0.719015 0.939197
C57   C     C_3   0.835174 0.676016 0.736429 -0.316942
H58   H     H_    0.908648 0.735998 0.758864 0.129291
H59   H     H_    0.829905 0.640752 0.779143 0.035676
H60   H     H_    0.890469 0.646301 0.687103 0.091300

loop_
_geom_bond_atom_site_label_1
_geom_bond_atom_site_label_2
_ccdc_geom_bond_type
C5    H25   S    
C53   C54   S    
C3    H17   S    
O15   P7    S    
C32   C35   A    
O4    P4    D    
C39   C40   S    
C34   O7    S    
Ba1   O13   S    
C36   H40   S    
C17   C29   A    
C15   C18   A    
C45   H4    S    
Ba1   O8    S    
C4    H21   S    
C5    C6    S    
C42   H47   S    
C50   C51   D    
C46   C52   A    
C24   C25   A    
C35   C36   A    
C10   C26   A    
C26   H37   S    
C21   C27   A    
C1    H11   S    
C22   C24   A    
C32   C33   A    
C7    H30   S    
C28   C29   A    
O24   P3    D    
C54   H8    S    
C41   C50   S    
C12   H44   S    
O10   P5    D    
C47   C52   A    
C9    C22   A    
Ba2   O14   S    
C46   P5    S    
C34   C45   S    
Ba1   Ba2   S    
C1    H16   S    
C23   H54   S    
C45   H2    S    
C13   C17   A    
C9    C13   A    
C24   C32   A    
C50   H49   S    
C25   C37   A    
C14   C15   A    
C12   O3    S    
C53   H5    S    
C20   P4    S    
C47   P7    S    
O6    P8    S    
O16   P8    D    
Ba1   O1    S    
C7    C8    S    
O21   P6    S    
C2    O21   S    
Ba2   O12   S    
C8    H34   S    
C5    O11   S    
C31   H45   S    
C19   C20   A    
C23   H23   S    
Ba2   P4    S    
O20   P1    S    
O5    P4    S    
O7    P4    S    
Ba1   O18   S    
C1    H22   S    
C48   C49   A    
C38   C43   D    
C44   C46   A    
C16   C21   A    
C57   H60   S    
C36   C37   A    
C57   H58   S    
C8    H31   S    
O23   P3    S    
C34   H56   S    
Ba2   O5    S    
C16   C17   A    
C4    H19   S    
C38   H52   S    
C7    O17   S    
Ba2   O8    S    
C44   C49   A    
C6    H27   S    
C48   H51   S    
C49   C51   S    
Ba1   O5    S    
C11   H41   S    
O2    P2    S    
C41   C42   S    
C22   C30   A    
C27   C28   A    
C23   H55   S    
C29   C30   A    
O8    P7    S    
Ba2   O4    S    
C53   H6    S    
C15   C16   A    
O14   P7    D    
C18   P8    S    
C2    H15   S    
Ba1   P1    S    
C43   P2    S    
C3    O15   S    
C11   C13   A    
C11   C14   A    
O18   P6    S    
O12   P1    S    
C55   H10   S    
C1    C2    S    
Ba1   O22   S    
C42   C43   D    
C55   O2    S    
O13   P2    S    
Ba2   O6    S    
O19   P6    D    
O22   P2    D    
C37   P1    S    
C38   C39   S    
C6    H26   S    
O17   P8    S    
C56   H12   S    
Ba1   O12   S    
C57   H59   S    
O3    P3    S    
C45   H3    S    
C27   H38   S    
C9    C10   A    
Ba2   O9    S    
C54   H9    S    
C4    H20   S    
C14   H36   S    
C30   C31   A    
C3    H18   S    
C39   P3    S    
C7    H29   S    
C56   H14   S    
C55   C56   S    
C3    C4    S    
C19   H35   S    
C53   O20   S    
C44   H48   S    
C2    H1    S    
O11   P5    S    
C31   C33   A    
C28   H43   S    
C52   H53   S    
C6    H28   S    
C12   C23   S    
C56   H13   S    
C12   H33   S    
C10   H42   S    
Ba1   P2    S    
C5    H24   S    
C18   C19   A    
C8    H32   S    
C47   C48   A    
C40   C41   D    
C55   C57   S    
C25   C26   A    
C20   C21   A    
O9    P5    S    
C51   H46   S    
C35   P6    S    
C33   H39   S    
C34   H57   S    
C40   H50   S    
Ba1   O23   S    
C54   H7    S    
O1    P1    D    
Ba2   O13   S    
