data_mof_unit_7458.cif
_audit_creation_date              2012-12-11T14:19:29-0500
_audit_creation_method            fapswitch 2.2
_symmetry_space_group_name_H-M    P1
_symmetry_Int_Tables_number       1
_space_group_crystal_system       triclinic
_cell_length_a                    19.532184
_cell_length_b                    7.241868
_cell_length_c                    17.616043
_cell_angle_alpha                 89.999193
_cell_angle_beta                  107.69104
_cell_angle_gamma                 90.000646
_cell_volume                      2373.9416915

loop_
_atom_site_label
_atom_site_type_symbol
_atom_type_description
_atom_site_fract_x
_atom_site_fract_y
_atom_site_fract_z
_atom_type_partial_charge
O1    O     O_R   0.414820 0.494320 0.416790 -0.538184
O2    O     O_R   0.585180 0.994320 0.583210 -0.538184
O3    O     O_R   0.560270 0.819500 0.430140 -0.543359
O4    O     O_R   0.439730 0.319500 0.569860 -0.543347
C1    C     C_R   0.580855 0.655421 0.414393 0.711227
C2    C     C_R   0.419145 0.155419 0.585607 0.711226
O5    O     O_R   0.413840 0.823740 0.407440 -0.541033
O6    O     O_R   0.586160 0.323740 0.592560 -0.541033
O7    O     O_R   0.437710 0.998590 0.560350 -0.538915
O8    O     O_R   0.562290 0.498590 0.439650 -0.538924
C3    C     C_R   0.387364 0.654466 0.385775 0.743521
C4    C     C_R   0.612636 0.154466 0.614225 0.743510
O9    O     O_3   0.508000 0.662290 0.550200 -0.379720
O10   O     O_3   0.492000 0.162290 0.449800 -0.379730
V1    V     V_3+5 0.498520 0.935380 0.490690 1.392034
V2    V     V_3+5 0.501480 0.435380 0.509310 1.392044
C5    C     C_2   0.790452 0.273628 0.776335 0.108406
C6    C     C_2   0.209542 0.773619 0.223672 0.108409
C7    C     C_2   0.817315 0.119845 0.820443 -0.361574
C8    C     C_2   0.182684 0.619843 0.179559 -0.361557
H1    H     H_    0.784046 0.996928 0.812587 0.132180
H2    H     H_    0.215956 0.496935 0.187410 0.132167
C9    C     C_2   0.714335 0.278683 0.723409 -0.153250
C10   C     C_2   0.285660 0.778686 0.276597 -0.153251
C11   C     C_2   0.682715 0.137284 0.676947 -0.343812
C12   C     C_2   0.317285 0.637282 0.323053 -0.343815
H3    H     H_    0.685754 0.408987 0.717311 0.140522
H4    H     H_    0.314236 0.908999 0.282701 0.140523
H5    H     H_    0.710823 0.006332 0.681544 0.141309
H6    H     H_    0.289181 0.506322 0.318451 0.141309
C13   C     C_R   0.320707 0.000594 0.625207 -0.218528
C14   C     C_R   0.679233 0.500491 0.374722 -0.218553
C15   C     C_R   0.369966 0.146789 0.635162 -0.080525
C16   C     C_R   0.630032 0.646796 0.364833 -0.080537
C17   C     C_R   0.370887 0.285781 0.691383 -0.220560
C18   C     C_R   0.629167 0.785898 0.308676 -0.220593
C19   C     C_R   0.323389 0.278736 0.737410 0.093190
C20   C     C_R   0.676663 0.778856 0.262648 0.093155
C21   C     C_R   0.272900 0.133705 0.725593 0.061949
C22   C     C_R   0.727094 0.633709 0.274399 0.061977
C23   C     C_R   0.271602 0.994906 0.669024 0.096249
C24   C     C_R   0.728337 0.494797 0.330904 0.096211
C25   C     C_R   0.325113 0.414735 0.794686 -0.183033
C26   C     C_R   0.674996 0.914972 0.205437 -0.183056
C27   C     C_R   0.277669 0.406398 0.840236 -0.173543
C28   C     C_R   0.722437 0.906635 0.159883 -0.173561
C29   C     C_R   0.226350 0.264661 0.827915 0.089309
C30   C     C_R   0.773698 0.764776 0.172138 0.089274
C31   C     C_R   0.223074 0.128885 0.769598 0.021742
C32   C     C_R   0.776920 0.628885 0.230395 0.021763
C33   C     C_R   0.169009 0.991597 0.753540 0.068675
C34   C     C_R   0.830937 0.491482 0.246399 0.068644
C35   C     C_R   0.169619 0.852738 0.697289 -0.198213
C36   C     C_R   0.830271 0.352510 0.302582 -0.198222
C37   C     C_R   0.220599 0.853637 0.656398 -0.190045
C38   C     C_R   0.779285 0.353411 0.343466 -0.190086
C39   C     C_R   0.179022 0.255592 0.873731 -0.249724
C40   C     C_R   0.821022 0.755701 0.126318 -0.249759
C41   C     C_R   0.124298 0.121733 0.858392 -0.107090
C42   C     C_R   0.875702 0.621730 0.141609 -0.107112
C43   C     C_R   0.114815 0.999814 0.792399 0.088231
C44   C     C_R   0.885144 0.499706 0.207561 0.088246
H7    H     H_    0.319165 0.893776 0.581568 0.124658
H8    H     H_    0.680734 0.393584 0.418311 0.124692
H9    H     H_    0.409058 0.398391 0.699872 0.127379
H10   H     H_    0.591042 0.898597 0.300237 0.127412
H11   H     H_    0.363466 0.527088 0.804610 0.128342
H12   H     H_    0.636689 0.027421 0.195566 0.128377
H13   H     H_    0.280595 0.512248 0.884592 0.125839
H14   H     H_    0.719555 0.012578 0.115577 0.125863
H15   H     H_    0.184744 0.353945 0.921691 0.135036
H16   H     H_    0.815334 0.854144 0.078398 0.135077
H17   H     H_    0.131048 0.741350 0.684146 0.132456
H18   H     H_    0.868800 0.241030 0.315674 0.132483
H19   H     H_    0.219220 0.745020 0.613623 0.126926
H20   H     H_    0.780619 0.244702 0.386187 0.126963
O11   O     O_R   0.937810 0.773680 0.060480 -0.533839
O12   O     O_R   0.062190 0.273680 0.939520 -0.533831
O13   O     O_R   0.086190 0.439740 0.092580 -0.545235
O14   O     O_R   0.913810 0.939740 0.907420 -0.545237
C45   C     C_R   0.112361 0.609333 0.115275 0.714409
C46   C     C_R   0.887638 0.109334 0.884726 0.714403
O15   O     O_R   0.939760 0.444210 0.069890 -0.543597
O16   O     O_R   0.060240 0.944210 0.930110 -0.543589
O17   O     O_R   0.914790 0.269640 0.916760 -0.535659
O18   O     O_R   0.085210 0.769640 0.083240 -0.535659
C47   C     C_R   0.921613 0.612897 0.087765 0.694557
C48   C     C_R   0.078387 0.112898 0.912236 0.694567
O19   O     O_3   0.992050 0.601530 0.949880 -0.378012
O20   O     O_3   0.007950 0.101530 0.050120 -0.378020
V3    V     V_3+5 0.001480 0.328340 0.009300 1.374146
V4    V     V_3+5 0.998520 0.828340 0.990700 1.374154
C49   C     C_3   0.835977 0.446579 0.779994 -0.283041
C50   C     C_3   0.808252 0.574775 0.707356 -0.351416
C51   C     C_3   0.864218 0.718589 0.704935 -0.784587
H21   H     H_    0.879275 0.801657 0.760367 0.242990
H22   H     H_    0.912771 0.649035 0.698392 0.225077
H23   H     H_    0.841917 0.812291 0.653433 0.222716
H24   H     H_    0.795235 0.492803 0.651368 0.208486
H25   H     H_    0.759145 0.648347 0.710107 0.185811
H26   H     H_    0.838519 0.525651 0.834873 0.182766
H27   H     H_    0.891262 0.403520 0.782562 0.181962
C52   C     C_3   0.164010 0.946550 0.220020 -0.283053
C53   C     C_3   0.191728 0.074733 0.292661 -0.351447
C54   C     C_3   0.135761 0.218544 0.295076 -0.784588
H28   H     H_    0.120719 0.301640 0.239651 0.242982
H29   H     H_    0.087201 0.148980 0.301594 0.225081
H30   H     H_    0.158051 0.312218 0.346588 0.222724
H31   H     H_    0.204738 0.992752 0.348645 0.208483
H32   H     H_    0.240836 0.148308 0.289919 0.185824
H33   H     H_    0.161463 0.025640 0.165145 0.182785
H34   H     H_    0.108728 0.903462 0.217454 0.181939
C55   C     C_3   0.043265 0.901520 0.755396 -0.347828
C56   C     C_3   0.002721 0.985414 0.673496 -0.323739
C57   C     C_3   0.964803 0.165403 0.681851 -0.749684
H35   H     H_    0.924204 0.139473 0.713104 0.218652
H36   H     H_    0.004234 0.269155 0.715659 0.229362
H37   H     H_    0.936891 0.222195 0.621869 0.213302
H38   H     H_    0.039355 0.012154 0.637359 0.204149
H39   H     H_    0.962004 0.885810 0.639049 0.185626
H40   H     H_    0.052372 0.751693 0.749629 0.135213
H41   H     H_    0.006882 0.908976 0.792565 0.189371
C58   C     C_3   0.956680 0.401360 0.244572 -0.347811
C59   C     C_3   0.997204 0.485167 0.326496 -0.323719
C60   C     C_3   0.035119 0.665202 0.318193 -0.749661
H42   H     H_    0.075724 0.639362 0.286940 0.218640
H43   H     H_    0.995687 0.768979 0.284408 0.229369
H44   H     H_    0.063023 0.721917 0.378192 0.213285
H45   H     H_    0.960555 0.511821 0.362622 0.204152
H46   H     H_    0.037919 0.385549 0.360933 0.185616
H47   H     H_    0.947561 0.251527 0.250306 0.135202
H48   H     H_    0.993085 0.408857 0.207428 0.189377

loop_
_geom_bond_atom_site_label_1
_geom_bond_atom_site_label_2
_ccdc_geom_bond_type
O15   C47   A    
O11   V4    S    
O4    V2    S    
C49   C50   S    
C38   H20   S    
C58   H48   S    
C51   H21   S    
O1    C3    A    
O2    C4    A    
C2    O7    A    
C56   C57   S    
O17   V3    S    
C51   H23   S    
C58   C59   S    
C29   C31   A    
O5    C3    A    
C54   H29   S    
C5    C9    S    
C6    C10   S    
C42   C44   A    
C7    H1    S    
C10   C12   D    
C53   H31   S    
C18   H10   S    
C39   C41   A    
C17   H9    S    
C40   C42   A    
C57   H35   S    
C52   H33   S    
C27   C29   A    
C41   C48   S    
C23   C37   A    
C24   C38   A    
C36   H18   S    
C55   H41   S    
C26   C28   A    
C31   C33   A    
C33   C43   A    
C60   H44   S    
C32   C34   A    
C13   C15   A    
C9    H3    S    
C7    C46   S    
O13   V3    S    
C56   H38   S    
C37   H19   S    
C30   C32   A    
O6    V2    S    
C8    C45   S    
C53   C54   S    
C42   C47   S    
C34   C36   A    
C36   C38   A    
C35   C37   A    
C11   H5    S    
C54   H30   S    
C28   C30   A    
C41   C43   A    
C27   H13   S    
C13   H7    S    
C14   H8    S    
C21   C23   A    
C49   H26   S    
O13   C45   A    
C5    C7    D    
C3    C12   S    
C57   H36   S    
C52   H34   S    
C33   C35   A    
C14   C16   A    
C19   C25   A    
C25   H11   S    
C20   C26   A    
C29   C39   A    
C50   H25   S    
O6    C4    A    
C57   H37   S    
C1    C16   S    
C45   O18   A    
C59   H46   S    
O1    V2    S    
C39   H15   S    
O19   V4    S    
O2    V1    S    
C25   C27   A    
O11   C47   A    
O4    C2    A    
C21   C31   A    
C8    H2    S    
C12   H6    S    
C43   C55   S    
C60   H42   S    
C53   H32   S    
C26   H12   S    
C5    C49   S    
O18   V4    S    
O3    V1    S    
C17   C19   A    
C55   C56   S    
O12   C48   A    
C13   C23   A    
C58   H47   S    
C35   H17   S    
C10   H4    S    
C22   C24   A    
O3    C1    A    
C49   H27   S    
C51   H22   S    
C30   C40   A    
O12   V3    S    
C46   O17   A    
O15   V3    S    
C54   H28   S    
C2    C15   S    
C4    C11   S    
C18   C20   A    
O7    V1    S    
C1    O8    A    
O14   V4    S    
C34   C44   A    
C20   C22   A    
C40   H16   S    
O20   V3    S    
O16   C48   A    
C50   H24   S    
C22   C32   A    
O5    V1    S    
C15   C17   A    
O14   C46   A    
C44   C58   S    
C59   H45   S    
C6    C8    D    
C6    C52   S    
C9    C11   D    
C50   C51   S    
C28   H14   S    
C55   H40   S    
C16   C18   A    
C19   C21   A    
O9    V2    S    
C52   C53   S    
C60   H43   S    
C14   C24   A    
O10   V1    S    
O8    V2    S    
O16   V4    S    
C56   H39   S    
C59   C60   S    
