data_mof_unit_47059.cif
_audit_creation_date              2012-12-11T15:29:13-0500
_audit_creation_method            fapswitch 2.2
_symmetry_space_group_name_H-M    P1
_symmetry_Int_Tables_number       1
_space_group_crystal_system       triclinic
_cell_length_a                    13.489717
_cell_length_b                    13.499089
_cell_length_c                    27.582192
_cell_angle_alpha                 90.53306
_cell_angle_beta                  89.972902
_cell_angle_gamma                 60.031963
_cell_volume                      4350.91013711

loop_
_atom_site_label
_atom_site_type_symbol
_atom_type_description
_atom_site_fract_x
_atom_site_fract_y
_atom_site_fract_z
_atom_type_partial_charge
C1    C     C_R   0.620126 0.100997 0.569991 0.546102
C2    C     C_1   0.647569 0.708005 0.658327 -0.058985
C3    C     C_3   0.113243 0.107740 0.738672 -0.121475
C4    C     C_R   0.599532 0.779595 0.568538 0.545797
C5    C     C_3   0.209498 0.053314 0.777223 -0.119181
C6    C     C_1   0.100163 0.198749 0.900851 0.015170
C7    C     C_1   0.231208 0.136937 0.617375 -0.015326
C8    C     C_3   0.056131 0.219866 0.768654 0.056480
C9    C     C_3   0.151285 0.165919 0.806614 0.065618
C10   C     C_3   0.124480 0.265076 0.741011 -0.116969
C11   C     C_3   0.182712 0.152412 0.711798 0.036291
C12   C     C_1   0.630027 0.733777 0.616273 -0.015642
C13   C     C_3   0.220654 0.210415 0.779407 -0.118853
C14   C     C_3   0.279435 0.097612 0.749371 -0.106771
C15   C     C_1   0.129067 0.178968 0.858937 -0.009314
C16   C     C_R   0.278007 0.121528 0.569452 0.545549
C17   C     C_1   0.204455 0.145201 0.659514 -0.056382
C18   C     C_3   0.685270 0.243192 0.737842 -0.095013
C19   C     C_3   0.583979 0.283279 0.773965 -0.095475
C20   C     C_1   0.690986 0.206193 0.901593 -0.000500
C21   C     C_1   0.634433 0.132213 0.618197 -0.016076
C22   C     C_3   0.762220 0.143951 0.772051 -0.085540
C23   C     C_3   0.670949 0.575248 0.768028 -0.088002
C24   C     C_3   0.660807 0.183758 0.807420 0.057962
C25   C     C_3   0.724880 0.065556 0.746384 -0.110247
C26   C     C_3   0.648157 0.165004 0.712895 0.049019
C27   C     C_3   0.623653 0.105495 0.782474 -0.112351
C28   C     C_R   0.622019 0.100341 0.431594 0.542419
C29   C     C_3   0.546585 0.204745 0.748161 -0.104687
C30   C     C_1   0.673297 0.194818 0.859651 -0.040010
C31   C     C_1   0.641848 0.150495 0.660496 -0.059467
C32   C     C_R   0.639266 0.723580 0.382716 0.023743
C33   C     C_R   0.721977 0.737671 0.357673 -0.126371
C34   C     C_3   0.677561 0.658045 0.804842 0.058640
C35   C     C_R   0.734051 0.720762 0.308030 -0.124875
C36   C     C_R   0.666431 0.685774 0.282921 0.037671
C37   C     C_R   0.591922 0.660595 0.308612 -0.121732
C38   C     C_R   0.577701 0.680285 0.358317 -0.131971
C39   C     C_R   0.574441 0.707107 0.202604 -0.124000
C40   C     C_R   0.601858 0.777043 0.430391 0.540188
C41   C     C_R   0.583857 0.683268 0.153186 -0.132147
C42   C     C_R   0.788326 0.611764 0.157319 -0.126837
C43   C     C_R   0.779350 0.632950 0.206717 -0.122877
C44   C     C_R   0.673143 0.676489 0.230009 0.037672
C45   C     C_3   0.572141 0.678705 0.742216 -0.108731
C46   C     C_R   0.691809 0.630391 0.130833 0.024237
C47   C     C_R   0.228041 0.135953 0.383163 0.024042
C48   C     C_R   0.260070 0.039143 0.353706 -0.132552
C49   C     C_R   0.235091 0.051535 0.304738 -0.079874
C50   C     C_R   0.174173 0.160800 0.284841 0.067576
C51   C     C_R   0.137017 0.257987 0.314591 -0.123218
C52   C     C_R   0.279433 0.119870 0.430958 0.542214
C53   C     C_R   0.164704 0.245607 0.363592 -0.130224
C54   C     C_R   0.177352 0.245574 0.206143 -0.175377
C55   C     C_R   0.150816 0.263372 0.157180 -0.149409
C56   C     C_3   0.660928 0.687661 0.710519 0.048595
C57   C     C_R   0.079118 0.130633 0.160382 -0.119950
C58   C     C_R   0.105812 0.111622 0.209610 0.269825
C59   C     C_R   0.151909 0.172817 0.232734 0.044309
C60   C     C_R   0.099023 0.208073 0.134329 -0.017528
C61   C     C_R   0.641571 0.140342 0.385360 0.022609
C62   C     C_R   0.548775 0.231455 0.361928 -0.125576
C63   C     C_R   0.557154 0.252261 0.313386 -0.124067
C64   C     C_3   0.759577 0.584645 0.735575 -0.093306
C65   C     C_R   0.659080 0.183727 0.287779 0.037029
C66   C     C_R   0.755162 0.099623 0.312344 -0.112792
C67   C     C_3   0.578872 0.761134 0.779751 -0.111214
C68   C     C_R   0.746313 0.077491 0.360825 -0.129624
C69   C     C_R   0.722160 0.098538 0.205356 -0.109556
C70   C     C_R   0.732922 0.110112 0.155944 -0.124882
C71   C     C_R   0.617782 0.316351 0.164754 -0.127410
C72   C     C_R   0.608473 0.304853 0.214267 -0.119656
C73   C     C_R   0.663277 0.196018 0.235119 0.042188
C74   C     C_R   0.683747 0.219248 0.135625 0.024057
C75   C     C_R   0.050500 0.234518 0.948175 0.554829
C76   C     C_3   0.766418 0.667054 0.773198 -0.092378
C77   C     C_R   0.711976 0.561917 0.946436 0.553150
C78   C     C_3   0.667444 0.770636 0.747256 -0.106514
C79   C     C_R   0.722578 0.224060 0.949123 0.553478
C80   C     C_R   0.046864 0.244077 0.086592 0.543824
C81   C     C_R   0.709121 0.572455 0.084194 0.538719
C82   C     C_R   0.720002 0.233485 0.087585 0.539420
C83   C     C_1   0.696885 0.608534 0.898832 0.001808
C84   C     C_2   0.929753 0.289164 0.777420 0.194266
C85   C     C_3   0.112068 0.937800 0.216198 -0.023954
C86   C     C_3   0.115600 0.856706 0.254975 -0.377027
C87   C     C_1   0.687189 0.635917 0.856936 -0.036488
Cr1   Cr    Cr6+3 0.417550 0.169090 0.500530 1.020744
Cr2   Cr    Cr6+3 0.669180 0.913420 0.499920 1.019747
Cr3   Cr    Cr6+3 0.413260 0.917540 0.499520 1.022121
Cr4   Cr    Cr6+3 0.909770 0.175810 0.018240 1.022377
Cr5   Cr    Cr6+3 0.913300 0.427650 0.016090 1.026704
Cr6   Cr    Cr6+3 0.657770 0.431010 0.016900 1.023606
H1    H     H_    0.846148 0.662515 0.786602 0.108545
H2    H     H_    0.770750 0.771150 0.375557 0.132952
H3    H     H_    0.833606 0.512770 0.716702 0.095185
H4    H     H_    0.490877 0.744940 0.219681 0.095718
H5    H     H_    0.508176 0.699543 0.133187 0.120455
H6    H     H_    0.791924 0.741058 0.289123 0.097510
H7    H     H_    0.856856 0.608334 0.226963 0.100525
H8    H     H_    0.872810 0.570986 0.140952 0.134170
H9    H     H_    0.542025 0.629300 0.290090 0.099871
H10   H     H_    0.514188 0.667908 0.377058 0.123992
H11   H     H_    0.311464 0.953460 0.367666 0.132663
H12   H     H_    0.265400 0.251915 0.796458 0.105304
H13   H     H_    0.215396 0.290668 0.223647 0.112529
H14   H     H_    0.166236 0.323832 0.137785 0.134859
H15   H     H_    0.665957 0.851253 0.738013 0.103453
H16   H     H_    0.267092 0.975676 0.282058 0.124126
H17   H     H_    0.034561 0.091515 0.143490 0.132866
H18   H     H_    0.088998 0.343040 0.299652 0.106318
H19   H     H_    0.140240 0.321116 0.385745 0.123450
H20   H     H_    0.466853 0.281674 0.379972 0.132282
H21   H     H_    0.762105 0.013470 0.220441 0.100663
H22   H     H_    0.784050 0.034143 0.134044 0.119659
H23   H     H_    0.088611 0.352164 0.725815 0.099679
H24   H     H_    0.481787 0.317566 0.295312 0.098931
H25   H     H_    0.562924 0.381345 0.236468 0.101356
H26   H     H_    0.504844 0.833693 0.798351 0.099955
H27   H     H_    0.580428 0.401652 0.150034 0.133502
H28   H     H_    0.835841 0.048334 0.293593 0.123643
H29   H     H_    0.819421 0.007619 0.378262 0.126079
H30   H     H_    0.492387 0.683186 0.728868 0.107784
H31   H     H_    0.671751 0.494928 0.777195 0.130373
H32   H     H_    0.245044 0.966360 0.792494 0.104381
H33   H     H_    0.068213 0.066566 0.721583 0.098943
H34   H     H_    0.525901 0.372926 0.785936 0.105136
H35   H     H_    0.372284 0.046869 0.740790 0.107626
H36   H     H_    0.872424 0.320387 0.746747 0.075224
H37   H     H_    0.200022 0.901117 0.200626 0.110657
H38   H     H_    0.052055 0.942465 0.187521 0.132095
H39   H     H_    0.028778 0.888613 0.270479 0.149441
H40   H     H_    0.146123 0.770520 0.238823 0.088647
H41   H     H_    0.174757 0.849746 0.284440 0.147851
H42   H     H_    0.709868 0.299833 0.718805 0.095098
H43   H     H_    0.457685 0.229779 0.737688 0.106609
H44   H     H_    0.598260 0.049059 0.801211 0.100676
H45   H     H_    0.783109 0.975900 0.734453 0.103942
H46   H     H_    0.851330 0.118172 0.782437 0.128835
O1    O     O_R   0.301780 0.195490 0.553940 -0.507689
O2    O     O_R   0.636050 0.541380 0.962520 -0.508742
O3    O     O_R   0.666480 0.323610 0.968170 -0.492404
O4    O     O_R   0.522450 0.158840 0.550250 -0.494269
O5    O     O_R   0.817280 0.156800 0.072180 -0.524101
O6    O     O_R   0.005110 0.187160 0.067410 -0.510281
O7    O     O_R   0.026450 0.340060 0.069950 -0.520034
O8    O     O_R   0.808300 0.527240 0.065170 -0.508080
O9    O     O_R   0.634070 0.548770 0.069460 -0.523752
O10   O     O_R   0.664650 0.330470 0.067300 -0.505401
O11   O     O_3   0.826940 0.344820 0.017080 -0.241941
O12   O     O_R   0.658840 0.818280 0.449970 -0.506047
O13   O     O_R   0.694460 0.003360 0.553820 -0.507078
O14   O     O_R   0.657750 0.819520 0.549120 -0.494648
O15   O     O_R   0.501990 0.803120 0.552700 -0.506612
O16   O     O_R   0.318230 0.023430 0.549370 -0.493358
O17   O     O_R   0.302950 0.194150 0.446980 -0.519982
O18   O     O_R   0.523540 0.157600 0.451100 -0.504843
O19   O     O_R   0.695630 0.002030 0.446860 -0.521797
O20   O     O_2   0.890712 0.310552 0.818537 -0.514648
O21   O     O_3   0.072815 0.047191 0.237267 -0.556840
O22   O     O_R   0.503160 0.801780 0.445740 -0.522958
O23   O     O_R   0.319320 0.022190 0.450230 -0.504190
O24   O     O_3   0.499990 0.000010 0.499990 -0.245208
O25   O     O_R   0.819250 0.149410 0.965240 -0.504879
O26   O     O_R   0.006940 0.180310 0.968270 -0.491788
O27   O     O_R   0.028420 0.332670 0.963010 -0.504413
O28   O     O_R   0.810130 0.520390 0.966030 -0.488978

loop_
_geom_bond_atom_site_label_1
_geom_bond_atom_site_label_2
_ccdc_geom_bond_type
C83   C87   T    
C63   C65   A    
C1    C21   S    
C23   C45   S    
C27   C29   S    
C66   C68   A    
C35   C36   A    
C18   C26   S    
C24   C27   S    
C79   O25   A    
C2    C12   T    
C3    H33   S    
C14   H35   S    
Cr2   O19   S    
C39   C41   A    
C20   C30   T    
C85   C86   S    
C45   H30   S    
C5    C9    S    
C21   C31   T    
C37   C38   A    
C71   H27   S    
Cr3   O23   S    
C50   C59   S    
Cr1   O17   S    
C36   C37   A    
C76   C78   S    
C4    O15   A    
C37   H9    S    
C63   H24   S    
C11   C14   S    
C39   H4    S    
C79   O3    A    
C52   O23   A    
C77   C83   S    
C48   H11   S    
Cr5   O28   S    
C84   H36   S    
C56   C78   S    
C1    O13   A    
C78   H15   S    
C18   C19   S    
C42   C46   A    
C9    C13   S    
Cr1   O1    S    
C76   H1    S    
C6    C15   T    
Cr6   O10   S    
C86   H41   S    
Cr2   O13   S    
C80   O6    A    
C57   H17   S    
C45   C56   S    
C8    C9    S    
C7    C17   T    
C22   C25   S    
C70   C74   A    
C41   C46   A    
C56   C64   S    
C69   C73   A    
C85   O21   S    
C32   C38   A    
C4    C12   S    
Cr1   O4    S    
C16   O16   A    
C61   C62   A    
C47   C53   A    
C28   C61   S    
C23   C34   S    
C80   O7    A    
C4    O14   A    
C26   C31   S    
C18   C22   S    
C55   C60   A    
Cr5   O8    S    
Cr6   O11   S    
C16   O1    A    
C67   C78   S    
C74   C82   S    
C35   H6    S    
C33   H2    S    
C84   O20   D    
C24   C30   S    
C54   C59   A    
C77   O28   A    
C69   H21   S    
C54   H13   S    
Cr3   O22   S    
Cr5   O7    S    
C6    C75   S    
C43   H7    S    
C64   H3    S    
C62   H20   S    
C13   H12   S    
C3    C8    S    
C65   C73   S    
C68   H29   S    
C57   C60   A    
Cr6   O9    S    
C81   O8    A    
C25   C26   S    
C22   H46   S    
C40   O12   A    
C55   H14   S    
C51   C53   A    
C43   C44   A    
C45   C67   S    
C38   H10   S    
C1    O4    A    
C85   H37   S    
Cr4   O11   S    
C46   C81   S    
C86   H40   S    
Cr2   O14   S    
C47   C48   A    
Cr2   O12   S    
C81   O9    A    
C62   C63   A    
C28   O19   A    
C50   C51   A    
C64   C76   S    
C66   H28   S    
C18   H42   S    
C75   O26   A    
C27   H44   S    
Cr1   O18   S    
C5    C14   S    
C47   C52   S    
C53   H19   S    
C82   O5    A    
C23   C64   S    
C49   C50   A    
Cr5   O11   S    
C22   C24   S    
Cr4   O25   S    
C36   C44   S    
C52   O17   A    
C42   C43   A    
C5    H32   S    
C19   C29   S    
C42   H8    S    
Cr4   O6    S    
Cr6   O2    S    
C49   H16   S    
Cr4   O5    S    
C54   C55   A    
C60   C80   S    
C51   H18   S    
C20   C79   S    
C8    C84   S    
Cr4   O26   S    
C7    C16   S    
C72   C73   A    
C3    C5    S    
C10   C13   S    
C11   C17   S    
C34   C67   S    
C71   C74   A    
C39   C44   A    
C70   H22   S    
C25   C27   S    
Cr1   O24   S    
Cr3   O24   S    
C32   C33   A    
C25   H45   S    
C58   C59   A    
C40   O22   A    
C58   O21   S    
C85   H38   S    
Cr3   O15   S    
C61   C68   A    
C86   H39   S    
C57   C58   A    
C48   C49   A    
C19   H34   S    
C28   O18   A    
C33   C35   A    
C19   C24   S    
C75   O27   A    
C34   C87   S    
C32   C40   S    
C9    C15   S    
C69   C70   A    
C10   H23   S    
C77   O2    A    
C82   O10   A    
C3    C11   S    
C10   C11   S    
Cr5   O27   S    
C71   C72   A    
C29   H43   S    
C26   C29   S    
C8    C10   S    
C65   C66   A    
C72   H25   S    
C41   H5    S    
C2    C56   S    
Cr3   O16   S    
C13   C14   S    
C23   H31   S    
C67   H26   S    
Cr2   O24   S    
Cr6   O3    S    
C34   C76   S    
