data_mof_unit_11079.cif
_audit_creation_date              2012-10-26T20:08:15-0400
_audit_creation_method            fapswitch 2.2
_symmetry_space_group_name_H-M    P1
_symmetry_Int_Tables_number       1
_space_group_crystal_system       triclinic
_cell_length_a                    10.983268
_cell_length_b                    10.829851
_cell_length_c                    9.696355
_cell_angle_alpha                 90.452066
_cell_angle_beta                  92.883717
_cell_angle_gamma                 96.220873
_cell_volume                      1145.00710004

loop_
_atom_site_label
_atom_site_type_symbol
_atom_type_description
_atom_site_fract_x
_atom_site_fract_y
_atom_site_fract_z
_atom_type_partial_charge
Br1   Br    Br    0.328754 0.279097 0.820482 -0.477750
Br2   Br    Br    0.671208 0.720930 0.179515 -0.477744
Br3   Br    Br    0.818521 0.302868 0.295723 -0.562885
Br4   Br    Br    0.181553 0.697178 0.704281 -0.563115
Br5   Br    Br    0.344203 0.268154 0.152932 -0.467521
Br6   Br    Br    0.655746 0.731876 0.847080 -0.467588
C1    C     C_R   0.500941 0.262693 0.499733 0.580268
C2    C     C_R   0.495803 0.064281 0.624584 -0.103399
C3    C     C_R   0.497887 0.871328 0.500159 0.031173
C4    C     C_R   0.502091 0.128670 0.499839 0.031174
C5    C     C_R   0.434389 0.406807 0.068621 0.262387
C6    C     C_R   0.565605 0.593195 0.931380 0.262373
C7    C     C_R   0.432853 0.407828 0.921192 0.250710
C8    C     C_R   0.567145 0.592172 0.078808 0.250768
C9    C     C_R   0.262508 0.503488 0.496236 0.582175
C10   C     C_R   0.737497 0.496536 0.503762 0.582141
C11   C     C_R   0.168789 0.556540 0.041034 -0.101429
C12   C     C_R   0.499052 0.737307 0.500267 0.580246
C13   C     C_R   0.831452 0.444007 0.959097 -0.101482
C14   C     C_R   0.141816 0.554410 0.179800 -0.071911
C15   C     C_R   0.858283 0.445984 0.820301 -0.071842
C16   C     C_R   0.091432 0.443783 0.240126 0.070042
C17   C     C_R   0.908582 0.556537 0.759785 0.070118
C18   C     C_R   0.069110 0.335420 0.157984 -0.018991
C19   C     C_R   0.930916 0.664996 0.841751 -0.018859
C20   C     C_R   0.088608 0.340036 0.016750 -0.066044
C21   C     C_R   0.911572 0.660536 0.983014 -0.065857
C22   C     C_R   0.138132 0.450679 0.958536 -0.067184
C23   C     C_R   0.871911 0.489285 0.510708 -0.008956
C24   C     C_R   0.862170 0.549951 0.041429 -0.067090
C25   C     C_R   0.922848 0.429282 0.402113 0.101213
C26   C     C_R   0.077175 0.570823 0.597848 0.101095
C27   C     C_R   0.128104 0.510795 0.489274 -0.008935
C28   C     C_R   0.950239 0.550330 0.616803 -0.029654
C29   C     C_R   0.049779 0.449812 0.383139 -0.029566
C30   C     C_R   0.507829 0.063708 0.375452 -0.083004
C31   C     C_R   0.492141 0.936290 0.624545 -0.082993
C32   C     C_R   0.504167 0.935716 0.375414 -0.103419
Cu1   Cu    Cu3+1 0.500000 0.500020 0.640660 1.089041
Cu2   Cu    Cu3+1 0.500000 0.499980 0.359340 1.089089
H1    H     H_    0.158339 0.639877 0.239919 0.125856
H2    H     H_    0.847381 0.546663 0.150599 0.189543
H3    H     H_    0.208683 0.641866 0.996759 0.168577
H4    H     H_    0.791645 0.358730 0.003527 0.168622
H5    H     H_    0.515541 0.111217 0.278116 0.200189
H6    H     H_    0.484424 0.888780 0.721880 0.200209
H7    H     H_    0.841751 0.360450 0.760316 0.125872
H8    H     H_    0.036591 0.247434 0.202362 0.181943
H9    H     H_    0.963386 0.752923 0.797217 0.181864
H10   H     H_    0.067228 0.257344 0.952922 0.164291
H11   H     H_    0.932990 0.743296 0.046711 0.164201
H12   H     H_    0.506296 0.887842 0.277499 0.187771
H13   H     H_    0.493669 0.112155 0.722499 0.187780
H14   H     H_    0.153082 0.454067 0.849397 0.189772
N1    N     N_R   0.500030 0.500030 0.852070 -0.252005
N2    N     N_R   0.499970 0.499970 0.147930 -0.251993
O1    O     O_R   0.499990 0.319660 0.618740 -0.485457
O2    O     O_R   0.500010 0.680340 0.381260 -0.485482
O3    O     O_R   0.499990 0.319630 0.381170 -0.453658
O4    O     O_R   0.500010 0.680370 0.618830 -0.453646
O5    O     O_R   0.319650 0.500020 0.618780 -0.441259
O6    O     O_R   0.680350 0.499980 0.381220 -0.441194
O7    O     O_R   0.319640 0.500000 0.381210 -0.494277
O8    O     O_R   0.680360 0.500000 0.618790 -0.494315

loop_
_geom_bond_atom_site_label_1
_geom_bond_atom_site_label_2
_ccdc_geom_bond_type
C2    H13   S    
C1    C4    S    
C8    N2    A    
C11   H3    S    
C26   C28   A    
C16   C29   S    
C19   C21   A    
C6    C8    A    
Cu2   N2    S    
C20   C22   A    
C31   H6    S    
Br1   C7    S    
C9    O7    A    
C17   C28   S    
C7    N1    A    
C26   C27   A    
C30   C32   A    
C14   H1    S    
C9    O5    A    
C30   H5    S    
C23   C25   A    
Cu2   O3    S    
C17   C19   A    
C21   C24   A    
Br3   C25   S    
Cu1   O8    S    
C5    C7    A    
Br4   C26   S    
Cu2   O7    S    
C10   O6    A    
Cu1   O5    S    
Cu1   O4    S    
C32   H12   S    
C12   O4    A    
C3    C32   A    
C13   C15   A    
C21   H11   S    
Br5   C5    S    
C9    C27   S    
C16   C18   A    
C20   H10   S    
C15   C17   A    
Br6   C6    S    
Br2   C8    S    
C25   C29   A    
C6    N1    A    
Cu2   O2    S    
C2    C31   A    
C18   H8    S    
C3    C12   S    
C11   C14   A    
Cu2   O6    S    
C13   H4    S    
C13   C24   A    
C2    C4    A    
C3    C31   A    
C1    O3    A    
Cu1   Cu2   S    
C22   H14   S    
C24   H2    S    
C4    C30   A    
C10   O8    A    
C27   C29   A    
C10   C23   S    
C11   C22   A    
C23   C28   A    
C1    O1    A    
Cu1   N1    S    
C5    N2    A    
C18   C20   A    
C14   C16   A    
C12   O2    A    
C15   H7    S    
C19   H9    S    
Cu1   O1    S    
