data_mof_unit_68022.cif
_audit_creation_date              2013-03-05T15:40:30-0500
_audit_creation_method            fapswitch 2.2
_symmetry_space_group_name_H-M    P1
_symmetry_Int_Tables_number       1
_space_group_crystal_system       triclinic
_cell_length_a                    6.985531
_cell_length_b                    11.195891
_cell_length_c                    19.05949
_cell_angle_alpha                 89.997888
_cell_angle_beta                  93.627255
_cell_angle_gamma                 89.999652
_cell_volume                      1487.64219023

loop_
_atom_site_label
_atom_site_type_symbol
_atom_site_description
_atom_site_fract_x
_atom_site_fract_y
_atom_site_fract_z
_atom_type_partial_charge
O1    O     O_R   0.330540 0.606360 0.598870 -0.527565
O2    O     O_R   0.669460 0.106360 0.401130 -0.527496
O3    O     O_R   0.026770 0.620470 0.750430 -0.539740
O4    O     O_R   0.973230 0.120470 0.249570 -0.539597
O5    O     O_R   0.856460 0.393640 0.750930 -0.520851
O6    O     O_R   0.143540 0.893640 0.249070 -0.520838
C1    C     C_R   0.199619 0.647077 0.774891 0.783203
C2    C     C_R   0.800381 0.147086 0.225112 0.783360
O7    O     O_R   0.000920 0.620350 0.599420 -0.535523
O8    O     O_R   0.999080 0.120350 0.400580 -0.535915
O9    O     O_R   0.830430 0.393520 0.598850 -0.528902
O10   O     O_R   0.169570 0.893520 0.401150 -0.529067
C3    C     C_R   0.165889 0.645961 0.573733 0.702255
C4    C     C_R   0.834105 0.145969 0.426265 0.702277
O11   O     O_R   0.356570 0.606480 0.750960 -0.548535
O12   O     O_R   0.643430 0.106480 0.249040 -0.548542
O13   O     O_3   0.176990 0.425580 0.674890 -0.369354
O14   O     O_3   0.823010 0.925580 0.325110 -0.369436
V1    V     V_3+5 0.902170 0.513810 0.674910 1.477817
V2    V     V_3+5 0.097830 0.013810 0.325090 1.477183
O15   O     O_R   0.500800 0.379530 0.599380 -0.528301
O16   O     O_R   0.499200 0.879530 0.400620 -0.528195
C5    C     C_R   0.666021 0.352112 0.574649 0.682391
C6    C     C_R   0.333974 0.852074 0.425333 0.682244
O17   O     O_R   0.526650 0.379650 0.750390 -0.560115
O18   O     O_R   0.473350 0.879650 0.249610 -0.560110
C7    C     C_R   0.699478 0.351880 0.774642 0.718253
C8    C     C_R   0.300517 0.851859 0.225368 0.718244
V3    V     V_3+5 0.402160 0.486190 0.674900 1.450864
V4    V     V_3+5 0.597840 0.986190 0.325100 1.450636
O19   O     O_3   0.677210 0.574420 0.674910 -0.375419
O20   O     O_3   0.322790 0.074420 0.325090 -0.375489
C9    C     C_R   0.743098 0.071005 0.882833 -0.173290
C10   C     C_R   0.256951 0.570977 0.117183 -0.173135
H1    H     H_    0.808587 0.938303 0.990703 0.138918
H2    H     H_    0.191724 0.438267 0.009313 0.138886
H3    H     H_    0.751710 0.975481 0.873297 0.149249
H4    H     H_    0.248216 0.475458 0.126724 0.149305
C11   C     C_R   0.716826 0.272163 0.836465 -0.168953
C12   C     C_R   0.283156 0.772135 0.163548 -0.168923
C13   C     C_R   0.746822 0.347717 0.179406 -0.178506
C14   C     C_R   0.253081 0.847714 0.820588 -0.178897
C15   C     C_R   0.702825 0.428523 0.125917 -0.139563
C16   C     C_R   0.297165 0.928514 0.874071 -0.139513
C17   C     C_R   0.693314 0.391466 0.056333 -0.092511
C18   C     C_R   0.306820 0.891446 0.943657 -0.092501
C19   C     C_R   0.740097 0.273273 0.037488 0.031840
C20   C     C_R   0.260087 0.773247 0.962515 0.031841
C21   C     C_R   0.774404 0.187195 0.093056 -0.060709
C22   C     C_R   0.225747 0.687172 0.906951 -0.060629
C23   C     C_R   0.741247 0.237052 0.965264 -0.033124
C24   C     C_R   0.258969 0.737024 0.034744 -0.033134
C25   C     C_R   0.754951 0.113554 0.951270 -0.021427
C26   C     C_R   0.245271 0.613524 0.048743 -0.021473
C27   C     C_R   0.786451 0.030600 0.005088 -0.219346
C28   C     C_R   0.213828 0.530568 0.994925 -0.219406
C29   C     C_R   0.795748 0.063957 0.076054 0.439420
C30   C     C_R   0.204474 0.563929 0.923957 0.439440
C31   C     C_R   0.736890 0.318718 0.906774 0.362411
C32   C     C_R   0.263280 0.818691 0.093232 0.362372
C33   C     C_R   0.719065 0.147536 0.825824 -0.077322
C34   C     C_R   0.280757 0.647507 0.174195 -0.077311
C35   C     C_R   0.779098 0.227681 0.164383 -0.085779
C36   C     C_R   0.220914 0.727667 0.835620 -0.085730
H5    H     H_    0.748003 0.377971 0.233370 0.101436
H6    H     H_    0.251737 0.877979 0.766619 0.101599
H7    H     H_    0.638855 0.456167 0.018613 0.153695
H8    H     H_    0.361324 0.956145 0.981368 0.153693
H9    H     H_    0.670305 0.520282 0.138513 0.120340
H10   H     H_    0.329625 0.020280 0.861465 0.120441
C37   C     C_2   0.833716 0.223404 0.489809 0.162187
C38   C     C_2   0.166242 0.723445 0.510211 0.161679
C39   C     C_2   0.666759 0.266671 0.514844 0.126502
C40   C     C_2   0.333218 0.766465 0.485056 0.126570
C41   C     C_R   0.712511 0.089454 0.756348 0.106373
C42   C     C_R   0.534679 0.061999 0.721792 -0.144039
C43   C     C_R   0.523580 0.976606 0.668085 -0.176566
C44   C     C_R   0.689910 0.920326 0.647756 -0.074298
C45   C     C_R   0.867431 0.948172 0.681385 -0.150540
C46   C     C_R   0.878996 0.032652 0.735397 -0.155095
H11   H     H_    0.404037 0.101374 0.739064 0.090613
H12   H     H_    0.385639 0.953011 0.642738 0.089105
H13   H     H_    0.681817 0.854487 0.606386 0.182672
H14   H     H_    0.995732 0.903583 0.665980 0.093132
H15   H     H_    0.016327 0.050474 0.762968 0.108867
C47   C     C_R   0.286564 0.589416 0.243664 0.106349
C48   C     C_R   0.464046 0.561043 0.278194 -0.145005
C49   C     C_R   0.474107 0.475485 0.331819 -0.175146
C50   C     C_R   0.307097 0.419962 0.352108 -0.073635
C51   C     C_R   0.129935 0.448731 0.318512 -0.151927
C52   C     C_R   0.119397 0.533353 0.264566 -0.154196
H16   H     H_    0.595158 0.599848 0.260964 0.090548
H17   H     H_    0.611751 0.451205 0.357149 0.089509
H18   H     H_    0.314365 0.353994 0.393419 0.182645
H19   H     H_    0.001107 0.404730 0.333894 0.092526
H20   H     H_    0.982291 0.551829 0.236996 0.108579
O21   O     O_3   0.490697 0.230597 0.485117 -0.557951
C53   C     C_3   0.438040 0.125555 0.519745 -0.112201
H21   H     H_    0.412932 0.145094 0.575251 0.114254
H22   H     H_    0.548164 0.053952 0.517976 0.102697
H23   H     H_    0.304850 0.090234 0.492935 0.170603
O22   O     O_3   0.509293 0.729957 0.514564 -0.557569
C54   C     C_3   0.560897 0.624714 0.479915 -0.112098
H24   H     H_    0.585620 0.644080 0.424354 0.113235
H25   H     H_    0.450342 0.553405 0.481858 0.103167
H26   H     H_    0.694066 0.589097 0.506594 0.169593
O23   O     O_3   0.805118 0.434336 0.919709 -0.552803
C55   C     C_3   0.691260 0.525546 0.887190 -0.209745
H27   H     H_    0.545923 0.496882 0.868408 0.129899
H28   H     H_    0.765997 0.564167 0.842923 0.185525
H29   H     H_    0.675105 0.598623 0.925684 0.126357
O24   O     O_3   0.195093 0.934315 0.080278 -0.552828
C56   C     C_3   0.308929 0.025517 0.112810 -0.209686
H30   H     H_    0.454244 0.996844 0.131616 0.129943
H31   H     H_    0.234143 0.064146 0.157062 0.185554
H32   H     H_    0.325144 0.098591 0.074316 0.126339
O25   O     O_3   0.835092 0.980456 0.129775 -0.541748
C57   C     C_3   0.773418 0.862525 0.113394 -0.175214
H33   H     H_    0.881668 0.813796 0.084645 0.163151
H34   H     H_    0.634649 0.859418 0.081993 0.078197
H35   H     H_    0.755864 0.813621 0.163170 0.151052
O26   O     O_3   0.165117 0.480432 0.870239 -0.541758
C58   C     C_3   0.226759 0.362494 0.886622 -0.175159
H36   H     H_    0.118519 0.313785 0.915388 0.163141
H37   H     H_    0.365552 0.359373 0.918006 0.078194
H38   H     H_    0.244253 0.313581 0.836847 0.151041
O27   O     O_3   0.008447 0.243405 0.526424 -0.543063
C59   C     C_3   0.022378 0.164639 0.584595 -0.183288
H39   H     H_    0.050584 0.071898 0.567205 0.096535
H40   H     H_    0.892135 0.165253 0.615113 0.117002
H41   H     H_    0.141021 0.194177 0.621836 0.154865
O28   O     O_3   0.991369 0.743826 0.473775 -0.542785
C60   C     C_3   0.976709 0.665233 0.415537 -0.180559
H42   H     H_    0.948771 0.572428 0.432878 0.095807
H43   H     H_    0.106547 0.665938 0.384804 0.116467
H44   H     H_    0.857662 0.694898 0.378514 0.154979

loop_
_geom_bond_atom_site_label_1
_geom_bond_atom_site_label_2
_geom_bond_distance
_ccdc_geom_bond_type
C48   C49   1.399282 A    
C21   C35   1.431463 A    
C22   C36   1.431493 A    
C4    C37   1.489607 S    
O4    C2    1.301066 A    
V1    O19   1.711714 S    
C59   H39   1.111336 S    
O21   C53   1.408768 S    
C21   C29   1.427281 A    
C58   H36   1.105499 S    
C19   C21   1.440716 A    
C43   C44   1.397915 A    
C33   C41   1.473355 S    
C39   O21   1.381521 S    
C34   C47   1.473386 S    
O9    V1    2.018577 S    
C12   C32   1.436478 A    
O3    C1    1.301079 A    
C47   C52   1.405404 A    
C45   H14   1.082584 S    
C58   H37   1.107083 S    
C8    C12   1.477058 S    
O12   V4    2.018657 S    
C10   C34   1.385549 A    
C12   C34   1.410247 A    
C55   H27   1.102684 S    
C17   C19   1.414837 A    
C50   H18   1.078377 S    
O7    C3    1.311986 A    
C57   H33   1.105497 S    
C24   C32   1.440621 A    
C52   H20   1.082827 S    
O5    C7    1.299259 A    
C44   H13   1.078275 S    
O7    V1    2.023428 S    
O6    C8    1.299250 A    
C7    C11   1.477009 S    
O28   C60   1.415089 S    
C17   H7    1.073153 S    
C60   H44   1.107037 S    
O23   C55   1.413190 S    
O3    V1    2.024104 S    
O14   V4    1.713050 S    
C28   C30   1.400761 A    
C41   C46   1.405424 A    
C40   O22   1.381545 S    
C56   H32   1.109469 S    
C20   C22   1.440728 A    
C2    O12   1.296140 A    
C48   H16   1.083278 S    
O17   V3    2.022557 S    
C13   C15   1.382957 A    
C37   O27   1.385370 S    
C14   C16   1.382979 A    
C5    C39   1.488353 S    
O24   C56   1.413184 S    
C24   C26   1.412583 A    
O11   V3    2.018726 S    
C26   C28   1.390878 A    
C31   O23   1.395962 S    
C25   C27   1.390862 A    
C9    C25   1.386205 A    
C11   C33   1.410212 A    
C18   C20   1.414848 A    
C30   O26   1.400788 S    
H1    C27   1.082721 S    
C22   C30   1.427268 A    
C51   H19   1.082540 S    
C42   C43   1.399241 A    
C38   C40   1.375904 D    
O8    C4    1.312027 A    
O8    V2    2.023486 S    
C37   C39   1.375851 D    
C47   C48   1.402813 A    
C58   H38   1.108853 S    
C19   C23   1.435575 A    
C1    O11   1.296137 A    
C16   C18   1.387240 A    
O15   V3    2.024399 S    
C9    H3    1.087112 S    
C23   C25   1.412566 A    
C57   H35   1.108854 S    
C41   C42   1.402831 A    
C18   H8    1.073168 S    
C46   H15   1.082819 S    
C32   O24   1.395958 S    
C11   C31   1.436432 A    
O10   V2    2.018499 S    
O1    V3    2.017033 S    
C54   H25   1.113020 S    
C16   H10   1.082389 S    
C15   C17   1.387200 A    
C9    C33   1.385571 A    
C10   C26   1.386227 A    
C53   H22   1.113040 S    
O15   C5    1.310469 A    
C60   H42   1.111321 S    
O16   C6    1.310457 A    
O1    C3    1.295861 A    
C13   C35   1.395389 A    
O27   C59   1.415149 S    
C59   H41   1.107089 S    
C14   C36   1.395383 A    
C29   O25   1.400779 S    
C56   H30   1.102678 S    
V2    O20   1.711721 S    
C49   H17   1.082928 S    
O16   V4    2.024344 S    
C10   H4    1.087120 S    
C59   H40   1.110448 S    
C42   H11   1.083311 S    
C13   H5    1.082412 S    
O18   V4    2.022626 S    
O5    V1    2.017376 S    
C3    C38   1.489522 S    
O17   C7    1.302789 A    
C53   H23   1.105896 S    
O6    V2    2.017445 S    
O10   C6    1.296037 A    
O18   C8    1.302832 A    
C55   H29   1.109469 S    
O2    V4    2.017109 S    
C27   C29   1.400748 A    
C50   C51   1.394649 A    
V3    O19   2.160421 S    
O25   C57   1.417535 S    
C38   O28   1.385366 S    
V4    O20   2.160410 S    
C44   C45   1.394723 A    
C6    C40   1.488304 S    
C51   C52   1.396619 A    
C43   H12   1.082956 S    
O9    C5    1.296031 A    
H2    C28   1.082718 S    
O13   V1    2.159013 S    
C55   H28   1.107743 S    
C54   H26   1.105933 S    
O14   V2    2.159024 S    
O22   C54   1.408759 S    
O2    C4    1.295859 A    
C57   H34   1.107095 S    
C1    C36   1.467731 S    
C2    C35   1.467711 S    
C45   C46   1.396563 A    
O4    V2    2.024038 S    
O13   V3    1.713057 S    
C20   C24   1.435635 A    
C23   C31   1.440576 A    
C49   C50   1.397896 A    
C15   H9    1.082384 S    
C53   H21   1.105123 S    
C54   H24   1.105155 S    
C14   H6    1.082467 S    
C60   H43   1.110422 S    
O26   C58   1.417525 S    
C56   H31   1.107753 S    
