data_mof_unit_23420.cif
_audit_creation_date              2012-12-11T15:13:46-0500
_audit_creation_method            fapswitch 2.2
_symmetry_space_group_name_H-M    P1
_symmetry_Int_Tables_number       1
_space_group_crystal_system       triclinic
_cell_length_a                    6.958459
_cell_length_b                    13.527854
_cell_length_c                    20.168408
_cell_angle_alpha                 104.405047
_cell_angle_beta                  89.851424
_cell_angle_gamma                 90.672949
_cell_volume                      1838.69928812

loop_
_atom_site_label
_atom_site_type_symbol
_atom_type_description
_atom_site_fract_x
_atom_site_fract_y
_atom_site_fract_z
_atom_type_partial_charge
O1    O     O_R   0.506780 0.600060 0.449950 -0.536756
O2    O     O_R   0.179840 0.597110 0.589410 -0.547578
O3    O     O_R   0.004570 0.399940 0.550050 -0.542602
C1    C     C_R   0.348154 0.618793 0.616825 0.675455
O4    O     O_R   0.177380 0.612160 0.452890 -0.545805
O5    O     O_R   0.002100 0.415100 0.412560 -0.532066
C2    C     C_R   0.346510 0.637466 0.435429 0.728382
O6    O     O_R   0.509250 0.584900 0.587440 -0.548048
O7    O     O_3   0.337570 0.435330 0.486930 -0.349253
V1    V     V_3+5 0.064650 0.512000 0.502430 1.453749
O8    O     O_R   0.672090 0.402890 0.410590 -0.504041
C3    C     C_R   0.839514 0.384031 0.382106 0.720034
O9    O     O_R   0.674540 0.387840 0.547110 -0.541235
C4    C     C_R   0.842297 0.361085 0.563216 0.693052
V2    V     V_3+5 0.564040 0.488000 0.497570 1.509911
O10   O     O_3   0.840990 0.564670 0.513070 -0.386574
C5    C     C_R   0.820554 0.105643 0.602687 -0.160518
H1    H     H_    0.808121 0.026246 0.574765 0.113502
C6    C     C_R   0.846055 0.282468 0.600898 -0.033501
C7    C     C_R   0.862037 0.313521 0.928711 -0.253779
C8    C     C_R   0.850643 0.390823 0.894644 0.042828
C9    C     C_R   0.843978 0.365419 0.823118 -0.140346
C10   C     C_R   0.852120 0.262640 0.784118 0.039652
C11   C     C_R   0.862966 0.183055 0.819347 0.014065
C12   C     C_R   0.847500 0.237015 0.710935 0.086603
C13   C     C_R   0.834018 0.133075 0.674405 0.107967
C14   C     C_R   0.841054 0.056542 0.709001 -0.197343
C15   C     C_R   0.865757 0.079449 0.779699 0.011993
C16   C     C_R   0.857913 0.310987 0.672265 -0.214138
C17   C     C_R   0.824404 0.180188 0.566180 -0.153658
C18   C     C_R   0.865979 0.210981 0.892670 -0.059057
H2    H     H_    0.876940 0.391285 0.695520 0.093902
H3    H     H_    0.865395 0.333232 0.984262 0.087325
H4    H     H_    0.827713 0.427773 0.799374 0.143648
C19   C     C_3   0.725836 0.178025 0.241898 -0.152255
C20   C     C_3   0.893730 0.202048 0.294288 -0.125651
H5    H     H_    0.926140 0.158735 0.332923 0.126053
H6    H     H_    0.621515 0.113923 0.234639 0.113409
C21   C     C_3   0.844529 0.316629 0.310277 -0.018927
C22   C     C_3   0.678979 0.292674 0.257919 0.075532
C23   C     C_3   0.815636 0.306809 0.200679 -0.248279
C24   C     C_3   0.982296 0.331411 0.253305 -0.120023
C25   C     C_3   0.031915 0.216338 0.236922 -0.099349
C26   C     C_3   0.864255 0.192870 0.185683 -0.036082
H7    H     H_    0.783537 0.349436 0.161611 0.107098
H8    H     H_    0.176482 0.183513 0.224862 0.090981
C27   C     C_3   0.521507 0.761393 0.717328 -0.143028
C28   C     C_3   0.374673 0.846233 0.745335 0.019530
H9    H     H_    0.657296 0.770000 0.690162 0.134186
C29   C     C_3   0.357315 0.811965 0.812217 -0.027054
C30   C     C_3   0.503754 0.726493 0.784901 -0.062333
C31   C     C_3   0.336125 0.653281 0.753782 -0.139038
C32   C     C_3   0.189883 0.739380 0.781663 -0.086080
C33   C     C_3   0.207117 0.774265 0.714091 -0.208695
C34   C     C_3   0.354076 0.689080 0.687213 -0.062088
H10   H     H_    0.625817 0.706739 0.814365 0.159105
H11   H     H_    0.320591 0.572749 0.756803 0.124353
H12   H     H_    0.053340 0.730401 0.808282 0.163638
H13   H     H_    0.085360 0.794280 0.684589 0.127776
C35   C     C_R   0.346050 0.891555 0.393906 -0.113872
H14   H     H_    0.330625 0.840196 0.486013 0.099424
H15   H     H_    0.330693 0.969703 0.422929 0.162244
C36   C     C_R   0.356011 0.715130 0.396684 -0.036479
C37   C     C_R   0.353801 0.678016 0.066594 -0.014491
C38   C     C_R   0.356252 0.603143 0.103228 -0.220801
C39   C     C_R   0.360469 0.628691 0.174304 -0.152823
C40   C     C_R   0.362021 0.731587 0.212610 0.087653
C41   C     C_R   0.359207 0.809200 0.176105 0.036606
C42   C     C_R   0.363909 0.759445 0.285934 0.044789
C43   C     C_R   0.361073 0.864645 0.321709 0.116375
C44   C     C_R   0.366706 0.940557 0.284729 -0.014509
C45   C     C_R   0.361202 0.912356 0.213205 -0.277801
C46   C     C_R   0.365752 0.685940 0.325284 -0.208054
C47   C     C_R   0.343498 0.817533 0.430737 -0.207305
C48   C     C_R   0.356746 0.782310 0.102970 -0.092102
H16   H     H_    0.371860 0.605151 0.302461 0.122257
H17   H     H_    0.361244 0.565049 0.197380 0.113573
H18   H     H_    0.354379 0.523009 0.076421 0.106740
H19   H     H_    0.361971 0.972761 0.186594 0.092931
O11   O     O_R   0.203580 0.914920 0.912610 -0.546839
O12   O     O_R   0.535710 0.887810 0.047120 -0.540936
O13   O     O_R   0.710730 0.084950 0.087430 -0.552797
C49   C     C_R   0.366642 0.862483 0.064987 0.768645
O14   O     O_R   0.533010 0.902850 0.910600 -0.516533
O15   O     O_R   0.708010 0.100090 0.949930 -0.526585
C50   C     C_R   0.364505 0.881436 0.883045 0.831561
O16   O     O_R   0.206300 0.899780 0.050100 -0.535203
O17   O     O_3   0.375170 0.064580 0.013100 -0.387857
V3    V     V_3+5 0.648200 0.988020 0.997570 1.522878
O18   O     O_R   0.038030 0.112330 0.952840 -0.553658
C51   C     C_R   0.870387 0.136553 0.934460 0.678450
O19   O     O_R   0.040730 0.097300 0.089360 -0.552618
C52   C     C_R   0.872388 0.120552 0.116137 0.671686
V4    V     V_3+5 0.148780 0.012220 0.002360 1.467144
O20   O     O_3   0.871930 0.935430 0.986900 -0.359567
H20   H     H_    0.812144 0.158183 0.510880 0.129291
C53   C     C_2   0.480340 0.334340 0.261089 0.301123
H21   H     H_    0.393134 0.316245 0.215139 0.026262
O21   O     O_2   0.417417 0.390162 0.313408 -0.529930
H22   H     H_    0.082891 0.396850 0.257684 0.141079
C54   C     C_2   0.394645 0.953147 0.737583 0.349489
H23   H     H_    0.403378 0.966443 0.686803 0.041907
O22   O     O_2   0.401479 0.025381 0.787760 -0.539097
H24   H     H_    0.839620 0.977311 0.679895 0.121404
C55   C     C_2   0.381852 0.050955 0.318667 0.308882
H25   H     H_    0.302511 0.105247 0.298738 0.050299
O23   O     O_2   0.492050 0.082798 0.366430 -0.539044
C56   C     C_2   0.348531 0.641903 0.990524 0.381616
H26   H     H_    0.362645 0.561043 0.966491 0.053049
O24   O     O_2   0.325690 0.699941 0.953687 -0.541506
C57   C     C_2   0.843438 0.498443 0.934963 0.346860
H27   H     H_    0.847073 0.516140 0.990499 0.041673
O25   O     O_2   0.833620 0.568552 0.906944 -0.530354
C58   C     C_2   0.915163 0.992327 0.807555 0.345398
H28   H     H_    0.042449 0.996907 0.838127 0.091762
O26   O     O_2   0.820184 0.913597 0.793706 -0.550838

loop_
_geom_bond_atom_site_label_1
_geom_bond_atom_site_label_2
_ccdc_geom_bond_type
C49   O16   A    
C54   H23   S    
O18   V4    S    
C23   C24   S    
C57   H27   S    
C1    O6    A    
C58   H28   S    
O15   C51   A    
C27   H9    S    
C32   C33   S    
C41   C48   A    
C28   C33   S    
C55   O23   D    
C13   C14   A    
O13   V3    S    
C5    C13   A    
C20   H5    S    
O14   C50   A    
C45   H19   S    
O5    C3    A    
V2    O10   S    
O16   V4    S    
C53   H21   S    
C14   H24   S    
C56   H26   S    
C35   H15   S    
C30   H10   S    
O11   C50   A    
C26   C52   S    
O12   C49   A    
O8    V2    S    
C19   C20   S    
C17   H20   S    
C10   C11   A    
C42   C46   A    
C43   C44   A    
O1    V2    S    
O7    V1    S    
C31   C34   S    
O12   V3    S    
C28   C29   S    
C39   C40   A    
C54   O22   D    
O13   C52   A    
C8    C9    A    
C5    C17   A    
V4    O20   S    
C53   O21   D    
C29   C30   S    
C21   C24   S    
C33   H13   S    
C12   C16   A    
C9    H4    S    
O17   V4    S    
C29   C32   S    
C30   C31   S    
O8    C3    A    
C19   H6    S    
C21   C22   S    
O4    C2    A    
O15   V3    S    
C27   C30   S    
C36   C46   A    
C12   C13   A    
C40   C41   A    
C40   C42   A    
V3    O20   S    
O2    C1    A    
C25   C26   S    
C24   H22   S    
C8    C57   S    
C27   C28   S    
C35   C43   A    
C41   C45   A    
O19   V4    S    
C5    H1    S    
C57   O25   D    
O17   V3    S    
C19   C26   S    
C2    C36   S    
O3    C4    A    
C15   C58   S    
C7    H3    S    
C22   C23   S    
O6    V2    S    
C18   C51   S    
C44   C55   S    
C1    C34   S    
C23   C26   S    
O14   V3    S    
O11   V4    S    
O2    V1    S    
C22   C53   S    
C31   C32   S    
C27   C34   S    
C39   H17   S    
C33   C34   S    
C38   H18   S    
O1    C2    A    
C4    C6    S    
C20   C21   S    
C11   C15   A    
O5    V1    S    
C58   O26   D    
C32   H12   S    
C36   C47   A    
H14   C47   S    
C16   H2    S    
C55   H25   S    
C37   C38   A    
C3    C21   S    
O9    V2    S    
C19   C22   S    
O7    V2    S    
C11   C18   A    
O4    V1    S    
O3    V1    S    
V1    O10   S    
C48   C49   S    
O18   C51   A    
C28   C54   S    
C35   C47   A    
O19   C52   A    
C46   H16   S    
C37   C48   A    
C56   O24   D    
C10   C12   A    
C42   C43   A    
C25   H8    S    
C31   H11   S    
C29   C50   S    
C44   C45   A    
C7    C8    A    
C38   C39   A    
C24   C25   S    
C14   C15   A    
C23   H7    S    
C9    C10   A    
C20   C25   S    
O9    C4    A    
C6    C17   A    
C37   C56   S    
C7    C18   A    
C6    C16   A    
