data_mof_unit_30313.cif
_audit_creation_date              2012-12-10T17:44:34-0500
_audit_creation_method            fapswitch 2.2
_symmetry_space_group_name_H-M    P1
_symmetry_Int_Tables_number       1
_space_group_crystal_system       triclinic
_cell_length_a                    9.94781
_cell_length_b                    10.668897
_cell_length_c                    15.460725
_cell_angle_alpha                 92.795539
_cell_angle_beta                  69.401578
_cell_angle_gamma                 89.788041
_cell_volume                      1533.76767419

loop_
_atom_site_label
_atom_site_type_symbol
_atom_type_description
_atom_site_fract_x
_atom_site_fract_y
_atom_site_fract_z
_atom_type_partial_charge
C1    C     C_R   0.504579 0.738374 0.489359 0.869808
C2    C     C_R   0.433326 0.425284 0.901462 -0.005611
C3    C     C_R   0.298862 0.370668 0.947040 0.099305
C4    C     C_R   0.539523 0.425470 0.941918 0.082369
C5    C     C_R   0.496006 0.415731 0.037594 0.038918
C6    C     C_R   0.360727 0.365270 0.084956 -0.305925
C7    C     C_R   0.265293 0.335423 0.038868 0.197562
C8    C     C_R   0.687363 0.432340 0.889639 -0.213671
C9    C     C_R   0.787879 0.440845 0.933665 -0.236983
C10   C     C_R   0.741073 0.453328 0.030255 0.131820
C11   C     C_R   0.592292 0.451788 0.082237 0.092042
C12   C     C_R   0.410507 0.498481 0.675566 0.870164
C13   C     C_R   0.839223 0.469921 0.075973 -0.201032
C14   C     C_R   0.789961 0.483378 0.172230 -0.239303
C15   C     C_R   0.543965 0.495797 0.175411 0.124523
C16   C     C_R   0.269833 0.888538 0.456577 -0.217882
C17   C     C_R   0.136647 0.951193 0.481935 0.214894
C18   C     C_R   0.108463 0.057593 0.544581 0.214178
C19   C     C_R   0.223262 0.109338 0.567876 0.155907
C20   C     C_R   0.365200 0.059754 0.522311 0.031969
C21   C     C_R   0.380488 0.937789 0.484013 0.007455
C22   C     C_R   0.508031 0.870573 0.473953 -0.077585
C23   C     C_R   0.496815 0.260128 0.505779 0.883694
C24   C     C_R   0.632887 0.933970 0.466834 -0.240912
C25   C     C_R   0.626925 0.061993 0.481115 -0.231434
C26   C     C_R   0.493779 0.125753 0.510184 -0.087434
C27   C     C_R   0.799625 0.677085 0.615301 -0.281797
C28   C     C_R   0.839869 0.766257 0.671502 0.219292
C29   C     C_R   0.979083 0.759764 0.674256 0.168943
C30   C     C_R   0.076260 0.668871 0.618704 -0.202572
C31   C     C_R   0.040992 0.584805 0.557799 0.069624
C32   C     C_R   0.897547 0.586542 0.556952 0.113239
C33   C     C_R   0.956468 0.417048 0.446231 -0.140654
C34   C     C_R   0.588961 0.502001 0.324350 0.869225
C35   C     C_R   0.099534 0.416457 0.445186 0.235290
C36   C     C_R   0.358864 0.472078 0.773768 -0.069135
C37   C     C_R   0.642021 0.496246 0.222805 -0.084194
C38   C     C_R   0.199138 0.360567 0.901463 -0.218434
C39   C     C_R   0.230855 0.408247 0.814257 -0.288137
C40   C     C_R   0.450686 0.493286 0.822985 0.158545
H1    H     H_    0.953438 0.470325 0.037867 0.161061
H2    H     H_    0.734074 0.884310 0.451851 0.176718
H3    H     H_    0.288891 0.803942 0.411968 0.178761
H4    H     H_    0.726605 0.110553 0.469692 0.168742
H5    H     H_    0.924843 0.349564 0.402709 0.150862
H6    H     H_    0.690149 0.677737 0.620915 0.239509
H7    H     H_    0.179605 0.666619 0.624659 0.229215
H8    H     H_    0.867691 0.487484 0.206754 0.169374
H9    H     H_    0.901070 0.442695 0.892324 0.147656
H10   H     H_    0.097537 0.315186 0.932234 0.174304
H11   H     H_    0.155109 0.395908 0.778915 0.174637
H12   H     H_    0.332275 0.342507 0.156399 0.162931
H13   H     H_    0.726048 0.424449 0.814804 0.144800
N1    N     N_R   0.856800 0.501200 0.500850 -0.119321
N2    N     N_R   0.142390 0.501280 0.500880 -0.117524
O1    O     O_R   0.385310 0.683220 0.500000 -0.639978
O2    O     O_R   0.614640 0.683250 0.500010 -0.632382
O3    O     O_R   0.319840 0.499980 0.632240 -0.641520
O4    O     O_R   0.549160 0.500000 0.632250 -0.620770
O5    O     O_R   0.385360 0.316750 0.499990 -0.609468
O6    O     O_R   0.614690 0.316780 0.500000 -0.619115
O7    O     O_R   0.450840 0.500000 0.367750 -0.615135
O8    O     O_R   0.680160 0.500020 0.367760 -0.615257
Zn1   Zn    Zn3+2 0.346880 0.499980 0.499990 0.910667
Zn2   Zn    Zn3+2 0.653120 0.500020 0.500010 0.925842
N3    N     N_2   0.131602 0.280333 0.087648 -0.318209
H14   H     H_    0.091841 0.305441 0.157503 0.221544
C41   C     C_3   0.129599 0.146109 0.070071 -0.797087
H15   H     H_    0.019700 0.111854 0.106020 0.243152
H16   H     H_    0.205518 0.097864 0.096446 0.241867
H17   H     H_    0.159633 0.122209 0.994807 0.247678
C42   C     C_3   0.026475 0.900025 0.444143 -0.931084
H18   H     H_    0.068078 0.816773 0.395773 0.239503
H19   H     H_    0.931114 0.870873 0.501517 0.256856
H20   H     H_    0.994757 0.973173 0.405894 0.234358
C43   C     C_3   0.959567 0.117248 0.586457 -0.888307
H21   H     H_    0.882116 0.077574 0.556701 0.242410
H22   H     H_    0.915968 0.104273 0.661994 0.256968
H23   H     H_    0.964330 0.219079 0.574630 0.238173
C44   C     C_3   0.190482 0.203014 0.649411 -0.855698
H24   H     H_    0.287030 0.222677 0.667467 0.226594
H25   H     H_    0.146442 0.291869 0.634597 0.265402
H26   H     H_    0.110409 0.164010 0.711483 0.223893
N4    N     N_2   0.740694 0.859944 0.727964 -0.305995
H27   H     H_    0.713373 0.854265 0.798378 0.234376
C45   C     C_3   0.633327 0.912459 0.696090 -0.796908
H28   H     H_    0.581888 0.996486 0.740907 0.241483
H29   H     H_    0.548908 0.843517 0.698805 0.242797
H30   H     H_    0.684961 0.942165 0.624705 0.261356
C46   C     C_3   0.402877 0.570301 0.215232 -0.879538
H31   H     H_    0.368086 0.605220 0.159748 0.234089
H32   H     H_    0.316308 0.512923 0.260168 0.258161
H33   H     H_    0.415923 0.655338 0.255718 0.237005
C47   C     C_3   0.029638 0.848915 0.734658 -0.920096
H34   H     H_    0.950092 0.924626 0.770352 0.249353
H35   H     H_    0.053379 0.795717 0.787760 0.237424
H36   H     H_    0.129526 0.894251 0.691726 0.249779
C48   C     C_3   0.197970 0.317298 0.381710 -0.870453
H37   H     H_    0.310946 0.326517 0.373680 0.296662
H38   H     H_    0.162823 0.223346 0.407100 0.233539
H39   H     H_    0.191320 0.320907 0.311792 0.189889
N5    N     N_2   0.528729 0.606750 0.809440 -0.308736
H40   H     H_    0.638440 0.597217 0.780065 0.234565
C49   C     C_3   0.477827 0.701972 0.884834 -0.788356
H41   H     H_    0.556088 0.711567 0.921171 0.237526
H42   H     H_    0.371315 0.679339 0.936102 0.245339
H43   H     H_    0.464782 0.793109 0.857167 0.248042

loop_
_geom_bond_atom_site_label_1
_geom_bond_atom_site_label_2
_ccdc_geom_bond_type
C8    C9    A    
C39   H11   S    
O8    Zn2   S    
C16   C21   A    
C28   N4    S    
C34   C37   S    
C33   H5    S    
N3    C41   S    
C19   C20   A    
C43   H23   S    
C4    C8    A    
C49   H42   S    
N1    Zn2   S    
C28   C29   A    
C1    O1    A    
C43   H22   S    
C5    C11   A    
C3    C7    A    
C42   H20   S    
C30   C31   A    
C45   H29   S    
C34   O7    A    
C24   H2    S    
C18   C19   A    
C23   C26   S    
C15   C37   A    
O7    Zn1   S    
C12   O4    A    
C11   C15   A    
N4    H27   S    
C3    C38   A    
C16   C17   A    
C19   C44   S    
O1    Zn1   S    
C2    C40   A    
C12   C36   S    
C35   C48   S    
C9    C10   A    
C42   H18   S    
C12   O3    A    
N3    H14   S    
C1    C22   S    
C21   C22   A    
N5    H40   S    
C44   H26   S    
C25   H4    S    
C32   N1    A    
C49   H41   S    
O3    Zn1   S    
C23   O5    A    
C35   N2    A    
C30   H7    S    
C36   C40   A    
C9    H9    S    
C43   H21   S    
C44   H25   S    
C45   H28   S    
C41   H15   S    
C14   H8    S    
C47   H36   S    
C25   C26   A    
C10   C13   A    
C38   C39   A    
N5    C49   S    
C29   C30   A    
C1    O2    A    
C46   H32   S    
C31   C32   A    
C23   O6    A    
N2    Zn1   S    
C17   C18   A    
C24   C25   A    
C47   H35   S    
C16   H3    S    
C27   H6    S    
C42   H19   S    
C48   H38   S    
C29   C47   S    
C22   C24   A    
C46   H33   S    
C33   N1    A    
C18   C43   S    
C27   C32   A    
C36   C39   A    
O2    Zn2   S    
C44   H24   S    
C45   H30   S    
C8    H13   S    
C6    C7    A    
C38   H10   S    
C48   H39   S    
O5    Zn1   S    
C6    H12   S    
C2    C3    A    
O4    Zn2   S    
C14   C37   A    
C46   H31   S    
C5    C6    A    
C20   C26   A    
C41   H17   S    
C2    C4    A    
C34   O8    A    
C33   C35   A    
C47   H34   S    
C10   C11   A    
C40   N5    S    
O6    Zn2   S    
C4    C5    A    
C20   C21   A    
C17   C42   S    
C41   H16   S    
C48   H37   S    
C27   C28   A    
C13   H1    S    
N4    C45   S    
C31   N2    A    
C13   C14   A    
C49   H43   S    
C15   C46   S    
C7    N3    S    
