data_mof_unit_30612.cif
_audit_creation_date              2013-03-05T16:09:36-0500
_audit_creation_method            fapswitch 2.2
_symmetry_space_group_name_H-M    P1
_symmetry_Int_Tables_number       1
_space_group_crystal_system       triclinic
_cell_length_a                    10.88231
_cell_length_b                    10.787258
_cell_length_c                    9.8745
_cell_angle_alpha                 91.579579
_cell_angle_beta                  101.090521
_cell_angle_gamma                 91.738442
_cell_volume                      1136.33932512

loop_
_atom_site_label
_atom_site_type_symbol
_atom_site_description
_atom_site_fract_x
_atom_site_fract_y
_atom_site_fract_z
_atom_type_partial_charge
O1    O     O_R   0.499990 0.316750 0.614620 -0.637709
O2    O     O_R   0.500010 0.683250 0.385380 -0.646420
O3    O     O_R   0.499990 0.316780 0.385290 -0.539120
O4    O     O_R   0.500010 0.683220 0.614710 -0.541943
C1    C     C_R   0.513314 0.260901 0.501127 0.943038
C2    C     C_R   0.491426 0.740217 0.499892 0.970938
O5    O     O_R   0.317810 0.500000 0.571850 -0.626353
O6    O     O_R   0.682190 0.500000 0.428150 -0.629189
O7    O     O_R   0.317810 0.500030 0.342520 -0.557940
O8    O     O_R   0.682190 0.499970 0.657480 -0.547077
C3    C     C_R   0.261078 0.497110 0.446041 0.920396
C4    C     C_R   0.741350 0.503060 0.554150 0.850161
Zn1   Zn    Zn3+2 0.500000 0.499980 0.653120 1.095420
Zn2   Zn    Zn3+2 0.500000 0.500020 0.346880 1.093843
C5    C     C_R   0.590537 0.563679 0.093674 -0.199197
C6    C     C_R   0.404405 0.443469 0.904698 -0.135157
C7    C     C_R   0.594587 0.560269 0.951207 0.350878
C8    C     C_R   0.403804 0.442427 0.047904 0.359783
H1    H     H_    0.658389 0.619418 0.164839 0.218900
H2    H     H_    0.328558 0.397958 0.831476 0.214090
C9    C     C_2   0.128021 0.488163 0.426689 0.079833
C10   C     C_2   0.878487 0.522089 0.576873 0.146241
C11   C     C_2   0.067551 0.577742 0.484199 -0.193694
C12   C     C_2   0.933458 0.560296 0.470505 -0.160659
C13   C     C_R   0.510379 0.059808 0.375669 0.279821
C14   C     C_R   0.505370 0.942568 0.627520 0.277750
C15   C     C_R   0.474674 0.935101 0.373609 -0.191158
C16   C     C_R   0.540240 0.067578 0.628835 -0.194031
C17   C     C_R   0.482631 0.874477 0.500250 -0.215043
C18   C     C_R   0.529743 0.127860 0.502190 -0.247147
N1    N     N_R   0.499970 0.499970 0.857200 -0.163812
N2    N     N_R   0.500030 0.500030 0.142800 -0.153528
C19   C     C_2   0.872752 0.558660 0.322750 0.950706
O9    O     O_2   0.879843 0.651403 0.255877 -0.541661
O10   O     O_R   0.826162 0.445185 0.257510 -0.690140
H3    H     H_    0.807968 0.447145 0.153455 0.381007
C20   C     C_2   0.121148 0.705106 0.527713 1.062677
O11   O     O_2   0.215540 0.744304 0.490986 -0.620757
O12   O     O_R   0.058068 0.783103 0.604656 -0.699519
H4    H     H_    0.101572 0.867799 0.626034 0.389914
N3    N     N_R   0.951065 0.499867 0.712271 0.261677
O13   O     O_R   0.912274 0.415725 0.787796 -0.238557
O14   O     O_R   0.054173 0.563307 0.762169 -0.289230
N4    N     N_R   0.069014 0.368745 0.381894 0.223317
O15   O     O_R   0.087785 0.315342 0.268449 -0.224523
O16   O     O_R   0.012784 0.305494 0.464039 -0.304619
N5    N     N_R   0.700935 0.617468 0.908416 0.248236
O17   O     O_R   0.686917 0.702872 0.817527 -0.295986
O18   O     O_R   0.813624 0.595711 0.972623 -0.286467
N6    N     N_R   0.297340 0.386064 0.090009 0.240249
O19   O     O_R   0.311690 0.295605 0.174816 -0.273359
O20   O     O_R   0.185342 0.407199 0.022632 -0.256153
N7    N     N_R   0.533788 0.115480 0.251634 0.244240
O21   O     O_R   0.641660 0.171025 0.251672 -0.295024
O22   O     O_R   0.452197 0.103611 0.136622 -0.289455
N8    N     N_R   0.484876 0.887604 0.753089 0.246887
O23   O     O_R   0.375833 0.836852 0.757779 -0.331207
O24   O     O_R   0.567517 0.902657 0.867010 -0.283093
C21   C     C_2   0.424245 0.870304 0.238795 1.085224
O25   O     O_2   0.316291 0.828375 0.214721 -0.526698
O26   O     O_R   0.501355 0.853175 0.142403 -0.705932
H5    H     H_    0.456859 0.803967 0.057189 0.376641
C22   C     C_2   0.590593 0.134424 0.762509 1.082225
O27   O     O_2   0.697476 0.179108 0.784414 -0.533723
O28   O     O_R   0.514143 0.151299 0.859652 -0.702996
H6    H     H_    0.557974 0.203053 0.943254 0.374180

loop_
_geom_bond_atom_site_label_1
_geom_bond_atom_site_label_2
_geom_bond_distance
_ccdc_geom_bond_type
O5    Zn1   1.990684 S    
N6    O20   1.301286 A    
O7    Zn2   1.974823 S    
C22   O28   1.397136 S    
C20   O11   1.221017 D    
C12   C19   1.480706 S    
N8    O24   1.300945 A    
C13   C15   1.387382 A    
C9    N4    1.441031 S    
O7    C3    1.292466 A    
N3    O13   1.301306 A    
C14   C16   1.388787 A    
N5    O17   1.295739 A    
O6    C4    1.285248 A    
C11   C12   1.445384 S    
C16   C18   1.412156 A    
C19   O9    1.222381 D    
O2    Zn2   2.002453 S    
C21   O25   1.222954 D    
C20   O12   1.398876 S    
C6    C8    1.415714 A    
C15   C21   1.485345 S    
N7    O21   1.301615 A    
N8    O23   1.301193 A    
C6    N1    1.355705 A    
C5    H1    1.072710 S    
N3    O14   1.300861 A    
O2    C2    1.292584 A    
O3    Zn2   2.022959 S    
O8    C4    1.307649 A    
O1    C1    1.292484 A    
O8    Zn1   1.974822 S    
O4    C2    1.293583 A    
C6    H2    1.082277 S    
C19   O10   1.401312 S    
N4    O16   1.301558 A    
C8    N2    1.382621 A    
O5    C3    1.275562 A    
N7    O22   1.300646 A    
C9    C11   1.356964 D    
O26   H5    1.013564 S    
C7    N1    1.379615 A    
C10   C12   1.371691 D    
C21   O26   1.396866 S    
C10   N3    1.446278 S    
C15   C17   1.416266 A    
C22   O27   1.222892 D    
C16   C22   1.485875 S    
C4    C10   1.472986 S    
C5    N2    1.355707 A    
C2    C17   1.454305 S    
O1    Zn1   2.002454 S    
N4    O15   1.299259 A    
C8    N6    1.428752 S    
C14   C17   1.413701 A    
N5    O18   1.299020 A    
O28   H6    1.013723 S    
C1    C18   1.451689 S    
O12   H4    1.013954 S    
C5    C7    1.415443 A    
Zn1   N1    2.015253 S    
C13   C18   1.408157 A    
O6    Zn2   1.990683 S    
N6    O19   1.296862 A    
C11   C20   1.494943 S    
C3    C9    1.423548 S    
C13   N7    1.441156 S    
C7    N5    1.434494 S    
O4    Zn1   2.022959 S    
Zn2   N2    2.015255 S    
O3    C1    1.293149 A    
O10   H3    1.009237 S    
C14   N8    1.441387 S    
