data_mof_unit_60390.cif
_audit_creation_date              2012-12-10T21:26:43-0500
_audit_creation_method            fapswitch 2.2
_symmetry_space_group_name_H-M    P1
_symmetry_Int_Tables_number       1
_space_group_crystal_system       triclinic
_cell_length_a                    10.775306
_cell_length_b                    16.139767
_cell_length_c                    16.732745
_cell_angle_alpha                 86.013804
_cell_angle_beta                  90.225601
_cell_angle_gamma                 93.073262
_cell_volume                      2898.79228722

loop_
_atom_site_label
_atom_site_type_symbol
_atom_type_description
_atom_site_fract_x
_atom_site_fract_y
_atom_site_fract_z
_atom_type_partial_charge
C1    C     C_R   0.496601 0.487449 0.653220 0.904563
C2    C     C_R   0.563713 0.536189 0.781640 -0.249726
C3    C     C_R   0.562468 0.531534 0.864194 -0.189934
C4    C     C_R   0.492671 0.467367 0.906499 0.303958
C5    C     C_R   0.428859 0.404968 0.866340 0.049749
C6    C     C_R   0.427960 0.409810 0.782140 0.088245
C7    C     C_R   0.380363 0.476029 0.142920 0.121882
C8    C     C_R   0.397533 0.469968 0.225210 -0.220157
C9    C     C_R   0.453815 0.535676 0.095719 0.235683
C10   C     C_R   0.485098 0.523052 0.260852 -0.135515
C11   C     C_R   0.551575 0.586369 0.214177 0.139674
C12   C     C_R   0.737749 0.500884 0.500073 0.957675
C13   C     C_R   0.534630 0.592259 0.131728 -0.220101
C14   C     C_R   0.443787 0.764476 0.459228 0.246309
C15   C     C_R   0.448756 0.851550 0.462315 -0.333715
C16   C     C_R   0.528013 0.890064 0.517648 0.266825
C17   C     C_R   0.600509 0.838968 0.568496 0.084473
C18   C     C_R   0.592172 0.752456 0.563681 -0.043509
C19   C     C_R   0.553734 0.149851 0.542682 -0.057355
C20   C     C_R   0.555854 0.237862 0.542964 0.205169
C21   C     C_R   0.477373 0.108962 0.486103 0.269531
C22   C     C_R   0.410598 0.245299 0.436396 -0.073753
C23   C     C_R   0.500422 0.512451 0.346858 0.904064
C24   C     C_R   0.405548 0.158590 0.433240 0.041614
C25   C     C_R   0.262592 0.499831 0.498872 0.958726
C26   C     C_2   0.074289 0.568673 0.507111 -0.185804
C27   C     C_2   0.131415 0.500300 0.491865 -0.354525
C28   C     C_2   0.942138 0.573017 0.497129 0.227921
C29   C     C_2   0.869371 0.502596 0.507645 -0.392171
C30   C     C_R   0.495661 0.476747 0.740075 -0.102589
H1    H     H_    0.125907 0.624465 0.524124 0.194791
H2    H     H_    0.614253 0.578716 0.895530 0.171168
H3    H     H_    0.589688 0.638158 0.094852 0.176597
H4    H     H_    0.617416 0.586900 0.750075 0.179081
H5    H     H_    0.647903 0.713340 0.602920 0.165474
H6    H     H_    0.355000 0.282819 0.395573 0.164897
H7    H     H_    0.391367 0.888050 0.421644 0.194247
H8    H     H_    0.083471 0.445270 0.470502 0.160304
H9    H     H_    0.906797 0.443322 0.526618 0.144276
H10   H     H_    0.342430 0.423453 0.261492 0.175429
N1    N     N_2   0.482870 0.466625 0.990079 -0.170686
N2    N     N_2   0.456911 0.535721 0.012043 -0.187170
N3    N     N_R   0.515110 0.716920 0.509720 -0.094950
N4    N     N_2   0.538273 0.978350 0.524061 -0.092507
N5    N     N_2   0.467695 0.020201 0.479765 -0.130360
N6    N     N_R   0.484890 0.283060 0.490290 -0.100194
O1    O     O_R   0.494590 0.422540 0.612660 -0.574621
O2    O     O_R   0.504290 0.561850 0.618900 -0.631791
O3    O     O_R   0.676080 0.430360 0.496880 -0.605590
O4    O     O_R   0.685780 0.569670 0.503120 -0.584244
O5    O     O_R   0.495710 0.438150 0.381100 -0.627330
O6    O     O_R   0.505410 0.577460 0.387340 -0.574019
O7    O     O_R   0.314220 0.430330 0.496880 -0.610705
O8    O     O_R   0.323920 0.569640 0.503120 -0.608011
Zn1   Zn    Zn3+2 0.493520 0.406980 0.495830 0.992282
Zn2   Zn    Zn3+2 0.506480 0.593020 0.504170 1.003111
N7    N     N_3   0.632331 0.281059 0.598431 -0.382246
H11   H     H_    0.606220 0.259998 0.656721 0.186820
H12   H     H_    0.724968 0.267951 0.589481 0.166852
N8    N     N_3   0.627313 0.103295 0.599597 -0.399866
H13   H     H_    0.720796 0.122685 0.591599 0.205087
H14   H     H_    0.600062 0.114985 0.657435 0.205846
I1    I     I_    0.723850 0.889608 0.653340 -0.300363
I2    I     I_    0.287571 0.104813 0.347118 -0.308185
N9    N     N_3   0.363905 0.725280 0.403078 -0.384136
H15   H     H_    0.272939 0.741129 0.413828 0.184486
H16   H     H_    0.388984 0.749759 0.345561 0.196937
I3    I     I_    0.887199 0.696353 0.465012 -0.275938
N10   N     N_3   0.288061 0.421698 0.108867 -0.439471
H17   H     H_    0.233332 0.457060 0.069253 0.205699
H18   H     H_    0.332208 0.378307 0.077041 0.228328
N11   N     N_3   0.360819 0.339410 0.912221 -0.452421
H19   H     H_    0.392641 0.282498 0.897042 0.222365
H20   H     H_    0.266707 0.341661 0.897327 0.218759
I4    I     I_    0.313847 0.320189 0.722580 -0.372725
I5    I     I_    0.687086 0.670201 0.261172 -0.282513

loop_
_geom_bond_atom_site_label_1
_geom_bond_atom_site_label_2
_ccdc_geom_bond_type
N6    Zn1   S    
C7    N10   S    
C17   I1    S    
C12   O4    A    
C1    O2    A    
C13   H3    S    
O8    Zn2   S    
C10   C23   S    
C25   C27   S    
C22   H6    S    
N1    N2    D    
C16   N4    S    
C23   O5    A    
C19   C20   A    
N9    H16   S    
C2    C30   A    
C15   C16   A    
C29   H9    S    
C12   O3    A    
C23   O6    A    
O1    Zn1   S    
C7    C8    A    
C24   I2    S    
C18   N3    A    
N4    N5    D    
C4    C5    A    
C11   C13   A    
C2    H4    S    
C9    N2    S    
N10   H17   S    
N8    H13   S    
C21   N5    S    
C5    C6    A    
C18   H5    S    
N8    H14   S    
C1    C30   S    
C19   C21   A    
C14   N9    S    
C25   O7    A    
C17   C18   A    
C5    N11   S    
N7    H11   S    
C11   I5    S    
O7    Zn1   S    
C26   C27   D    
C3    H2    S    
C12   C29   S    
C22   C24   A    
N7    H12   S    
N10   H18   S    
C10   C11   A    
C27   H8    S    
C3    C4    A    
C28   C29   D    
C7    C9    A    
N3    Zn2   S    
C26   H1    S    
C25   O8    A    
N11   H19   S    
N11   H20   S    
N9    H15   S    
C4    N1    S    
C21   C24   A    
O2    Zn2   S    
C9    C13   A    
C14   C15   A    
C15   H7    S    
C19   N8    S    
C2    C3    A    
O4    Zn2   S    
C8    H10   S    
O5    Zn1   S    
C22   N6    A    
C20   N7    S    
O3    Zn1   S    
C26   C28   S    
C6    C30   A    
C8    C10   A    
C1    O1    A    
O6    Zn2   S    
C16   C17   A    
C14   N3    A    
C28   I3    S    
C20   N6    A    
C6    I4    S    
