data_mof_unit_23357.cif
_audit_creation_date              2012-10-26T19:05:08-0400
_audit_creation_method            fapswitch 2.2
_symmetry_space_group_name_H-M    P1
_symmetry_Int_Tables_number       1
_space_group_crystal_system       triclinic
_cell_length_a                    15.867215
_cell_length_b                    10.85228
_cell_length_c                    9.61148
_cell_angle_alpha                 88.766051
_cell_angle_beta                  89.31555
_cell_angle_gamma                 94.251191
_cell_volume                      1649.96461049

loop_
_atom_site_label
_atom_site_type_symbol
_atom_type_description
_atom_site_fract_x
_atom_site_fract_y
_atom_site_fract_z
_atom_type_partial_charge
C1    C     C_R   0.502482 0.262090 0.502627 0.538003
C2    C     C_R   0.454068 0.035654 0.885282 -0.113286
C3    C     C_R   0.416493 0.917707 0.867252 -0.125068
C4    C     C_R   0.340307 0.499280 0.500823 0.538633
C5    C     C_R   0.420176 0.863969 0.737430 -0.093162
C6    C     C_R   0.461773 0.928367 0.623271 0.012750
C7    C     C_R   0.484586 0.055723 0.634743 0.016905
C8    C     C_R   0.503481 0.126876 0.509740 -0.015980
C9    C     C_R   0.514501 0.066490 0.384088 -0.173090
C10   C     C_R   0.508037 0.939088 0.380273 -0.161631
C11   C     C_R   0.483669 0.869004 0.499526 -0.016271
C12   C     C_3   0.949257 0.492231 0.647708 -0.244723
C13   C     C_R   0.601304 0.695316 0.127556 0.290633
C14   C     C_R   0.624320 0.800531 0.042733 -0.137294
C15   C     C_R   0.630588 0.790165 0.900206 -0.063322
C16   C     C_R   0.493090 0.736254 0.499263 0.546184
C17   C     C_R   0.601196 0.679235 0.843926 -0.097092
C18   C     C_R   0.550068 0.589216 0.920522 0.052102
C19   C     C_R   0.549670 0.592906 0.069939 0.131899
C20   C     C_R   0.451555 0.415882 0.077293 -0.013130
C21   C     C_R   0.448844 0.418318 0.928682 0.362959
C22   C     C_R   0.659401 0.496784 0.499523 0.548670
C23   C     C_3   0.916606 0.494292 0.494988 0.060117
C24   C     C_3   0.046921 0.500135 0.649431 -0.283887
C25   C     C_3   0.044709 0.376657 0.429890 0.177314
C26   C     C_3   0.946082 0.372943 0.432652 -0.220770
C27   C     C_1   0.748784 0.492535 0.498631 -0.053790
C28   C     C_3   0.082602 0.497131 0.499131 0.054430
C29   C     C_3   0.934859 0.591796 0.246279 -0.195278
C30   C     C_3   0.953274 0.709136 0.153909 -0.278666
C31   C     C_3   0.936192 0.682496 0.000977 -0.489867
C32   C     C_3   0.716388 0.744375 0.272031 -0.120552
C33   C     C_3   0.672528 0.890083 0.803691 -0.245899
C34   C     C_3   0.957030 0.609717 0.404162 0.310192
C35   C     C_3   0.697629 0.014396 0.871069 -0.299625
C36   C     C_3   0.731334 0.110769 0.762135 -0.453919
C37   C     C_3   0.311648 0.345235 0.895296 -0.119044
C38   C     C_3   0.081096 0.249116 0.250485 -0.151336
C39   C     C_3   0.931482 0.766894 0.573471 -0.139849
C40   C     C_3   0.055958 0.613302 0.417716 -0.147636
C41   C     C_1   0.824266 0.491627 0.497321 -0.061873
C42   C     C_1   0.174954 0.498324 0.502049 -0.048071
C43   C     C_1   0.250572 0.498899 0.502364 -0.037151
C44   C     C_R   0.488178 0.104081 0.770898 -0.062605
Cu1   Cu    Cu3+1 0.499990 0.499990 0.640660 0.961921
Cu2   Cu    Cu3+1 0.500010 0.500010 0.359340 0.982429
H1    H     H_    0.925223 0.404141 0.700933 0.110871
H2    H     H_    0.413422 0.345841 0.136141 0.120020
H3    H     H_    0.068293 0.421159 0.712260 0.106649
H4    H     H_    0.647771 0.885175 0.090240 0.104833
H5    H     H_    0.617600 0.670416 0.737743 0.194237
H6    H     H_    0.064375 0.297133 0.494854 0.098480
H7    H     H_    0.920808 0.291686 0.497146 0.074038
H8    H     H_    0.919474 0.355902 0.327901 0.121410
H9    H     H_    0.081763 0.698562 0.468607 0.099299
H10   H     H_    0.087970 0.616992 0.313963 0.128483
H11   H     H_    0.978114 0.612423 0.963157 0.152396
H12   H     H_    0.071384 0.585956 0.701201 0.113945
H13   H     H_    0.869174 0.648060 0.987219 0.147410
H14   H     H_    0.948838 0.768599 0.937240 0.130369
H15   H     H_    0.912459 0.782561 0.186372 0.191084
H16   H     H_    0.020196 0.745257 0.163727 0.154500
H17   H     H_    0.970569 0.518096 0.200716 0.161192
H18   H     H_    0.866594 0.562568 0.236810 0.129126
H19   H     H_    0.718752 0.846536 0.278745 0.097337
H20   H     H_    0.757133 0.715480 0.185366 0.110322
H21   H     H_    0.743230 0.711827 0.370539 0.163516
H22   H     H_    0.787944 0.079228 0.708262 0.142258
H23   H     H_    0.924329 0.563533 0.713664 0.115832
H24   H     H_    0.682057 0.127286 0.684129 0.156030
H25   H     H_    0.749402 0.199310 0.813601 0.141528
H26   H     H_    0.641853 0.049477 0.923990 0.161304
H27   H     H_    0.747703 0.002071 0.949009 0.149774
H28   H     H_    0.729966 0.854142 0.756698 0.126520
H29   H     H_    0.628329 0.906696 0.717732 0.166442
H30   H     H_    0.271155 0.295478 0.818191 0.138122
H31   H     H_    0.295631 0.443552 0.892351 0.116306
H32   H     H_    0.295931 0.301870 0.999001 0.092397
H33   H     H_    0.019620 0.193720 0.264796 0.103910
H34   H     H_    0.530340 0.117825 0.288217 0.130765
H35   H     H_    0.131561 0.205497 0.308976 0.118743
H36   H     H_    0.098333 0.249100 0.138293 0.133644
H37   H     H_    0.989880 0.742998 0.625686 0.104376
H38   H     H_    0.874122 0.735244 0.635238 0.121423
H39   H     H_    0.933550 0.869280 0.569657 0.122773
H40   H     H_    0.521471 0.190835 0.794582 0.168868
H41   H     H_    0.456358 0.074794 0.987985 0.109856
H42   H     H_    0.387095 0.866116 0.954873 0.108500
H43   H     H_    0.389798 0.772114 0.727507 0.140311
H44   H     H_    0.522924 0.895556 0.283657 0.149218
N1    N     N_R   0.500800 0.501210 0.147910 -0.263106
N2    N     N_R   0.500820 0.501290 0.852040 -0.231735
O1    O     O_R   0.499990 0.319640 0.618810 -0.472397
O2    O     O_3   0.396987 0.332908 0.858847 -0.548117
O3    O     O_3   0.075558 0.372508 0.290890 -0.582532
O4    O     O_3   0.923351 0.725051 0.436146 -0.589298
O5    O     O_R   0.500000 0.319660 0.381240 -0.518008
O6    O     O_R   0.379430 0.499990 0.618840 -0.475108
O7    O     O_R   0.379440 0.500020 0.381260 -0.501583
O8    O     O_R   0.500000 0.680340 0.618760 -0.541665
O9    O     O_R   0.500010 0.680360 0.381190 -0.443948
O10   O     O_R   0.620560 0.499980 0.618740 -0.534936
O11   O     O_R   0.620570 0.500010 0.381160 -0.430148
O12   O     O_3   0.631789 0.693378 0.261745 -0.517111

loop_
_geom_bond_atom_site_label_1
_geom_bond_atom_site_label_2
_ccdc_geom_bond_type
Cu2   O7    S    
C29   H17   S    
C4    O6    A    
C1    C8    S    
C35   C36   S    
C12   H23   S    
Cu1   O1    S    
C17   H5    S    
C7    C8    A    
C14   H4    S    
Cu1   Cu2   S    
C25   C28   S    
C12   C23   S    
C16   O9    A    
C34   C40   S    
C34   O4    S    
C39   H38   S    
Cu1   O6    S    
C30   C31   S    
C21   O2    S    
C28   C40   S    
C18   C19   A    
C23   C26   S    
C31   H13   S    
Cu1   N2    S    
C33   H29   S    
C2    C44   A    
C8    C9    A    
C40   H10   S    
C38   O3    S    
C32   O12   S    
C9    C10   A    
C36   H25   S    
C40   H9    S    
C29   H18   S    
C13   C14   A    
C38   H36   S    
C12   H1    S    
C44   H40   S    
C26   H8    S    
C20   N1    A    
C36   H24   S    
Cu2   O9    S    
C13   C19   A    
Cu1   O10   S    
C1    O5    A    
C6    C11   A    
C16   O8    A    
Cu2   N1    S    
C25   C26   S    
C37   H31   S    
C29   C34   S    
C22   O11   A    
C9    H34   S    
C31   H14   S    
C29   C30   S    
C11   C16   S    
C27   C41   T    
C23   C34   S    
C17   C18   A    
C2    H41   S    
C7    C44   A    
C13   O12   S    
C20   H2    S    
C32   H21   S    
C1    O1    A    
Cu2   O5    S    
C35   H26   S    
C25   O3    S    
C22   C27   S    
C30   H16   S    
C38   H35   S    
C4    O7    A    
C42   C43   T    
C39   H39   S    
C26   H7    S    
C32   H20   S    
Cu2   O11   S    
C24   H3    S    
C15   C17   A    
C35   H27   S    
C3    H42   S    
C37   H30   S    
C24   C28   S    
C3    C5    A    
Cu1   O8    S    
C23   C41   S    
C36   H22   S    
C6    C7    A    
C4    C43   S    
C37   H32   S    
C12   C24   S    
C22   O10   A    
C18   N2    A    
C31   H11   S    
C2    C3    A    
C25   H6    S    
C39   H37   S    
C5    C6    A    
C28   C42   S    
C33   C35   S    
C37   O2    S    
C39   O4    S    
C19   N1    A    
C10   C11   A    
C33   H28   S    
C20   C21   A    
C10   H44   S    
C24   H12   S    
C38   H33   S    
C30   H15   S    
C14   C15   A    
C15   C33   S    
C5    H43   S    
C32   H19   S    
C21   N2    A    
