data_mof_unit_34853.cif
_audit_creation_date              2013-03-05T16:02:54-0500
_audit_creation_method            fapswitch 2.2
_symmetry_space_group_name_H-M    P1
_symmetry_Int_Tables_number       1
_space_group_crystal_system       triclinic
_cell_length_a                    8.685879
_cell_length_b                    14.637746
_cell_length_c                    17.192845
_cell_angle_alpha                 97.733781
_cell_angle_beta                  97.473962
_cell_angle_gamma                 92.568632
_cell_volume                      2143.31678877

loop_
_atom_site_label
_atom_site_type_symbol
_atom_site_description
_atom_site_fract_x
_atom_site_fract_y
_atom_site_fract_z
_atom_type_partial_charge
P1    P     P_3+3 0.017810 0.410420 0.324030 0.569128
O1    O     O_2   0.840370 0.437300 0.310630 -0.236441
O2    O     O_3   0.112450 0.444030 0.408320 -0.413399
O3    O     O_3   0.597270 0.610320 0.351390 -0.353171
O4    O     O_2   0.683142 0.553200 0.212972 -0.327920
O5    O     O_3   0.008036 0.292311 0.277505 -0.573623
O6    O     O_3   0.499756 0.694752 0.216171 -0.551050
H1    H     H_    0.739562 0.725746 0.251592 0.169715
C1    C     C_3   0.670048 0.747637 0.130105 -0.817078
H2    H     H_    0.773025 0.794303 0.127782 0.204409
H3    H     H_    0.694388 0.677040 0.104798 0.290939
P2    P     P_3+3 0.635890 0.718430 0.552520 0.474069
P3    P     P_3+3 0.059521 0.779190 0.390431 0.451736
O7    O     O_2   0.802370 0.730760 0.528330 -0.318341
O8    O     O_3   0.016680 0.660770 0.388810 -0.341458
O9    O     O_2   0.936915 0.826127 0.437229 -0.378594
O10   O     O_3   0.699916 0.745126 0.654796 -0.595359
O11   O     O_3   0.003279 0.805657 0.293688 -0.568359
C2    C     C_3   0.119520 0.788016 0.243676 0.401285
H4    H     H_    0.238704 0.797865 0.277657 0.049008
C3    C     C_3   0.103932 0.852128 0.178328 -0.569814
H5    H     H_    0.018091 0.903755 0.189689 0.227105
C4    C     C_3   0.116588 0.761636 0.729186 0.315674
H6    H     H_    0.996052 0.730412 0.721916 0.083756
C5    C     C_3   0.192403 0.770341 0.815886 -1.005608
H7    H     H_    0.232478 0.704543 0.831413 0.257092
H8    H     H_    0.294610 0.821009 0.827459 0.255063
H9    H     H_    0.108182 0.794532 0.856245 0.243558
Ba1   Ba    Ba6+2 0.833220 0.541860 0.459910 1.596199
C6    C     C_3   0.980473 0.212851 0.314654 0.156209
C7    C     C_3   0.004789 0.127203 0.252961 -0.787948
H10   H     H_    0.900885 0.109875 0.207362 0.176551
H11   H     H_    0.095851 0.142955 0.216493 0.235577
C8    C     C_3   0.586954 0.718761 0.699446 0.303840
H12   H     H_    0.586884 0.643425 0.697829 0.105465
H13   H     H_    0.471695 0.739698 0.675361 0.111098
C9    C     C_3   0.628182 0.764250 0.786669 -0.119690
P4    P     P_3+3 0.171880 0.589650 0.675980 0.492670
O12   O     O_2   0.349330 0.562730 0.689420 -0.375561
O13   O     O_3   0.077250 0.556050 0.591680 -0.350480
O14   O     O_3   0.592420 0.389760 0.648620 -0.420416
O15   O     O_3   0.203955 0.709502 0.677766 -0.593266
P5    P     P_3+3 0.134415 0.222942 0.618269 0.485826
O16   O     O_3   0.628930 0.385070 0.464840 -0.339929
O17   O     O_3   0.173020 0.339310 0.611190 -0.419421
O18   O     O_2   0.265434 0.170415 0.582275 -0.376668
O19   O     O_3   0.168883 0.212373 0.719660 -0.560022
Ba2   Ba    Ba6+2 0.356600 0.458220 0.540090 1.594907
P6    P     P_3+3 0.538822 0.588392 0.249251 0.550663
C10   C     C_3   0.637481 0.749422 0.215865 0.298755
H14   H     H_    0.567971 0.769675 0.092805 0.243756
O20   O     O_3   0.560770 0.615000 0.535160 -0.397888
C11   C     C_3   0.454051 0.257838 0.282715 0.188896
C12   C     C_3   0.442822 0.183347 0.207439 -0.636897
H15   H     H_    0.379877 0.119410 0.218167 0.212066
H16   H     H_    0.561405 0.163678 0.197517 0.197074
P7    P     P_3+3 0.552270 0.266797 0.446719 0.526540
O21   O     O_2   0.387340 0.269270 0.471720 -0.411164
O22   O     O_3   0.516611 0.212281 0.346641 -0.498871
H17   H     H_    0.054821 0.814851 0.118665 0.154628
C13   C     C_3   0.208203 0.300678 0.763706 0.389597
H18   H     H_    0.314712 0.330947 0.745798 0.162761
H19   H     H_    0.114168 0.348121 0.753424 0.117108
C14   C     C_3   0.240567 0.296138 0.852949 -0.609739
H20   H     H_    0.269997 0.367265 0.884093 0.225930
H21   H     H_    0.342933 0.256175 0.866973 0.224101
P8    P     P_3+3 0.631428 0.409856 0.752115 0.415396
C15   C     C_3   0.609296 0.226618 0.741003 0.380118
O23   O     O_2   0.508558 0.474001 0.781921 -0.427205
O24   O     O_3   0.599195 0.307983 0.794612 -0.579606
H22   H     H_    0.549266 0.232574 0.680899 0.077177
H23   H     H_    0.535963 0.079984 0.726136 0.204861
C16   C     C_3   0.527630 0.143297 0.768837 -0.590925
H24   H     H_    0.402734 0.152126 0.768557 0.240832
C17   C     C_2   0.240865 0.517903 0.271942 -0.450946
C18   C     C_3   0.368565 0.501480 0.220277 0.173574
C19   C     C_2   0.306501 0.483253 0.132209 -0.095399
C20   C     C_2   0.150736 0.462931 0.109774 0.090240
C21   C     C_2   0.050042 0.450619 0.173732 -0.184418
C22   C     C_1   0.108678 0.467754 0.250422 0.337453
C23   C     C_R   0.894508 0.469796 0.862707 -0.290347
C24   C     C_R   0.826801 0.467982 0.784282 0.293501
C25   C     C_R   0.065565 0.541445 0.752591 0.251964
C26   C     C_R   0.135416 0.537244 0.831108 -0.379149
C27   C     C_R   0.049146 0.504139 0.887465 0.125668
C28   C     C_2   0.075668 0.454912 0.024747 -0.147318
C29   C     C_2   0.121974 0.508672 0.972080 -0.161661
C30   C     C_R   0.910361 0.506428 0.729952 -0.294890
H25   H     H_    0.218090 0.559883 0.991614 0.168674
H26   H     H_    0.926974 0.430843 0.156812 0.172545
H27   H     H_    0.825324 0.443638 0.903765 0.151402
H28   H     H_    0.976266 0.405702 0.007078 0.146023
H29   H     H_    0.257048 0.559185 0.848574 0.171152
H30   H     H_    0.262733 0.562325 0.328624 0.148275
C31   C     C_R   0.701925 0.946965 0.550549 0.005167
C32   C     C_R   0.513525 0.805345 0.508209 0.184623
C33   C     C_R   0.365363 0.770025 0.469822 -0.443973
C34   C     C_R   0.256590 0.827395 0.438818 0.182381
C35   C     C_R   0.297729 0.921620 0.444216 -0.169383
C36   C     C_R   0.447689 0.959098 0.476673 0.091151
C37   C     C_R   0.556796 0.902781 0.512655 0.013893
H31   H     H_    0.332333 0.697164 0.465758 0.168646
C38   C     C_R   0.633803 0.095215 0.506718 -0.039169
C39   C     C_R   0.744172 0.040396 0.543366 0.062036
C40   C     C_R   0.673846 0.190829 0.505646 0.253490
C41   C     C_R   0.822290 0.228378 0.541280 -0.374935
C42   C     C_R   0.936082 0.172954 0.571972 0.374010
C43   C     C_R   0.895906 0.079992 0.573229 -0.312481
C44   C     C_R   0.486974 0.053077 0.473750 -0.033970
H32   H     H_    0.212180 0.966703 0.423868 0.172860
H33   H     H_    0.984957 0.040021 0.599568 0.181093
H34   H     H_    0.851185 0.301132 0.542870 0.186982
H35   H     H_    0.402087 0.092785 0.444418 0.217366
C45   C     C_2   0.822429 0.208814 0.329869 0.959360
O25   O     O_2   0.780362 0.281470 0.358573 -0.551103
O26   O     O_R   0.740692 0.125443 0.334023 -0.733704
H36   H     H_    0.717329 0.084599 0.281140 0.351456
C46   C     C_2   0.069634 0.218890 0.397111 0.864301
O27   O     O_2   0.149326 0.157982 0.418259 -0.633571
O28   O     O_R   0.046621 0.292914 0.452009 -0.762540
H37   H     H_    0.148000 0.319276 0.481555 0.395309
C47   C     C_2   0.045080 0.043565 0.290075 1.096750
O29   O     O_2   0.179590 0.021465 0.297044 -0.632479
O30   O     O_R   0.931288 0.995440 0.321357 -0.735027
H38   H     H_    0.975399 0.958801 0.363345 0.360951
N1    N     N_3   0.793435 0.755906 0.814437 -0.186546
H39   H     H_    0.815164 0.685972 0.812627 0.092927
H40   H     H_    0.818810 0.785951 0.873756 0.119403
N2    N     N_3   0.531982 0.718438 0.835992 -0.209191
H41   H     H_    0.561085 0.649905 0.835822 0.144172
H42   H     H_    0.556939 0.750387 0.894798 0.117426
N3    N     N_3   0.595131 0.862207 0.792027 -0.197332
H43   H     H_    0.619205 0.893066 0.851166 0.119712
H44   H     H_    0.670750 0.895828 0.760904 0.175377
C48   C     C_2   0.617074 0.846527 0.254171 1.059347
O31   O     O_2   0.616707 0.911345 0.216194 -0.619416
O32   O     O_R   0.599977 0.863568 0.334198 -0.739732
H45   H     H_    0.605378 0.805488 0.360152 0.288842
N4    N     N_3   0.300564 0.281541 0.293677 -0.209420
H46   H     H_    0.256905 0.219874 0.306474 0.179991
H47   H     H_    0.301375 0.326191 0.346040 0.084003
C49   C     C_2   0.547365 0.342919 0.271114 1.017596
O33   O     O_2   0.614792 0.342933 0.212921 -0.607196
O34   O     O_R   0.559107 0.423056 0.325825 -0.683523
H48   H     H_    0.472304 0.431165 0.359220 0.277881
C50   C     C_2   0.363036 0.210945 0.131563 1.094162
O35   O     O_2   0.234100 0.241578 0.128662 -0.645231
O36   O     O_R   0.435091 0.196537 0.063222 -0.761755
H49   H     H_    0.366166 0.210038 0.014375 0.343675
N5    N     N_3   0.107921 0.256399 0.883899 -0.165552
H50   H     H_    0.089577 0.186698 0.860034 0.199637
H51   H     H_    0.008524 0.290245 0.866609 0.174382
C51   C     C_2   0.776261 0.207505 0.735706 0.896945
O37   O     O_2   0.862330 0.267161 0.718532 -0.706296
O38   O     O_R   0.832049 0.121787 0.748992 -0.805230
H52   H     H_    0.944487 0.115802 0.741030 0.360177
C52   C     C_2   0.094177 0.692279 0.200046 0.898320
O39   O     O_2   0.187013 0.663897 0.156423 -0.653567
O40   O     O_R   0.953532 0.642727 0.198694 -0.760764
H53   H     H_    0.925244 0.598477 0.147785 0.321567
N6    N     N_3   0.597367 0.128534 0.847992 -0.149770
H54   H     H_    0.576449 0.184387 0.889092 0.182032
H55   H     H_    0.539156 0.070347 0.862417 0.147832
C53   C     C_2   0.418171 0.472123 0.073852 1.040868
O41   O     O_2   0.502072 0.537902 0.064773 -0.638429
O42   O     O_R   0.424343 0.386668 0.027851 -0.795733
H56   H     H_    0.505810 0.387336 0.990659 0.327600
N7    N     N_3   0.839571 0.510253 0.650777 -0.144167
H57   H     H_    0.832393 0.444303 0.618382 0.171560
H58   H     H_    0.731229 0.537719 0.650477 0.162867
N8    N     N_3   0.800125 0.901004 0.603369 -0.164955
H59   H     H_    0.907002 0.894243 0.582475 0.187647
H60   H     H_    0.814210 0.941351 0.658951 0.166897
N9    N     N_3   0.254309 0.897321 0.172251 -0.137448
H61   H     H_    0.235131 0.946548 0.133820 0.149417
H62   H     H_    0.320495 0.847834 0.144831 0.175313
C54   C     C_2   0.109717 0.859261 0.709117 0.996668
O43   O     O_2   0.041238 0.914960 0.749164 -0.638423
O44   O     O_R   0.185429 0.890012 0.649315 -0.797358
H63   H     H_    0.242264 0.841514 0.618845 0.301737

loop_
_geom_bond_atom_site_label_1
_geom_bond_atom_site_label_2
_geom_bond_distance
_ccdc_geom_bond_type
P7    C40   1.873030 S    
N8    H59   1.042134 S    
N1    H39   1.046309 S    
P4    C25   1.895711 S    
C8    C9    1.546155 S    
C16   H24   1.097704 S    
C40   C41   1.407215 A    
C2    H4    1.113732 S    
C1    H14   1.111221 S    
C46   O28   1.377714 S    
N2    H41   1.045180 S    
N6    H54   1.044975 S    
C11   O22   1.422075 S    
C48   O31   1.221881 D    
O14   P8    1.749529 S    
C41   H34   1.079019 S    
C11   C12   1.565650 S    
O28   H37   0.991348 S    
C5    H9    1.109573 S    
N8    H60   1.043164 S    
C52   O39   1.220176 D    
C4    O15   1.408770 S    
P3    O11   1.770386 S    
O1    Ba1   2.815365 S    
C53   O41   1.220525 D    
C2    C3    1.554645 S    
C8    H12   1.099325 S    
C10   C48   1.512132 S    
P4    O12   1.603306 D    
P2    Ba1   3.486041 S    
P7    O22   1.778463 S    
C41   C42   1.401764 A    
C33   C34   1.393765 A    
O2    Ba2   2.873472 S    
O26   H36   1.010004 S    
O2    Ba1   3.041190 S    
P1    O1    1.603008 D    
P3    C34   1.866343 S    
C13   H19   1.107675 S    
C46   O27   1.217909 D    
C21   H26   1.086178 S    
C16   N6    1.463593 S    
P2    O20   1.595661 S    
N9    H61   1.045860 S    
O40   H53   1.011541 S    
N3    H43   1.046039 S    
C30   N7    1.428299 S    
P2    O10   1.759321 S    
C4    H6    1.108303 S    
C7    H11   1.106106 S    
C51   O38   1.401481 S    
C1    H2    1.109094 S    
P4    Ba2   3.431623 S    
C33   H31   1.082570 S    
C44   H35   1.075342 S    
C12   C50   1.508969 S    
C20   C28   1.508293 S    
C19   C53   1.482339 S    
N7    H58   1.039448 S    
C25   C30   1.406919 A    
C9    N1    1.468422 S    
C36   C44   1.411497 A    
C52   O40   1.388406 S    
C38   C44   1.405550 A    
C48   O32   1.393367 S    
C3    H5    1.101747 S    
O6    C10   1.410124 S    
O4    P6    1.549387 D    
N6    H55   1.045679 S    
O8    Ba1   2.809620 S    
C50   O36   1.397558 S    
C27   C29   1.500588 S    
C12   H16   1.109935 S    
C26   H29   1.081925 S    
O38   H52   1.009675 S    
Ba1   Ba2   4.692793 S    
P1    O5    1.798038 S    
C2    C52   1.490467 S    
C18   C19   1.523300 S    
O6    P6    1.760093 S    
C3    H17   1.116496 S    
C15   C51   1.501206 S    
C20   C21   1.515245 S    
O11   C2    1.419452 S    
C6    C46   1.513892 S    
C9    N3    1.468024 S    
C54   O44   1.402179 S    
C15   C16   1.545159 S    
C19   C20   1.365671 D    
C35   H32   1.071660 S    
C23   C24   1.395462 A    
O44   H63   1.010298 S    
C14   N5    1.460019 S    
P8    O23   1.544601 D    
C14   H21   1.104408 S    
C13   C14   1.534457 S    
C17   C18   1.516528 S    
C1    H3    1.106520 S    
C7    H10   1.111460 S    
O16   P7    1.798659 S    
C42   C43   1.393272 A    
C32   C33   1.409466 A    
P1    Ba1   3.430923 S    
P6    C18   1.876897 S    
C38   C40   1.430071 A    
P5    C42   1.873556 S    
C26   C27   1.420527 A    
Ba2   O21   2.894051 S    
P5    O17   1.744688 S    
C54   O43   1.221269 D    
C15   O24   1.417970 S    
N7    H57   1.042526 S    
O5    C6    1.425784 S    
P2    O7    1.565183 D    
C34   C35   1.396911 A    
P3    O8    1.752266 S    
Ba1   O16   2.854740 S    
O42   H56   1.014129 S    
N5    H51   1.044212 S    
C25   C26   1.416614 A    
O10   C8    1.393797 S    
O7    Ba1   2.893816 S    
C47   O30   1.392933 S    
H1    C10   1.107574 S    
C39   C43   1.418421 A    
C31   C39   1.425675 A    
C50   O35   1.222404 D    
C6    C45   1.430618 S    
O17   Ba2   2.810242 S    
O13   Ba2   3.042083 S    
C12   H15   1.111604 S    
N1    H40   1.046043 S    
C28   C29   1.363476 D    
P2    C32   1.870838 S    
C1    C10   1.534133 S    
O3    Ba1   2.894478 S    
C7    C47   1.489647 S    
H23   C16   1.113470 S    
O12   Ba2   2.815952 S    
O19   C13   1.410882 S    
C45   O26   1.399078 S    
N4    H46   1.025426 S    
C43   H33   1.080018 S    
C45   O25   1.203590 D    
C5    H8    1.110438 S    
O32   H45   1.012095 S    
N5    H50   1.044236 S    
C35   C36   1.404782 A    
C11   C49   1.505370 S    
O3    P6    1.745347 S    
O34   H48   1.007224 S    
P8    O24   1.773387 S    
C14   H20   1.107489 S    
C53   O42   1.394216 S    
C5    H7    1.093234 S    
C28   H28   1.083392 S    
P4    O13   1.574841 S    
N4    H47   1.037915 S    
P7    O21   1.548860 D    
C6    C7    1.570192 S    
P5    O19   1.758769 S    
C15   H22   1.111503 S    
C24   C30   1.413228 A    
Ba1   O13   2.872813 S    
C36   C37   1.419560 A    
O14   Ba2   2.893858 S    
C9    N2    1.467701 S    
C49   O34   1.392320 S    
O36   H49   1.013534 S    
C4    C5    1.535524 S    
C13   H18   1.105006 S    
P5    O18   1.550090 D    
N9    H62   1.045654 S    
C4    C54   1.516475 S    
C11   N4    1.422131 S    
C21   C22   1.336286 D    
C23   H27   1.080972 S    
P4    O15   1.759493 S    
O16   Ba2   3.010961 S    
Ba2   O20   2.854011 S    
C17   C22   1.317144 D    
C8    H13   1.105191 S    
P8    C24   1.846430 S    
N3    H44   1.045580 S    
C3    N9    1.459872 S    
P3    O9    1.546999 D    
C38   C39   1.416965 A    
C47   O29   1.221434 D    
C29   H25   1.083928 S    
C49   O33   1.223323 D    
P1    C22   1.848017 S    
P1    O2    1.574759 S    
C51   O37   1.215274 D    
C32   C37   1.447903 A    
C31   N8    1.420982 S    
C23   C27   1.403976 A    
C31   C37   1.425361 A    
C17   H30   1.085726 S    
O30   H38   1.003104 S    
N2    H42   1.046208 S    
Ba1   O20   3.011806 S    
