data_mof_unit_5657.cif
_audit_creation_date              2012-12-10T16:39:41-0500
_audit_creation_method            fapswitch 2.2
_symmetry_space_group_name_H-M    P1
_symmetry_Int_Tables_number       1
_space_group_crystal_system       triclinic
_cell_length_a                    17.238267
_cell_length_b                    17.210937
_cell_length_c                    17.216158
_cell_angle_alpha                 68.577747
_cell_angle_beta                  68.620409
_cell_angle_gamma                 68.845243
_cell_volume                      4272.18096693

loop_
_atom_site_label
_atom_site_type_symbol
_atom_type_description
_atom_site_fract_x
_atom_site_fract_y
_atom_site_fract_z
_atom_type_partial_charge
C1    C     C_R   0.322910 0.965316 0.448944 0.019727
C2    C     C_R   0.320615 0.443420 0.979793 -0.009161
C3    C     C_R   0.540084 0.415042 0.994200 -0.027875
C4    C     C_R   0.016272 0.458385 0.581463 -0.040351
C5    C     C_R   0.988466 0.541779 0.416861 -0.025062
C6    C     C_R   0.263770 0.949377 0.264832 0.216412
C7    C     C_R   0.223807 0.019854 0.206341 -0.029025
C8    C     C_R   0.194128 0.003583 0.150312 -0.162366
C9    C     C_R   0.189814 0.921363 0.161751 -0.153944
C10   C     C_R   0.225143 0.851941 0.223066 -0.137856
C11   C     C_R   0.263577 0.865671 0.273634 -0.093682
C12   C     C_R   0.735417 0.049237 0.735206 0.223399
C13   C     C_R   0.035054 0.677334 0.550803 0.022907
C14   C     C_R   0.791024 0.981235 0.781094 -0.021446
C15   C     C_R   0.841459 0.000935 0.815242 -0.140634
C16   C     C_R   0.829308 0.085933 0.813096 -0.174024
C17   C     C_R   0.773893 0.152421 0.767550 -0.193763
C18   C     C_R   0.728785 0.134520 0.726974 -0.100514
C19   C     C_R   0.944015 0.266818 0.266139 0.211832
C20   C     C_R   0.859880 0.274462 0.268461 -0.098390
C21   C     C_R   0.845369 0.224598 0.229641 -0.144656
C22   C     C_R   0.914372 0.165290 0.191508 -0.151833
C23   C     C_R   0.997144 0.155594 0.192259 -0.162551
C24   C     C_R   0.966222 0.323586 0.449031 0.013697
C25   C     C_R   0.013931 0.210288 0.223248 -0.018087
C26   C     C_R   0.059969 0.733615 0.733124 0.220350
C27   C     C_R   0.144478 0.725195 0.730434 -0.110444
C28   C     C_R   0.159260 0.755016 0.787552 -0.181450
C29   C     C_R   0.090613 0.784671 0.852912 -0.162734
C30   C     C_R   0.006588 0.796531 0.853214 -0.136013
C31   C     C_R   0.990244 0.776498 0.790139 -0.028799
C32   C     C_R   0.267576 0.266526 0.942537 0.214591
C33   C     C_R   0.208597 0.225030 0.011269 -0.023619
C34   C     C_R   0.151101 0.199770 0.992300 -0.155223
C35   C     C_R   0.454420 0.984824 0.454862 0.008156
C36   C     C_R   0.161483 0.201129 0.908590 -0.169562
C37   C     C_R   0.225246 0.234875 0.840689 -0.150834
C38   C     C_R   0.276955 0.269996 0.857324 -0.107090
C39   C     C_R   0.733016 0.733347 0.059276 0.221921
C40   C     C_R   0.780060 0.790490 0.994341 -0.020573
C41   C     C_R   0.808875 0.842397 0.018509 -0.149733
C42   C     C_R   0.799935 0.831200 0.104862 -0.159621
C43   C     C_R   0.755834 0.772812 0.168062 -0.175289
C44   C     C_R   0.720167 0.726052 0.145839 -0.124296
C45   C     C_3   0.241614 0.032688 0.847356 -0.836569
C46   C     C_R   0.546800 0.010009 0.545883 0.006794
C47   C     C_3   0.653326 0.085757 0.135786 -0.779603
C48   C     C_3   0.029716 0.825476 0.214282 -0.902384
C49   C     C_3   0.028837 0.139756 0.697166 -0.826523
C50   C     C_3   0.821199 0.213306 0.032779 -0.899069
C51   C     C_3   0.132203 0.643280 0.108840 -0.782884
C52   C     C_3   0.159380 0.949015 0.774374 -0.828228
C53   C     C_3   0.851545 0.973935 0.297532 -0.803447
C54   C     C_3   0.745013 0.372280 0.793924 -0.804310
C55   C     C_3   0.300989 0.842380 0.983506 -0.816206
C56   C     C_3   0.793854 0.749356 0.374003 -0.794139
C57   C     C_R   0.987752 0.454657 0.453875 0.004140
C58   C     C_3   0.968496 0.307728 0.854400 -0.782319
C59   C     C_3   0.437770 0.195418 0.693767 -0.808837
C60   C     C_3   0.558980 0.804498 0.297618 -0.807195
C61   C     C_3   0.201515 0.695747 0.430198 -0.804707
C62   C     C_3   0.795670 0.307827 0.561668 -0.820315
C63   C     C_3   0.692095 0.430988 0.203602 -0.807286
C64   C     C_3   0.300573 0.569180 0.816023 -0.791779
C65   C     C_3   0.306534 0.792647 0.566409 -0.812353
C66   C     C_3   0.671312 0.209017 0.409259 -0.836914
C67   C     C_3   0.571122 0.294020 0.792139 -0.782450
C68   C     C_R   0.019702 0.544454 0.543454 0.006900
C69   C     C_3   0.412250 0.676548 0.221683 -0.841948
C70   C     C_3   0.790865 0.569294 0.295249 -0.778193
C71   C     C_3   0.211398 0.437471 0.698201 -0.812128
C72   C     C_R   0.452093 0.449335 0.998795 0.004315
C73   C     C_R   0.542462 0.541519 0.025933 0.004932
C74   C     C_R   0.970937 0.177966 0.434975 0.896737
C75   C     C_R   0.677694 0.030302 0.551939 -0.002849
C76   C     C_R   0.029521 0.822299 0.564880 0.912344
C77   C     C_R   0.177660 0.434013 0.973262 0.891872
C78   C     C_R   0.822371 0.565262 0.028526 0.913522
C79   C     C_R   0.434237 0.972498 0.177537 0.901385
C80   C     C_R   0.565762 0.026931 0.822562 0.908978
C81   C     C_R   0.565026 0.822032 0.029376 0.899520
C82   C     C_R   0.435454 0.177936 0.970189 0.912686
C83   C     C_R   0.030475 0.564752 0.821786 0.893405
C84   C     C_R   0.970205 0.435316 0.178068 0.912896
C85   C     C_R   0.822408 0.027866 0.565370 0.901733
C86   C     C_R   0.961568 0.450847 0.324992 0.004653
C87   C     C_R   0.177638 0.970958 0.435026 0.916641
C88   C     C_R   0.406448 0.977026 0.407511 -0.027247
C89   C     C_R   0.594340 0.018211 0.593393 -0.027612
C90   C     C_R   0.975057 0.408562 0.407907 -0.027671
C91   C     C_R   0.029178 0.591583 0.590811 -0.029399
C92   C     C_R   0.406597 0.403715 0.984512 -0.026061
C93   C     C_R   0.590791 0.590402 0.030804 -0.029140
C94   C     C_R   0.272737 0.962814 0.399968 -0.147175
C95   C     C_R   0.727636 0.033211 0.601107 -0.139800
C96   C     C_R   0.960093 0.401322 0.274168 -0.144883
C97   C     C_R   0.040899 0.550147 0.674501 -0.009821
C98   C     C_R   0.042012 0.599426 0.725369 -0.143097
C99   C     C_R   0.401197 0.273577 0.961160 -0.144740
C100  C     C_R   0.600287 0.726149 0.038979 -0.141233
C101  C     C_R   0.601905 0.031355 0.728011 -0.148932
C102  C     C_R   0.398131 0.965920 0.272564 -0.145012
C103  C     C_R   0.727293 0.600491 0.036839 -0.150997
C104  C     C_R   0.272735 0.397697 0.968070 -0.147879
C105  C     C_R   0.039814 0.726822 0.599274 -0.149095
C106  C     C_R   0.961991 0.273838 0.400298 -0.143588
C107  C     C_R   0.462982 0.042164 0.705590 0.204233
C108  C     C_R   0.450024 0.323830 0.964739 0.003977
C109  C     C_R   0.536909 0.956340 0.293814 0.229355
C110  C     C_R   0.048996 0.705589 0.459757 0.189265
C111  C     C_R   0.948084 0.297359 0.540731 0.208672
C112  C     C_R   0.704961 0.460280 0.049944 0.188684
C113  C     C_R   0.290913 0.533004 0.972342 0.229172
C114  C     C_R   0.297581 0.944426 0.540345 0.192650
C115  C     C_R   0.702259 0.053564 0.460545 0.219426
C116  C     C_R   0.541741 0.302757 0.938615 0.199030
C117  C     C_R   0.459095 0.698142 0.067048 0.217024
C118  C     C_R   0.936730 0.542819 0.302263 0.197091
C119  C     C_R   0.550181 0.674321 0.041105 -0.003982
C120  C     C_R   0.061630 0.458708 0.699439 0.220811
C121  C     C_R   0.311705 0.961979 0.312750 -0.152595
C122  C     C_R   0.688678 0.033260 0.688599 -0.155033
C123  C     C_R   0.958124 0.314273 0.313675 -0.152612
C124  C     C_R   0.044946 0.686594 0.685411 -0.146713
C125  C     C_R   0.314317 0.312807 0.959328 -0.147570
C126  C     C_R   0.687894 0.687461 0.039225 -0.146227
C127  C     C_R   0.663228 0.030448 0.414868 -0.015383
C128  C     C_R   0.335489 0.970832 0.583844 -0.109600
C129  C     C_R   0.034668 0.415718 0.661606 -0.025395
C130  C     C_R   0.553870 0.025776 0.678671 0.016953
C131  C     C_R   0.957727 0.588312 0.343307 -0.047366
C132  C     C_R   0.411708 0.656275 0.049432 -0.013543
C133  C     C_R   0.586798 0.343387 0.960524 -0.047799
C134  C     C_R   0.577145 0.988368 0.329092 -0.024923
C135  C     C_R   0.422267 0.010159 0.670176 -0.122953
C136  C     C_R   0.324727 0.569292 0.009873 -0.024237
C137  C     C_R   0.668764 0.420090 0.018306 -0.092542
C138  C     C_R   0.979193 0.333613 0.581967 -0.038195
C139  C     C_R   0.016013 0.669915 0.420140 -0.096877
C140  C     C_R   0.698984 0.031078 0.326353 0.148149
C141  C     C_R   0.446299 0.970864 0.321954 -0.010574
C142  C     C_R   0.294188 0.980911 0.668383 0.189367
C143  C     C_R   0.025207 0.331441 0.702005 0.174640
C144  C     C_R   0.942262 0.679347 0.319440 0.186015
C145  C     C_R   0.323238 0.691519 0.051118 0.149027
C146  C     C_R   0.677612 0.319976 0.944332 0.191464
C147  C     C_R   0.656971 0.008129 0.283879 0.142782
C148  C     C_R   0.340021 0.994678 0.713614 0.187794
C149  C     C_R   0.279769 0.648366 0.030901 0.149750
C150  C     C_R   0.714692 0.344945 0.989247 0.162663
C151  C     C_R   0.990090 0.294175 0.666532 0.144004
C152  C     C_R   0.677082 0.551285 0.034613 0.022580
C153  C     C_R   0.987194 0.716346 0.344685 0.161348
C154  C     C_R   0.538104 0.995748 0.413780 -0.033840
C155  C     C_R   0.462490 0.000633 0.586366 0.000888
C156  C     C_R   0.997332 0.414262 0.538053 -0.024897
C157  C     C_R   0.007523 0.585476 0.460441 0.003718
C158  C     C_R   0.409627 0.530557 0.015770 -0.028729
C159  C     C_R   0.583831 0.459191 0.012237 0.003817
C160  C     C_R   0.583643 0.010291 0.458516 -0.037607
C161  C     C_R   0.417348 0.985655 0.541753 -0.001797
C162  C     C_R   0.454554 0.576462 0.029893 -0.036823
H1    H     H_    0.225499 0.084859 0.197553 0.083837
H2    H     H_    0.689759 0.186602 0.687651 0.119655
H3    H     H_    0.253693 0.553560 0.797748 0.231198
H4    H     H_    0.359484 0.514235 0.816439 0.242021
H5    H     H_    0.321402 0.625418 0.765950 0.226020
H6    H     H_    0.230565 0.867777 0.651579 0.256098
H7    H     H_    0.264770 0.768963 0.549316 0.232828
H8    H     H_    0.327878 0.744467 0.623355 0.221707
H9    H     H_    0.365277 0.797498 0.511267 0.243279
H10   H     H_    0.791461 0.121483 0.370850 0.288229
H11   H     H_    0.698965 0.261490 0.400287 0.232863
H12   H     H_    0.615529 0.209337 0.467926 0.250951
H13   H     H_    0.806530 0.317662 0.301889 0.113495
H14   H     H_    0.648096 0.221715 0.352373 0.239341
H15   H     H_    0.641917 0.206772 0.884650 0.258392
H16   H     H_    0.557951 0.246934 0.772026 0.225252
H17   H     H_    0.628533 0.314879 0.745292 0.235487
H18   H     H_    0.514863 0.351955 0.791122 0.234078
H19   H     H_    0.371611 0.792244 0.129640 0.288933
H20   H     H_    0.406142 0.708529 0.269663 0.234653
H21   H     H_    0.470600 0.620806 0.223217 0.250990
H22   H     H_    0.354794 0.652258 0.239690 0.239462
H23   H     H_    0.880686 0.643830 0.208059 0.257681
H24   H     H_    0.780325 0.227847 0.233809 0.133155
H25   H     H_    0.770122 0.556652 0.248330 0.226075
H26   H     H_    0.743687 0.625218 0.318362 0.233178
H27   H     H_    0.791381 0.511654 0.352267 0.232815
H28   H     H_    0.117755 0.380296 0.802370 0.294557
H29   H     H_    0.223258 0.460857 0.743864 0.226428
H30   H     H_    0.210373 0.489208 0.636404 0.245180
H31   H     H_    0.265510 0.381460 0.682984 0.233317
H32   H     H_    0.904914 0.124054 0.163490 0.131165
H33   H     H_    0.046875 0.103756 0.170587 0.110693
H34   H     H_    0.079351 0.202559 0.222537 0.083743
H35   H     H_    0.198186 0.691986 0.687103 0.121054
H36   H     H_    0.224178 0.751135 0.784581 0.148182
H37   H     H_    0.102243 0.801690 0.901418 0.126613
H38   H     H_    0.955126 0.817690 0.904649 0.103644
H39   H     H_    0.176156 0.053432 0.096360 0.111443
H40   H     H_    0.924448 0.782900 0.793193 0.083324
H41   H     H_    0.200144 0.223018 0.077394 0.084175
H42   H     H_    0.097381 0.179846 0.041301 0.110222
H43   H     H_    0.120604 0.173391 0.898321 0.139016
H44   H     H_    0.231091 0.237937 0.775008 0.147975
H45   H     H_    0.322479 0.301821 0.804635 0.118936
H46   H     H_    0.787742 0.799407 0.926645 0.082733
H47   H     H_    0.836260 0.893146 0.971957 0.102642
H48   H     H_    0.824739 0.869814 0.122575 0.115475
H49   H     H_    0.744526 0.767398 0.234718 0.183255
H50   H     H_    0.161861 0.912352 0.120074 0.129740
H51   H     H_    0.680118 0.685944 0.195651 0.122782
H52   H     H_    0.364088 0.947997 0.833828 0.235090
H53   H     H_    0.193020 0.998597 0.895339 0.242179
H54   H     H_    0.264784 0.056199 0.884621 0.243542
H55   H     H_    0.210928 0.087690 0.799751 0.252727
H56   H     H_    0.758615 0.991311 0.173569 0.218048
H57   H     H_    0.682449 0.079497 0.068496 0.226781
H58   H     H_    0.664188 0.144115 0.139106 0.227036
H59   H     H_    0.582817 0.094001 0.152148 0.264135
H60   H     H_    0.992597 0.838227 0.340123 0.248681
H61   H     H_    0.228379 0.786873 0.227124 0.130424
H62   H     H_    0.022304 0.896157 0.188332 0.243949
H63   H     H_    0.003523 0.805823 0.176417 0.246752
H64   H     H_    0.098743 0.790748 0.205668 0.237088
H65   H     H_    0.903767 0.219299 0.731432 0.232755
H66   H     H_    0.034500 0.139222 0.631214 0.264227
H67   H     H_    0.008729 0.081867 0.744402 0.240446
H68   H     H_    0.092114 0.138600 0.700486 0.257759
H69   H     H_    0.836121 0.338384 0.996754 0.247685
H70   H     H_    0.799973 0.176639 0.006633 0.247752
H71   H     H_    0.891791 0.186404 0.024124 0.245012
H72   H     H_    0.294939 0.812015 0.318288 0.115542
H73   H     H_    0.786886 0.204343 0.102324 0.236514
H74   H     H_    0.169194 0.749783 0.013329 0.215109
H75   H     H_    0.065017 0.672461 0.102837 0.227672
H76   H     H_    0.135802 0.653183 0.167547 0.232095
H77   H     H_    0.148478 0.572839 0.116114 0.260967
H78   H     H_    0.172866 0.023678 0.646743 0.234687
H79   H     H_    0.118004 0.988158 0.820461 0.249069
H80   H     H_    0.114599 0.928370 0.758418 0.241347
H81   H     H_    0.205827 0.892372 0.804677 0.260369
H82   H     H_    0.786891 0.080589 0.217568 0.219807
H83   H     H_    0.799675 0.914837 0.784052 0.077852
H84   H     H_    0.912826 0.993295 0.269973 0.235185
H85   H     H_    0.854610 0.926221 0.266664 0.256697
H86   H     H_    0.843917 0.943809 0.368110 0.259163
H87   H     H_    0.788123 0.251274 0.872364 0.230599
H88   H     H_    0.779860 0.407885 0.806299 0.248461
H89   H     H_    0.682297 0.416378 0.782718 0.258728
H90   H     H_    0.784611 0.351928 0.734096 0.241062
H91   H     H_    0.216591 0.785212 0.092280 0.218197
H92   H     H_    0.270844 0.843313 0.936017 0.246727
H93   H     H_    0.371884 0.831185 0.955048 0.257073
H94   H     H_    0.892104 0.951637 0.840489 0.099794
H95   H     H_    0.276452 0.905861 0.997937 0.243518
H96   H     H_    0.870465 0.789440 0.250806 0.230748
H97   H     H_    0.778568 0.687789 0.417862 0.254955
H98   H     H_    0.735021 0.794253 0.354600 0.240235
H99   H     H_    0.811216 0.780209 0.409692 0.247640
H100  H     H_    0.066393 0.221589 0.791809 0.236320
H101  H     H_    0.986707 0.277201 0.916325 0.229248
H102  H     H_    0.916690 0.282784 0.856634 0.272528
H103  H     H_    0.944631 0.378715 0.845944 0.255118
H104  H     H_    0.348200 0.124133 0.757063 0.247042
H105  H     H_    0.865433 0.100237 0.843662 0.130383
H106  H     H_    0.456573 0.215236 0.737226 0.235715
H107  H     H_    0.382420 0.246815 0.672731 0.216827
H108  H     H_    0.492162 0.190824 0.634498 0.242778
H109  H     H_    0.626362 0.895166 0.198887 0.287888
H110  H     H_    0.538808 0.793597 0.248930 0.242031
H111  H     H_    0.504618 0.806217 0.357220 0.242815
H112  H     H_    0.611939 0.748784 0.317179 0.225841
H113  H     H_    0.126634 0.759765 0.343631 0.235245
H114  H     H_    0.219775 0.736435 0.454193 0.235553
H115  H     H_    0.252653 0.680449 0.372114 0.220095
H116  H     H_    0.767704 0.218547 0.759928 0.169044
H117  H     H_    0.199257 0.633046 0.480279 0.242096
H118  H     H_    0.884118 0.199464 0.618659 0.277351
H119  H     H_    0.786704 0.268779 0.528076 0.240334
H120  H     H_    0.796437 0.373813 0.517912 0.249985
H121  H     H_    0.739934 0.315351 0.618753 0.229893
H122  H     H_    0.759554 0.345226 0.128403 0.237462
H123  H     H_    0.732663 0.452135 0.224886 0.235714
H124  H     H_    0.673901 0.373134 0.253546 0.221664
H125  H     H_    0.631173 0.482899 0.199899 0.243133
H126  H     H_    0.199862 0.630350 0.910493 0.281605
N1    N     N_2   0.313624 0.973060 0.805648 -0.300726
N2    N     N_2   0.281307 0.775528 0.061843 -0.333753
N3    N     N_2   0.864063 0.733057 0.298376 -0.319237
N4    N     N_2   0.041675 0.287160 0.783818 -0.317416
N5    N     N_2   0.413512 0.114513 0.740376 -0.261290
N6    N     N_2   0.587762 0.883397 0.261166 -0.291670
N7    N     N_2   0.119667 0.742471 0.408737 -0.268699
N8    N     N_2   0.874264 0.264674 0.589615 -0.314598
N9    N     N_2   0.740703 0.410345 0.121441 -0.269412
N10   N     N_2   0.260405 0.589116 0.899291 -0.282698
N11   N     N_2   0.257942 0.874760 0.586621 -0.269531
N12   N     N_2   0.692311 0.009208 0.194626 -0.327853
N13   N     N_2   0.736058 0.126939 0.420236 -0.281481
N14   N     N_2   0.585899 0.253801 0.877329 -0.261550
N15   N     N_2   0.420986 0.737210 0.136589 -0.283149
N16   N     N_2   0.875163 0.586258 0.253714 -0.261844
N17   N     N_2   0.131573 0.411078 0.737424 -0.285010
N18   N     N_2   0.984720 0.805311 0.305361 -0.317297
N19   N     N_2   0.967240 0.216408 0.718142 -0.325077
N20   N     N_2   0.802722 0.304490 0.988258 -0.322734
N21   N     N_2   0.190633 0.683432 0.032450 -0.334136
N22   N     N_2   0.202492 0.002227 0.695884 -0.314544
N23   N     N_2   0.780379 0.048409 0.281950 -0.335470
N24   N     N_2   0.731120 0.297460 0.866542 -0.323541
O1    O     O_R   0.982940 0.138950 0.510160 -0.657372
O2    O     O_R   0.982940 0.510160 0.138950 -0.627543
O3    O     O_R   0.861050 0.017060 0.489840 -0.637510
O4    O     O_R   0.138950 0.982940 0.510160 -0.624562
O5    O     O_R   0.867700 0.025880 0.612340 -0.632096
O6    O     O_R   0.132300 0.974120 0.387660 -0.628448
O7    O     O_R   0.025880 0.612340 0.867700 -0.620862
O8    O     O_R   0.974120 0.387660 0.132300 -0.628063
O9    O     O_R   0.612340 0.867700 0.025880 -0.628752
O10   O     O_R   0.387660 0.132300 0.974120 -0.631241
O11   O     O_R   0.387660 0.974120 0.132300 -0.629108
O12   O     O_R   0.017060 0.861050 0.489840 -0.621433
O13   O     O_R   0.612340 0.025880 0.867700 -0.632733
O14   O     O_R   0.132300 0.387660 0.974120 -0.630546
O15   O     O_R   0.867700 0.612340 0.025880 -0.635946
O16   O     O_R   0.974120 0.132300 0.387660 -0.625441
O17   O     O_R   0.025880 0.867700 0.612340 -0.635189
O18   O     O_R   0.138950 0.510160 0.982940 -0.629665
O19   O     O_R   0.861050 0.489840 0.017060 -0.620521
O20   O     O_R   0.510160 0.982940 0.138950 -0.637595
O21   O     O_R   0.489840 0.017060 0.861050 -0.616694
O22   O     O_R   0.489840 0.861050 0.017060 -0.637910
O23   O     O_R   0.510160 0.138950 0.982940 -0.627157
O24   O     O_R   0.017060 0.489840 0.861050 -0.649418
Zn1   Zn    Zn3+2 0.004880 0.004880 0.583590 0.928609
Zn2   Zn    Zn3+2 0.995120 0.995120 0.416410 0.948653
Zn3   Zn    Zn3+2 0.004880 0.583590 0.004880 0.944663
Zn4   Zn    Zn3+2 0.995120 0.416410 0.995120 0.941131
Zn5   Zn    Zn3+2 0.583590 0.004880 0.004880 0.944248
Zn6   Zn    Zn3+2 0.416410 0.995120 0.995120 0.941199

loop_
_geom_bond_atom_site_label_1
_geom_bond_atom_site_label_2
_ccdc_geom_bond_type
H96   N3    S    
C40   H46   S    
C77   O14   A    
C113  N10   S    
C58   H101  S    
C37   H44   S    
C3    C72   A    
C19   C20   A    
C35   C154  A    
C73   C93   A    
C75   C95   A    
H52   N1    S    
C46   C155  A    
H19   N15   S    
C76   C105  S    
C80   O13   A    
C117  C119  A    
C20   H13   S    
C81   O9    A    
C87   C94   S    
H122  N9    S    
C59   H107  S    
C41   C42   A    
C103  C126  A    
C118  C131  A    
C146  C150  A    
C29   H37   S    
C116  N14   S    
C62   N8    S    
C54   H89   S    
C79   C102  S    
C102  C141  A    
C71   H30   S    
C43   H49   S    
C84   O2    A    
C17   H116  S    
C63   H125  S    
C101  C130  A    
C143  C151  A    
C21   C22   A    
C13   C91   A    
C66   H14   S    
C56   H98   S    
C144  N3    S    
C57   C90   A    
C79   O11   A    
C62   H121  S    
C86   C90   A    
C6    C11   A    
C116  C133  A    
C76   O12   A    
C7    H1    S    
C33   H41   S    
H6    N11   S    
C50   H71   S    
C43   C44   A    
C53   H85   S    
H109  N6    S    
C85   O3    A    
C37   C38   A    
C48   H64   S    
C2    C104  A    
C46   C160  A    
C49   H66   S    
C103  C152  A    
C95   C122  A    
C114  N11   S    
O1    Zn1   S    
C82   O10   A    
C75   C115  A    
C8    H39   S    
O11   Zn6   S    
C24   C90   A    
O9    Zn5   S    
C6    C7    A    
C138  C151  A    
C101  C122  A    
C65   H8    S    
C77   O18   A    
C47   N12   S    
C52   H79   S    
C56   N3    S    
C65   N11   S    
C87   O6    A    
C45   H53   S    
C52   N22   S    
C56   H99   S    
C45   H54   S    
C53   N23   S    
C145  N2    S    
C63   H123  S    
C85   O5    A    
C20   C21   A    
C139  C157  A    
C45   N1    S    
C22   C23   A    
C66   H12   S    
C93   C152  A    
O16   Zn2   S    
C30   H38   S    
C66   N13   S    
C62   H119  S    
O18   Zn3   S    
C97   C98   A    
C21   H24   S    
C46   C89   A    
C98   C124  A    
C99   C108  A    
C19   C123  S    
C35   C161  A    
C60   H112  S    
H104  N5    S    
C100  C126  A    
C132  C145  A    
C82   O23   A    
C64   H5    S    
C67   H18   S    
C140  N23   S    
C79   O20   A    
C35   C88   A    
C49   H68   S    
C117  C132  A    
O8    Zn4   S    
C92   C108  A    
C34   H42   S    
C81   O22   A    
C83   C98   S    
C64   H4    S    
C120  N17   S    
C50   H70   S    
C83   O24   A    
C102  C121  A    
C9    C10   A    
C70   H26   S    
C136  C158  A    
O22   Zn6   S    
C47   H59   S    
C3    C159  A    
C140  C147  A    
O17   Zn1   S    
C57   C156  A    
C38   H45   S    
C120  C129  A    
C51   H75   S    
C52   H81   S    
C39   C40   A    
C4    C68   A    
C153  N18   S    
C48   H62   S    
C29   C30   A    
C17   C18   A    
C100  C119  A    
C25   H34   S    
H113  N7    S    
H74   N21   S    
C69   H21   S    
H87   N24   S    
O21   Zn6   S    
C137  C150  A    
C24   C106  A    
C127  C140  A    
C88   C141  A    
O23   Zn5   S    
C69   N15   S    
C96   C123  A    
C58   H102  S    
C61   H115  S    
C67   H16   S    
C50   N20   S    
C39   C44   A    
C47   H58   S    
C73   C159  A    
C85   C95   S    
C58   H103  S    
H15   N14   S    
H118  N8    S    
C61   H114  S    
C51   H76   S    
C34   C36   A    
C54   N24   S    
C16   H105  S    
C10   C11   A    
C75   C89   A    
C143  N4    S    
H10   N13   S    
C55   N2    S    
C150  N20   S    
C23   H33   S    
C54   H90   S    
C14   C15   A    
C109  C141  A    
C93   C119  A    
C6    C121  S    
C71   H29   S    
C127  C160  A    
H65   N19   S    
C82   C99   S    
H91   N2    S    
C27   H35   S    
H28   N17   S    
C136  C149  A    
C155  C161  A    
C134  C147  A    
C28   C29   A    
C26   C27   A    
C110  C139  A    
C84   O8    A    
C30   C31   A    
C72   C92   A    
C71   H31   S    
C139  C153  A    
C9    H50   S    
C78   O19   A    
C53   H84   S    
C31   H40   S    
C107  C135  A    
C18   H2    S    
C104  C125  A    
C16   C17   A    
C112  C152  A    
O14   Zn4   S    
C42   H48   S    
C14   H83   S    
C58   N4    S    
C1    C88   A    
C39   C126  S    
C114  C128  A    
C61   H117  S    
C26   C124  S    
C107  C130  A    
C74   O16   A    
O15   Zn3   S    
C63   N9    S    
C137  C159  A    
C44   H51   S    
C7    C8    A    
C13   C105  A    
H56   N12   S    
C28   H36   S    
C89   C130  A    
C105  C124  A    
C65   H7    S    
C55   H95   S    
C73   C162  A    
C52   H80   S    
C78   O15   A    
C80   O21   A    
C54   H88   S    
C86   C118  A    
C91   C97   A    
C86   C96   A    
C10   H61   S    
C4    C156  A    
C5    C157  A    
C56   H97   S    
C1    C114  A    
C68   C157  A    
H60   N18   S    
C36   C37   A    
C109  C134  A    
C112  C137  A    
C62   H120  S    
C49   N19   S    
O10   Zn6   S    
C107  N5    S    
C4    C129  A    
C129  C143  A    
C81   C100  S    
C5    C57   A    
C70   N16   S    
C32   C33   A    
C108  C116  A    
C48   N18   S    
C53   H86   S    
C67   H17   S    
C48   H63   S    
C134  C154  A    
C128  C161  A    
H100  N4    S    
C36   H43   S    
C49   H67   S    
C94   C121  A    
C5    C131  A    
C12   C122  S    
C59   H108  S    
C77   C104  S    
C51   H77   S    
C133  C146  A    
O20   Zn5   S    
C145  C149  A    
C131  C144  A    
C111  C138  A    
C51   N21   S    
C70   H27   S    
C87   O4    A    
H23   N16   S    
C45   H55   S    
O3    Zn2   S    
O24   Zn4   S    
C74   O1    A    
C71   N17   S    
C115  C127  A    
C99   C125  A    
C149  N21   S    
C64   H3    S    
C59   H106  S    
C65   H9    S    
C2    C113  A    
O19   Zn4   S    
C109  N6    S    
C15   C16   A    
C68   C91   A    
C135  C155  A    
C84   C96   S    
C144  C153  A    
C63   H124  S    
C60   N6    S    
C8    C9    A    
C61   N7    S    
C113  C136  A    
C106  C123  A    
C66   H11   S    
C32   C38   A    
C69   H20   S    
C41   H47   S    
C11   H72   S    
O6    Zn2   S    
C26   C31   A    
C24   C111  A    
C132  C162  A    
C15   H94   S    
C60   H111  S    
C67   N14   S    
C142  C148  A    
C1    C94   A    
H78   N22   S    
C47   H57   S    
C55   H93   S    
O7    Zn3   S    
C3    C133  A    
C32   C125  S    
C154  C160  A    
C13   C110  A    
C74   C106  S    
O4    Zn1   S    
C59   N5    S    
C146  N24   S    
C117  N15   S    
C33   C34   A    
C118  N16   S    
C115  N13   S    
C60   H110  S    
C2    C92   A    
C70   H25   S    
C40   C41   A    
C12   C14   A    
C64   N10   S    
H82   N23   S    
O13   Zn5   S    
H69   N20   S    
C72   C158  A    
C138  C156  A    
C76   O17   A    
C111  N8    S    
C78   C103  S    
C110  N7    S    
C151  N19   S    
C112  N9    S    
C55   H92   S    
C80   C101  S    
O12   Zn2   S    
C97   C120  A    
O5    Zn1   S    
O2    Zn3   S    
C148  N1    S    
C83   O7    A    
C142  N22   S    
C23   C25   A    
C50   H73   S    
C19   C25   A    
C158  C162  A    
C69   H22   S    
C147  N12   S    
C135  C148  A    
C42   C43   A    
C12   C18   A    
C27   C28   A    
H126  N10   S    
C22   H32   S    
C128  C142  A    
