data_mof_unit_30609.cif
_audit_creation_date              2012-12-11T15:25:58-0500
_audit_creation_method            fapswitch 2.2
_symmetry_space_group_name_H-M    P1
_symmetry_Int_Tables_number       1
_space_group_crystal_system       triclinic
_cell_length_a                    24.551088
_cell_length_b                    17.083138
_cell_length_c                    15.528
_cell_angle_alpha                 89.887386
_cell_angle_beta                  50.746844
_cell_angle_gamma                 89.825598
_cell_volume                      5043.05349214

loop_
_atom_site_label
_atom_site_type_symbol
_atom_type_description
_atom_site_fract_x
_atom_site_fract_y
_atom_site_fract_z
_atom_type_partial_charge
C1    C     C_R   0.345996 0.137293 0.767320 -0.146975
C2    C     C_2   0.308229 0.842091 0.978708 0.437543
C3    C     C_2   0.345863 0.245594 0.878424 0.454777
C4    C     C_2   0.691581 0.842088 0.021399 0.438686
C5    C     C_2   0.143473 0.755977 0.141776 0.445157
C6    C     C_2   0.808502 0.337386 0.974544 0.444909
C7    C     C_2   0.856359 0.756158 0.857682 0.443714
C8    C     C_2   0.189285 0.337389 0.025477 0.451285
C9    C     C_2   0.691207 0.293479 0.127988 -0.194116
C10   C     C_2   0.238196 0.851450 0.042723 -0.177692
C11   C     C_2   0.306454 0.294624 0.870343 -0.189733
C12   C     C_R   0.666518 0.891004 0.198349 -0.162812
C13   C     C_2   0.761540 0.851837 0.956791 -0.176628
C14   C     C_2   0.190732 0.799536 0.137179 -0.180951
C15   C     C_2   0.738709 0.347303 0.037231 -0.187402
C16   C     C_2   0.809077 0.799974 0.862230 -0.180174
C17   C     C_2   0.258936 0.349108 0.960071 -0.189481
C18   C     C_R   0.594268 0.139627 0.592312 -0.117078
C19   C     C_R   0.412346 0.855274 0.407204 -0.114090
C20   C     C_R   0.385601 0.103655 0.407528 -0.128343
C21   C     C_R   0.587375 0.854829 0.592750 -0.108597
C22   C     C_R   0.114322 0.603611 0.592460 -0.128051
C23   C     C_R   0.655027 0.134424 0.224705 -0.167383
C24   C     C_R   0.885807 0.397375 0.407211 -0.106488
C25   C     C_R   0.885457 0.603285 0.407562 -0.132044
C26   C     C_R   0.087490 0.354959 0.592770 -0.112300
C27   C     C_R   0.668963 0.138889 0.407552 -0.117220
C28   C     C_R   0.337322 0.855808 0.592741 -0.106226
C29   C     C_R   0.311360 0.103218 0.591940 -0.124597
C30   C     C_R   0.662372 0.855370 0.407297 -0.099814
C31   C     C_R   0.188559 0.603161 0.408068 -0.125109
C32   C     C_R   0.811331 0.397863 0.591962 -0.100033
C33   C     C_R   0.811246 0.602840 0.591888 -0.130665
C34   C     C_R   0.333526 0.891042 0.801514 -0.161697
C35   C     C_R   0.162523 0.355512 0.407303 -0.106806
C36   C     C_R   0.561295 0.136306 0.231789 -0.056940
C37   C     C_R   0.423861 0.891397 0.801723 -0.068092
C38   C     C_R   0.433316 0.133413 0.776146 -0.077313
C39   C     C_R   0.576045 0.891373 0.198477 -0.065775
C40   C     C_R   0.058911 0.640826 0.239846 -0.050797
C41   C     C_R   0.923902 0.389710 0.800782 -0.074985
C42   C     C_R   0.940986 0.640812 0.759972 -0.050322
C43   C     C_R   0.074221 0.388102 0.201560 -0.045301
C44   C     C_R   0.374165 0.175046 0.809939 0.008409
C45   C     C_R   0.850032 0.641839 0.759127 -0.148958
C46   C     C_R   0.646009 0.870862 0.136293 0.020951
C47   C     C_R   0.622815 0.175072 0.190246 0.007242
C48   C     C_R   0.353936 0.870922 0.863792 0.021635
C49   C     C_R   0.882362 0.683498 0.792746 0.000435
C50   C     C_R   0.144145 0.367292 0.139403 0.016337
C51   C     C_R   0.117476 0.683394 0.206944 0.000292
C52   C     C_R   0.854583 0.367032 0.860438 0.020642
C53   C     C_R   0.646429 0.182274 0.499745 0.046324
C54   C     C_R   0.361559 0.811142 0.500050 0.042869
C55   C     C_R   0.316745 0.119089 0.499588 0.056357
C56   C     C_R   0.165756 0.389289 0.199488 -0.156904
C57   C     C_R   0.637931 0.810413 0.499941 0.038171
C58   C     C_R   0.183076 0.619249 0.500405 0.057611
C59   C     C_R   0.816774 0.383600 0.499322 0.042260
C60   C     C_R   0.816528 0.618429 0.499576 0.060341
C61   C     C_R   0.138052 0.310594 0.499955 0.044983
C62   C     C_R   0.192740 0.158503 0.600278 -0.139198
C63   C     C_R   0.727164 0.705247 0.399013 -0.138962
C64   C     C_R   0.732317 0.289614 0.398346 -0.145614
C65   C     C_R   0.271916 0.706865 0.600970 -0.141756
C66   C     C_R   0.692479 0.657806 0.600243 -0.144919
C67   C     C_R   0.149870 0.641675 0.240673 -0.149071
C68   C     C_R   0.227292 0.205588 0.399015 -0.136777
C69   C     C_R   0.306687 0.659749 0.399699 -0.141340
C70   C     C_R   0.693912 0.343023 0.599696 -0.140193
C71   C     C_R   0.646592 0.705074 0.600320 -0.133818
C72   C     C_R   0.273413 0.158731 0.398832 -0.140031
C73   C     C_R   0.352478 0.706758 0.399630 -0.136172
C74   C     C_R   0.651351 0.290387 0.599851 -0.135899
C75   C     C_R   0.146727 0.205444 0.600345 -0.132291
C76   C     C_R   0.773150 0.658062 0.398839 -0.144186
C77   C     C_R   0.774978 0.342125 0.398172 -0.133924
C78   C     C_R   0.834359 0.387269 0.797872 -0.132497
C79   C     C_R   0.226027 0.659929 0.601144 -0.141361
C80   C     C_R   0.667772 0.736241 0.499755 0.116540
C81   C     C_R   0.259455 0.141961 0.499517 0.111223
C82   C     C_R   0.331359 0.737600 0.500218 0.115966
C83   C     C_R   0.675170 0.256553 0.499293 0.112377
C84   C     C_R   0.167867 0.236492 0.499769 0.113456
C85   C     C_R   0.759175 0.641154 0.499503 0.110562
C86   C     C_R   0.759937 0.361124 0.498971 0.106395
C87   C     C_R   0.240135 0.642904 0.500463 0.113588
C88   C     C_2   0.649631 0.246225 0.123162 0.457787
Cl1   Cl    Cl    0.347042 0.785244 0.022623 -0.667127
Cl2   Cl    Cl    0.633006 0.262199 0.029094 -0.655774
Cl3   Cl    Cl    0.652779 0.784879 0.978173 -0.665416
Cl4   Cl    Cl    0.358509 0.259310 0.977607 -0.674918
Cl5   Cl    Cl    0.846187 0.279161 0.019208 -0.675080
Cl6   Cl    Cl    0.120324 0.776233 0.056759 -0.656892
Cl7   Cl    Cl    0.151262 0.276012 0.984679 -0.653533
Cl8   Cl    Cl    0.879578 0.776235 0.942543 -0.657533
H1    H     H_    0.297710 0.150796 0.781979 0.138404
H2    H     H_    0.441701 0.839991 0.320944 0.109348
H3    H     H_    0.406564 0.099269 0.322110 0.100794
H4    H     H_    0.557912 0.839358 0.678989 0.109322
H5    H     H_    0.093348 0.599338 0.677910 0.099358
H6    H     H_    0.907331 0.401363 0.321456 0.095356
H7    H     H_    0.906415 0.598725 0.322155 0.096257
H8    H     H_    0.058145 0.339584 0.679005 0.109050
H9    H     H_    0.714301 0.149649 0.322838 0.108860
H10   H     H_    0.296840 0.841061 0.678931 0.111753
H11   H     H_    0.263800 0.098437 0.677157 0.108397
H12   H     H_    0.719625 0.892745 0.169868 0.127963
H13   H     H_    0.702738 0.840444 0.321122 0.111643
H14   H     H_    0.236140 0.598469 0.322829 0.106293
H15   H     H_    0.763945 0.402268 0.677422 0.100513
H16   H     H_    0.763681 0.597865 0.677081 0.103056
H17   H     H_    0.203061 0.340699 0.321160 0.115384
H18   H     H_    0.524426 0.150407 0.217986 0.138212
H19   H     H_    0.453144 0.894381 0.832036 0.136247
H20   H     H_    0.462410 0.142259 0.805653 0.138885
H21   H     H_    0.546652 0.894438 0.168337 0.135226
H22   H     H_    0.022149 0.655839 0.226134 0.143222
H23   H     H_    0.707850 0.143285 0.194772 0.140360
H24   H     H_    0.952498 0.392579 0.832290 0.133324
H25   H     H_    0.977719 0.655751 0.773628 0.142627
H26   H     H_    0.043463 0.388546 0.173727 0.130984
H27   H     H_    0.178238 0.142321 0.679674 0.135599
H28   H     H_    0.742512 0.723638 0.319749 0.136075
H29   H     H_    0.748485 0.269807 0.319122 0.144226
H30   H     H_    0.256549 0.725110 0.680243 0.136733
H31   H     H_    0.677952 0.641506 0.679623 0.131980
H32   H     H_    0.242572 0.223852 0.319749 0.144849
H33   H     H_    0.321259 0.643565 0.320303 0.133665
H34   H     H_    0.280484 0.892829 0.829710 0.126250
H35   H     H_    0.678187 0.361718 0.679019 0.131187
H36   H     H_    0.598533 0.723423 0.679655 0.134980
H37   H     H_    0.322537 0.142700 0.319427 0.131615
H38   H     H_    0.400505 0.725010 0.320285 0.135607
H39   H     H_    0.603880 0.271105 0.679169 0.133856
H40   H     H_    0.098616 0.223695 0.679681 0.137011
H41   H     H_    0.822248 0.641939 0.319449 0.127530
H42   H     H_    0.823134 0.360074 0.318801 0.132253
H43   H     H_    0.176986 0.643852 0.680545 0.128910
H44   H     H_    0.215761 0.887561 0.014592 0.163891
H45   H     H_    0.802049 0.656304 0.773374 0.135159
H46   H     H_    0.699922 0.282137 0.187353 0.148170
H47   H     H_    0.783956 0.888095 0.984580 0.163522
H48   H     H_    0.299454 0.284984 0.808751 0.153860
H49   H     H_    0.716764 0.384227 0.008952 0.156918
H50   H     H_    0.203337 0.786340 0.191205 0.159541
H51   H     H_    0.281314 0.387661 0.985842 0.155897
H52   H     H_    0.796389 0.786871 0.808357 0.160170
H53   H     H_    0.219042 0.390665 0.170272 0.130336
H54   H     H_    0.197860 0.655955 0.226296 0.134358
H55   H     H_    0.782032 0.385820 0.823061 0.128338
H56   H     H_    0.571081 0.151276 0.677128 0.100162
N1    N     N_R   0.388930 0.078160 0.705470 -0.040449
N2    N     N_R   0.419500 0.922160 0.443350 -0.045594
N3    N     N_R   0.419500 0.077840 0.443350 -0.046375
N4    N     N_R   0.580500 0.922160 0.556650 -0.045952
N5    N     N_R   0.080500 0.577840 0.556650 -0.045592
N6    N     N_R   0.919500 0.422160 0.443350 -0.042807
N7    N     N_R   0.919500 0.577840 0.443350 -0.044955
N8    N     N_R   0.080500 0.422160 0.556650 -0.045297
N9    N     N_R   0.626210 0.077590 0.443410 -0.040258
N10   N     N_R   0.373790 0.922410 0.556590 -0.042466
N11   N     N_R   0.373790 0.077590 0.556590 -0.042829
N12   N     N_R   0.611070 0.921840 0.294530 -0.039500
N13   N     N_R   0.626210 0.922410 0.443410 -0.042582
N14   N     N_R   0.126210 0.577590 0.443410 -0.041406
N15   N     N_R   0.873790 0.422410 0.556590 -0.040311
N16   N     N_R   0.873790 0.577590 0.556590 -0.040879
N17   N     N_R   0.126210 0.422410 0.443410 -0.042685
N18   N     N_R   0.554800 0.077270 0.294580 -0.053727
N19   N     N_R   0.445200 0.922730 0.705420 -0.053256
N20   N     N_R   0.445200 0.077270 0.705420 -0.052515
N21   N     N_R   0.554800 0.922730 0.294580 -0.053164
N22   N     N_R   0.054800 0.577270 0.294580 -0.056815
N23   N     N_R   0.611070 0.078160 0.294530 -0.039049
N24   N     N_R   0.945200 0.422730 0.705420 -0.052062
N25   N     N_R   0.945200 0.577270 0.705420 -0.055903
N26   N     N_R   0.054800 0.422730 0.294580 -0.052742
N27   N     N_R   0.388930 0.921840 0.705470 -0.039264
N28   N     N_R   0.888930 0.578160 0.705470 -0.041682
N29   N     N_R   0.111070 0.421840 0.294530 -0.040380
N30   N     N_R   0.111070 0.578160 0.294530 -0.040708
N31   N     N_R   0.888930 0.421840 0.705470 -0.040242
N32   N     N_R   0.580500 0.077840 0.556650 -0.044442
Ni1   Ni    Ni4+2 0.382710 0.000000 0.629850 0.228500
Ni2   Ni    Ni4+2 0.617290 0.000000 0.370150 0.237513
Ni3   Ni    Ni4+2 0.882710 0.500000 0.629850 0.223565
Ni4   Ni    Ni4+2 0.117290 0.500000 0.370150 0.228586
Ni5   Ni    Ni4+2 0.513020 0.000000 0.629850 0.228653
Ni6   Ni    Ni4+2 0.486980 0.000000 0.370150 0.221229
Ni7   Ni    Ni4+2 0.013020 0.500000 0.629850 0.221088
Ni8   Ni    Ni4+2 0.986980 0.500000 0.370150 0.216614

loop_
_geom_bond_atom_site_label_1
_geom_bond_atom_site_label_2
_ccdc_geom_bond_type
N24   N31   A    
C40   H22   S    
C43   N26   A    
N25   Ni7   S    
C20   N3    A    
C64   C77   A    
C29   N11   A    
C79   H43   S    
C74   C83   A    
C39   N21   A    
C36   H18   S    
C58   C87   S    
N22   N30   A    
C66   C85   A    
C79   C87   A    
C63   H28   S    
C22   C58   A    
C28   N10   A    
C4    C46   S    
C76   H41   S    
C66   H31   S    
C38   C44   A    
C7    Cl8   S    
C22   H5    S    
C65   C79   A    
C31   C58   A    
N3    Ni6   S    
C26   C61   A    
N6    Ni8   S    
C9    C88   D    
C23   H23   S    
C24   N6    A    
C75   C84   A    
C23   N23   A    
C56   N29   A    
C27   H9    S    
C42   N25   A    
C30   C57   A    
N21   Ni6   S    
C38   H20   S    
N7    N16   A    
N19   Ni5   S    
C36   C47   A    
C78   N31   A    
C4    C13   D    
C71   C80   A    
C18   C53   A    
C26   H8    S    
C6    C15   D    
C65   C82   A    
C19   H2    S    
C28   H10   S    
C70   C74   A    
N8    N17   A    
C69   C73   A    
C25   C60   A    
C18   N32   A    
C55   C81   S    
C11   H48   S    
C68   H32   S    
C41   C52   A    
C72   C81   A    
C45   N28   A    
N18   N23   A    
C4    Cl3   S    
N4    Ni5   S    
N25   N28   A    
C71   H36   S    
N16   Ni3   S    
C67   H54   S    
C45   H45   S    
C57   C80   S    
N19   N27   A    
C34   N27   A    
C8    Cl7   S    
C10   H44   S    
C20   C55   A    
C52   C78   A    
C62   H27   S    
N29   Ni4   S    
C78   H55   S    
C5    Cl6   S    
C63   C80   A    
C3    C44   S    
C23   C47   A    
C30   H13   S    
C68   C84   A    
C77   H42   S    
C7    C49   S    
C12   C46   A    
C10   C14   S    
C1    H1    S    
C15   H49   S    
C21   H4    S    
C28   C54   A    
C75   H40   S    
C25   H7    S    
N24   Ni7   S    
C51   C67   A    
C29   C55   A    
C2    C48   S    
C39   H21   S    
C50   C56   A    
C3    Cl4   S    
C16   H52   S    
C2    Cl1   S    
N5    Ni7   S    
C64   C83   A    
C21   C57   A    
N9    Ni2   S    
N28   Ni3   S    
N31   Ni3   S    
C12   N12   A    
N26   Ni8   S    
C1    C44   A    
C66   C71   A    
C31   N14   A    
C45   C49   A    
C68   C72   A    
C6    Cl5   S    
N15   Ni3   S    
C74   H39   S    
N12   N21   A    
C35   C61   A    
C33   H16   S    
N30   Ni4   S    
C37   C48   A    
C1    N1    A    
C43   H26   S    
C5    C14   D    
C39   C46   A    
N27   Ni1   S    
C19   C54   A    
C7    C16   D    
N17   Ni4   S    
C62   C81   A    
C88   Cl2   S    
C77   C86   A    
C33   C60   A    
C21   N4    A    
C35   N17   A    
N14   Ni4   S    
N6    N15   A    
C13   C16   S    
C33   N16   A    
C34   C48   A    
C70   C86   A    
C8    C50   S    
C73   C82   A    
C54   C82   S    
C12   H12   S    
C26   N8    A    
N18   Ni6   S    
C11   C17   S    
C17   H51   S    
N7    Ni8   S    
N2    N10   A    
C5    C51   S    
C8    C17   D    
N8    Ni7   S    
C61   C84   S    
C69   C87   A    
N5    N14   A    
C37   N19   A    
C32   H15   S    
C9    H46   S    
C27   C53   A    
C43   C50   A    
C38   N20   A    
C37   H19   S    
C22   N5    A    
N20   Ni5   S    
C40   C51   A    
C14   H50   S    
C36   N18   A    
N13   Ni2   S    
C53   C83   S    
N11   Ni1   S    
N3    N11   A    
C47   C88   S    
N10   Ni1   S    
C9    C15   S    
N12   Ni2   S    
C65   H30   S    
N23   Ni2   S    
C40   N22   A    
C25   N7    A    
C72   H37   S    
C42   H25   S    
C20   H3    S    
N1    Ni1   S    
N4    N13   A    
N9    N32   A    
C24   C59   A    
N1    N20   A    
C70   H35   S    
C31   H14   S    
C35   H17   S    
C24   H6    S    
C13   H47   S    
C41   H24   S    
N2    Ni6   S    
C62   C75   A    
C59   C86   S    
N26   N29   A    
C3    C11   D    
C42   C49   A    
C41   N24   A    
C73   H38   S    
C34   H34   S    
C69   H33   S    
C64   H29   S    
C63   C76   A    
C32   N15   A    
C19   N2    A    
N32   Ni5   S    
C29   H11   S    
C60   C85   S    
C30   N13   A    
C32   C59   A    
C6    C52   S    
C56   H53   S    
C76   C85   A    
C27   N9    A    
C67   N30   A    
N22   Ni8   S    
C18   H56   S    
C2    C10   D    
