data_mof_unit_34174.cif
_audit_creation_date              2012-12-11T15:07:11-0500
_audit_creation_method            fapswitch 2.2
_symmetry_space_group_name_H-M    P1
_symmetry_Int_Tables_number       1
_space_group_crystal_system       triclinic
_cell_length_a                    19.617535
_cell_length_b                    11.296177
_cell_length_c                    18.714034
_cell_angle_alpha                 89.905643
_cell_angle_beta                  90.175718
_cell_angle_gamma                 90.0027
_cell_volume                      4147.06370967

loop_
_atom_site_label
_atom_site_type_symbol
_atom_type_description
_atom_site_fract_x
_atom_site_fract_y
_atom_site_fract_z
_atom_type_partial_charge
C1    C     C_R   0.761283 0.523756 0.639170 0.538015
C2    C     C_R   0.238697 0.523575 0.360869 0.537016
C3    C     C_R   0.261283 0.023755 0.639169 0.538016
C4    C     C_R   0.738696 0.023572 0.360870 0.537022
C5    C     C_3   0.810932 0.130673 0.449133 -0.261111
C6    C     C_3   0.189067 0.130807 0.550702 -0.261345
C7    C     C_3   0.310931 0.630674 0.449137 -0.261120
C8    C     C_3   0.689068 0.630812 0.550702 -0.261345
C9    C     C_3   0.747064 0.056610 0.436801 0.066746
C10   C     C_3   0.252949 0.056796 0.563219 0.066532
C11   C     C_3   0.247064 0.556611 0.436802 0.066745
C12   C     C_3   0.752949 0.556798 0.563220 0.066532
C13   C     C_3   0.760072 0.090499 0.574214 0.066435
C14   C     C_3   0.239958 0.090460 0.425776 0.066718
C15   C     C_3   0.260068 0.590490 0.574217 0.066438
C16   C     C_3   0.739958 0.590460 0.425776 0.066717
C17   C     C_3   0.753519 0.957815 0.562056 -0.262518
C18   C     C_3   0.246569 0.957822 0.438231 -0.262953
C19   C     C_3   0.253513 0.457807 0.562056 -0.262519
C20   C     C_3   0.746565 0.457822 0.438232 -0.262955
C21   C     C_3   0.823200 0.133463 0.530105 -0.215220
C22   C     C_3   0.176811 0.133451 0.469725 -0.215164
C23   C     C_3   0.323198 0.633456 0.530110 -0.215208
C24   C     C_3   0.676813 0.633457 0.469725 -0.215161
C25   C     C_3   0.003756 0.204550 0.459161 -0.232654
C26   C     C_3   0.996211 0.204629 0.541146 -0.232326
C27   C     C_3   0.503756 0.704550 0.459160 -0.232654
C28   C     C_3   0.496209 0.704629 0.541145 -0.232327
C29   C     C_3   0.064649 0.406090 0.474432 -0.212298
C30   C     C_3   0.935337 0.406202 0.525431 -0.212630
C31   C     C_3   0.564648 0.906090 0.474431 -0.212295
C32   C     C_3   0.435336 0.906201 0.525431 -0.212629
C33   C     C_3   0.941483 0.390444 0.444396 -0.262667
C34   C     C_3   0.058488 0.390545 0.555505 -0.262815
C35   C     C_3   0.441482 0.890444 0.444396 -0.262667
C36   C     C_3   0.558487 0.890544 0.555504 -0.262816
C37   C     C_3   0.010502 0.333044 0.430968 0.065107
C38   C     C_3   0.989474 0.333197 0.569050 0.064838
C39   C     C_3   0.510500 0.833044 0.430967 0.065108
C40   C     C_3   0.489474 0.833197 0.569049 0.064836
C41   C     C_3   0.820267 0.030967 0.048174 -0.231324
C42   C     C_3   0.186716 0.010378 0.956028 -0.225949
C43   C     C_3   0.320270 0.530976 0.048176 -0.231322
C44   C     C_3   0.686722 0.510371 0.956027 -0.225940
C45   C     C_R   0.774065 0.120960 0.649474 0.537262
C46   C     C_R   0.225959 0.120844 0.350497 0.536735
C47   C     C_R   0.274059 0.620947 0.649478 0.537241
C48   C     C_R   0.725960 0.620844 0.350497 0.536735
C49   C     C_3   0.822403 0.036111 0.967927 -0.225952
C50   C     C_3   0.184415 0.016397 0.036171 -0.234098
C51   C     C_3   0.322406 0.536116 0.967929 -0.225955
C52   C     C_3   0.684412 0.516412 0.036169 -0.234080
C53   C     C_3   0.692827 0.013028 0.031945 -0.220665
C54   C     C_3   0.318103 0.033958 0.969206 -0.213139
C55   C     C_3   0.192831 0.513030 0.031950 -0.220675
C56   C     C_3   0.818106 0.533956 0.969205 -0.213134
C57   C     C_3   0.744696 0.205069 0.061210 -0.254798
C58   C     C_3   0.244688 0.200269 0.937603 -0.260281
C59   C     C_3   0.244689 0.705071 0.061213 -0.254809
C60   C     C_3   0.744689 0.700263 0.937601 -0.260282
C61   C     C_3   0.749650 0.073252 0.075806 0.059307
C62   C     C_3   0.252897 0.068234 0.925754 0.063605
C63   C     C_3   0.249651 0.573257 0.075809 0.059313
C64   C     C_3   0.752900 0.568230 0.925753 0.063604
C65   C     C_3   0.760682 0.106051 0.936570 0.062281
C66   C     C_3   0.240101 0.102258 0.064470 0.058124
C67   C     C_3   0.260684 0.606055 0.936572 0.062276
C68   C     C_3   0.740104 0.602255 0.064469 0.058102
C69   C     C_3   0.699130 0.027223 0.949710 -0.260469
C70   C     C_3   0.308698 0.044314 0.051120 -0.252297
C71   C     C_3   0.199130 0.527227 0.949715 -0.260466
C72   C     C_3   0.808695 0.544297 0.051119 -0.252306
C73   C     C_3   0.745276 0.222478 0.978971 -0.215613
C74   C     C_3   0.238656 0.217686 0.019494 -0.228582
C75   C     C_3   0.245283 0.722483 0.978975 -0.215635
C76   C     C_3   0.738672 0.717681 0.019493 -0.228578
C77   C     C_3   0.994717 0.479568 0.042280 -0.233844
C78   C     C_3   0.991890 0.479627 0.961397 -0.226698
C79   C     C_3   0.494726 0.979580 0.042278 -0.233831
C80   C     C_3   0.491898 0.979636 0.961395 -0.226683
C81   C     C_3   0.067199 0.296338 0.027104 -0.222877
C82   C     C_3   0.937281 0.270224 0.973399 -0.210997
C83   C     C_3   0.567191 0.796324 0.027109 -0.222869
C84   C     C_3   0.437282 0.770237 0.973394 -0.210983
C85   C     C_3   0.945322 0.278836 0.055300 -0.256041
C86   C     C_3   0.057783 0.297726 0.945066 -0.263515
C87   C     C_3   0.445312 0.778865 0.055297 -0.256050
C88   C     C_3   0.557788 0.797728 0.945068 -0.263523
C89   C     C_R   0.969108 0.342185 0.644968 0.535967
C90   C     C_R   0.030868 0.342086 0.355029 0.534883
C91   C     C_R   0.469108 0.842185 0.644967 0.535965
C92   C     C_R   0.530867 0.842086 0.355028 0.534882
C93   C     C_3   0.008419 0.352165 0.070201 0.059605
C94   C     C_3   0.988009 0.351154 0.931309 0.064498
C95   C     C_3   0.508417 0.852172 0.070201 0.059591
C96   C     C_3   0.488015 0.851160 0.931307 0.064503
C97   C     C_R   0.760908 0.532676 0.849311 0.536024
C98   C     C_R   0.240413 0.536565 0.152254 0.531192
C99   C     C_R   0.260907 0.032677 0.849312 0.536027
C100  C     C_R   0.740411 0.036558 0.152252 0.531201
C101  C     C_R   0.774436 0.133370 0.859232 0.533815
C102  C     C_R   0.225999 0.131904 0.141386 0.533065
C103  C     C_R   0.274438 0.633373 0.859233 0.533813
C104  C     C_R   0.726000 0.631902 0.141386 0.533059
C105  C     C_R   0.967681 0.353260 0.854536 0.536018
C106  C     C_R   0.030319 0.353314 0.146693 0.532968
C107  C     C_R   0.467686 0.853260 0.854533 0.536012
C108  C     C_R   0.530316 0.853315 0.146695 0.532957
C109  C     C_3   0.687259 0.132382 0.465161 -0.234270
C110  C     C_3   0.312768 0.132545 0.534738 -0.234627
C111  C     C_3   0.187258 0.632380 0.465162 -0.234267
C112  C     C_3   0.812769 0.632544 0.534737 -0.234628
C113  C     C_3   0.692380 0.145097 0.546351 -0.231426
C114  C     C_3   0.307634 0.145232 0.453533 -0.231379
C115  C     C_3   0.192378 0.645094 0.546352 -0.231424
C116  C     C_3   0.807635 0.645227 0.453532 -0.231382
C117  C     C_3   0.756588 0.938875 0.480776 -0.217060
C118  C     C_3   0.243435 0.938999 0.519535 -0.216768
C119  C     C_3   0.256590 0.438873 0.480774 -0.217042
C120  C     C_3   0.743433 0.439002 0.519536 -0.216768
Cr1   Cr    Cr6+3 0.885690 0.492860 0.745310 0.992970
Cr2   Cr    Cr6+3 0.114310 0.492860 0.254690 0.992175
Cr3   Cr    Cr6+3 0.385690 0.992860 0.745310 0.992972
Cr4   Cr    Cr6+3 0.614310 0.992860 0.254690 0.992176
Cr5   Cr    Cr6+3 0.729880 0.332270 0.748190 0.992337
Cr6   Cr    Cr6+3 0.270120 0.332270 0.251810 0.991622
Cr7   Cr    Cr6+3 0.229880 0.832270 0.748190 0.992340
Cr8   Cr    Cr6+3 0.770120 0.832270 0.251810 0.991623
Cr9   Cr    Cr6+3 0.888120 0.178590 0.753010 0.992942
Cr10  Cr    Cr6+3 0.111880 0.178590 0.246990 0.992188
Cr11  Cr    Cr6+3 0.388120 0.678590 0.753010 0.992943
Cr12  Cr    Cr6+3 0.611880 0.678590 0.246990 0.992187
H1    H     H_    0.638144 0.096384 0.449845 0.131224
H2    H     H_    0.361892 0.096531 0.550141 0.131345
H3    H     H_    0.138143 0.596382 0.449845 0.131226
H4    H     H_    0.861893 0.596530 0.550142 0.131345
H5    H     H_    0.863783 0.067507 0.540527 0.126182
H6    H     H_    0.136260 0.067421 0.459440 0.126200
H7    H     H_    0.363780 0.567497 0.540532 0.126184
H8    H     H_    0.636261 0.567431 0.459440 0.126200
H9    H     H_    0.809229 0.908780 0.470062 0.124876
H10   H     H_    0.190771 0.908995 0.530288 0.125120
H11   H     H_    0.309236 0.408791 0.470064 0.124871
H12   H     H_    0.690769 0.408999 0.530290 0.125121
H13   H     H_    0.795832 0.909937 0.589121 0.120365
H14   H     H_    0.204320 0.909864 0.411231 0.120012
H15   H     H_    0.295821 0.409926 0.589126 0.120356
H16   H     H_    0.704315 0.409868 0.411233 0.120014
H17   H     H_    0.046131 0.149864 0.442305 0.130217
H18   H     H_    0.953831 0.149939 0.558140 0.130508
H19   H     H_    0.546131 0.649865 0.442304 0.130218
H20   H     H_    0.453828 0.649941 0.558138 0.130508
H21   H     H_    0.959015 0.161014 0.434588 0.106654
H22   H     H_    0.040952 0.161128 0.565829 0.106835
H23   H     H_    0.459014 0.661014 0.434587 0.106653
H24   H     H_    0.540950 0.661126 0.565829 0.106835
H25   H     H_    0.616628 0.891460 0.455951 0.112432
H26   H     H_    0.383360 0.891588 0.543961 0.112330
H27   H     H_    0.116630 0.391460 0.455953 0.112435
H28   H     H_    0.883361 0.391591 0.543961 0.112330
H29   H     H_    0.600324 0.835124 0.576929 0.104068
H30   H     H_    0.399642 0.834958 0.423150 0.103819
H31   H     H_    0.100325 0.335125 0.576931 0.104065
H32   H     H_    0.899643 0.334959 0.423150 0.103820
H33   H     H_    0.938303 0.477694 0.417225 0.121536
H34   H     H_    0.061623 0.477856 0.582429 0.121540
H35   H     H_    0.438301 0.977694 0.417225 0.121535
H36   H     H_    0.561624 0.977855 0.582428 0.121540
H37   H     H_    0.833601 0.939161 0.063569 0.138038
H38   H     H_    0.179490 0.918968 0.939609 0.138374
H39   H     H_    0.333605 0.439169 0.063571 0.138040
H40   H     H_    0.679511 0.418951 0.939617 0.138371
H41   H     H_    0.687881 0.221030 0.439978 0.106743
H42   H     H_    0.312137 0.221204 0.559739 0.106736
H43   H     H_    0.187879 0.721028 0.439980 0.106739
H44   H     H_    0.812139 0.721204 0.559736 0.106736
H45   H     H_    0.860558 0.086688 0.071733 0.115179
H46   H     H_    0.141322 0.056376 0.933519 0.114450
H47   H     H_    0.360558 0.586702 0.071733 0.115180
H48   H     H_    0.641325 0.556350 0.933505 0.114457
H49   H     H_    0.871515 0.070336 0.951699 0.134774
H50   H     H_    0.131865 0.041693 0.050902 0.133703
H51   H     H_    0.371517 0.570345 0.951701 0.134773
H52   H     H_    0.631865 0.541741 0.050891 0.133697
H53   H     H_    0.822335 0.944417 0.946290 0.114097
H54   H     H_    0.192242 0.927857 0.059648 0.118202
H55   H     H_    0.322339 0.444420 0.946292 0.114099
H56   H     H_    0.692224 0.427876 0.059660 0.118204
H57   H     H_    0.700395 0.922649 0.046108 0.110566
H58   H     H_    0.338625 0.948370 0.953535 0.110500
H59   H     H_    0.200401 0.422654 0.046111 0.110570
H60   H     H_    0.838642 0.448375 0.953521 0.110497
H61   H     H_    0.705797 0.940216 0.923386 0.106346
H62   H     H_    0.311265 0.956151 0.076998 0.102584
H63   H     H_    0.205793 0.440221 0.923391 0.106348
H64   H     H_    0.811254 0.456135 0.076990 0.102600
H65   H     H_    0.696416 0.238815 0.084465 0.114957
H66   H     H_    0.288983 0.250179 0.916135 0.112391
H67   H     H_    0.196402 0.738803 0.084456 0.114964
H68   H     H_    0.788979 0.750177 0.916122 0.112385
H69   H     H_    0.787600 0.252903 0.086795 0.102144
H70   H     H_    0.198734 0.233537 0.909164 0.103726
H71   H     H_    0.287583 0.752918 0.086807 0.102141
H72   H     H_    0.698730 0.733527 0.909170 0.103728
H73   H     H_    0.778034 0.295743 0.963355 0.109251
H74   H     H_    0.188836 0.249615 0.028370 0.111420
H75   H     H_    0.278059 0.795714 0.963377 0.109248
H76   H     H_    0.688857 0.749626 0.028375 0.111429
H77   H     H_    0.692604 0.246992 0.964318 0.118238
H78   H     H_    0.278346 0.279381 0.038408 0.125003
H79   H     H_    0.192627 0.747032 0.964311 0.118249
H80   H     H_    0.778373 0.779356 0.038402 0.125002
H81   H     H_    0.642515 0.045171 0.049583 0.128681
H82   H     H_    0.356545 0.101043 0.954740 0.120049
H83   H     H_    0.142520 0.545166 0.049590 0.128687
H84   H     H_    0.856543 0.601059 0.954744 0.120047
H85   H     H_    0.686857 0.237244 0.562075 0.137715
H86   H     H_    0.313068 0.237432 0.437644 0.138267
H87   H     H_    0.186858 0.737242 0.562076 0.137720
H88   H     H_    0.813073 0.737424 0.437641 0.138269
H89   H     H_    0.652254 0.067753 0.926976 0.110400
H90   H     H_    0.349056 0.101216 0.074682 0.115554
H91   H     H_    0.152254 0.567764 0.926985 0.110411
H92   H     H_    0.849052 0.601184 0.074687 0.115550
H93   H     H_    0.033744 0.544623 0.058890 0.133028
H94   H     H_    0.950785 0.536241 0.943151 0.133943
H95   H     H_    0.533758 0.044622 0.058888 0.133025
H96   H     H_    0.450793 0.036254 0.943150 0.133943
H97   H     H_    0.946434 0.512375 0.064709 0.116375
H98   H     H_    0.038078 0.524510 0.940310 0.113160
H99   H     H_    0.446448 0.012406 0.064706 0.116368
H100  H     H_    0.538087 0.024518 0.940307 0.113151
H101  H     H_    0.608051 0.853462 0.040167 0.110801
H102  H     H_    0.384543 0.781564 0.956351 0.111019
H103  H     H_    0.108050 0.353506 0.040147 0.110794
H104  H     H_    0.884537 0.281557 0.956377 0.111018
H105  H     H_    0.952758 0.189498 0.078873 0.115340
H106  H     H_    0.061083 0.206576 0.923138 0.110448
H107  H     H_    0.452733 0.689531 0.078880 0.115322
H108  H     H_    0.561092 0.706581 0.923131 0.110438
H109  H     H_    0.951924 0.178877 0.959204 0.122853
H110  H     H_    0.076874 0.204961 0.045410 0.132626
H111  H     H_    0.451931 0.678885 0.959208 0.122848
H112  H     H_    0.576836 0.704941 0.045411 0.132632
H113  H     H_    0.648408 0.100890 0.571930 0.106506
H114  H     H_    0.351646 0.101126 0.428053 0.106330
H115  H     H_    0.148404 0.600891 0.571930 0.106500
H116  H     H_    0.851646 0.601115 0.428054 0.106329
H117  H     H_    0.722341 0.868322 0.463795 0.109586
H118  H     H_    0.277623 0.868425 0.536757 0.109721
H119  H     H_    0.222349 0.368308 0.463783 0.109588
H120  H     H_    0.777620 0.368427 0.536759 0.109722
H121  H     H_    0.705194 0.923715 0.584569 0.104074
H122  H     H_    0.294936 0.923811 0.415880 0.103966
H123  H     H_    0.205182 0.423709 0.584562 0.104071
H124  H     H_    0.794931 0.423807 0.415881 0.103966
H125  H     H_    0.855228 0.090164 0.421697 0.122704
H126  H     H_    0.144772 0.090304 0.578228 0.122855
H127  H     H_    0.355228 0.590169 0.421700 0.122699
H128  H     H_    0.644772 0.590311 0.578227 0.122853
H129  H     H_    0.804409 0.221117 0.427399 0.104148
H130  H     H_    0.195568 0.221291 0.572201 0.104346
H131  H     H_    0.304408 0.721121 0.427406 0.104149
H132  H     H_    0.695570 0.721295 0.572202 0.104345
H133  H     H_    0.842187 0.219433 0.547874 0.113036
H134  H     H_    0.157818 0.219385 0.451689 0.113304
H135  H     H_    0.342186 0.719425 0.547883 0.113048
H136  H     H_    0.657824 0.719392 0.451688 0.113303
O1    O     O_R   0.957210 0.449410 0.665480 -0.533119
O2    O     O_R   0.042790 0.449410 0.334520 -0.533719
O3    O     O_R   0.457210 0.949410 0.665480 -0.533119
O4    O     O_R   0.542790 0.949410 0.334520 -0.533720
O5    O     O_R   0.736260 0.212010 0.826560 -0.510446
O6    O     O_R   0.263740 0.212010 0.173440 -0.510073
O7    O     O_R   0.236260 0.712010 0.826560 -0.510445
O8    O     O_R   0.763740 0.712010 0.173440 -0.510072
O9    O     O_R   0.832520 0.095300 0.836000 -0.533749
O10   O     O_R   0.167480 0.095300 0.164000 -0.533942
O11   O     O_R   0.332520 0.595300 0.836000 -0.533749
O12   O     O_R   0.667480 0.595300 0.164000 -0.533940
O13   O     O_R   0.946380 0.253940 0.826940 -0.512926
O14   O     O_R   0.053620 0.253940 0.173060 -0.513052
O15   O     O_R   0.446380 0.753940 0.826940 -0.512929
O16   O     O_R   0.553620 0.753940 0.173060 -0.513052
O17   O     O_3   0.834560 0.334570 0.748840 -0.272426
O18   O     O_3   0.165440 0.334570 0.251160 -0.269431
O19   O     O_3   0.334560 0.834570 0.748840 -0.272421
O20   O     O_3   0.665440 0.834570 0.251160 -0.269431
O21   O     O_R   0.820730 0.541240 0.668250 -0.514842
O22   O     O_R   0.179270 0.541240 0.331750 -0.515403
O23   O     O_R   0.320730 0.041240 0.668250 -0.514843
O24   O     O_R   0.679270 0.041240 0.331750 -0.515404
O25   O     O_R   0.714240 0.455060 0.663710 -0.532574
O26   O     O_R   0.285760 0.455060 0.336290 -0.533193
O27   O     O_R   0.214240 0.955060 0.663710 -0.532574
O28   O     O_R   0.785760 0.955060 0.336290 -0.533193
O29   O     O_R   0.736780 0.204870 0.675910 -0.515108
O30   O     O_R   0.263220 0.204870 0.324090 -0.515511
O31   O     O_R   0.236780 0.704870 0.675910 -0.515103
O32   O     O_R   0.763220 0.704870 0.324090 -0.515511
O33   O     O_R   0.833070 0.087590 0.673490 -0.529970
O34   O     O_R   0.166930 0.087590 0.326510 -0.530200
O35   O     O_R   0.333070 0.587590 0.673490 -0.529965
O36   O     O_R   0.666930 0.587590 0.326510 -0.530200
O37   O     O_R   0.946890 0.246800 0.676300 -0.512378
O38   O     O_R   0.053110 0.246800 0.323700 -0.512774
O39   O     O_R   0.446890 0.746800 0.676300 -0.512376
O40   O     O_R   0.553110 0.746800 0.323700 -0.512774
O41   O     O_R   0.956650 0.457120 0.827980 -0.532008
O42   O     O_R   0.043350 0.457120 0.172020 -0.531634
O43   O     O_R   0.456650 0.957120 0.827980 -0.532006
O44   O     O_R   0.543350 0.957120 0.172020 -0.531632
O45   O     O_R   0.820220 0.548390 0.818890 -0.510151
O46   O     O_R   0.179780 0.548390 0.181110 -0.509642
O47   O     O_R   0.320220 0.048390 0.818890 -0.510149
O48   O     O_R   0.679780 0.048390 0.181110 -0.509642
O49   O     O_R   0.713680 0.462770 0.826210 -0.533161
O50   O     O_R   0.286320 0.462770 0.173790 -0.532710
O51   O     O_R   0.213680 0.962770 0.826210 -0.533159
O52   O     O_R   0.786320 0.962770 0.173790 -0.532712
H137  H     H_    0.947698 0.500314 0.535567 0.129230
H138  H     H_    0.052284 0.500181 0.464045 0.129620
H139  H     H_    0.447697 0.000314 0.535567 0.129232
H140  H     H_    0.552283 0.000182 0.464044 0.129621
H141  H     H_    0.598126 0.850673 0.918638 0.104907
H142  H     H_    0.399749 0.819570 0.079954 0.102252
H143  H     H_    0.098117 0.350663 0.918626 0.104903
H144  H     H_    0.899757 0.319517 0.079967 0.102242

loop_
_geom_bond_atom_site_label_1
_geom_bond_atom_site_label_2
_ccdc_geom_bond_type
C78   H94   S    
C82   C94   S    
C119  H11   S    
C10   C110  S    
C7    H127  S    
C120  H12   S    
C41   C61   S    
C53   C69   S    
C104  O12   A    
C56   H60   S    
C120  H120  S    
C43   C63   S    
Cr5   O5    S    
C44   C64   S    
C32   H139  S    
C114  H86   S    
C63   C98   S    
C51   H51   S    
C109  H41   S    
C28   C40   S    
C72   H92   S    
C36   H36   S    
C30   C38   S    
Cr8   O28   S    
C79   H95   S    
C42   H38   S    
C87   H142  S    
C75   H75   S    
C56   C72   S    
C105  O13   A    
C21   H5    S    
C8    H132  S    
C18   C118  S    
C81   C86   S    
C108  O16   A    
C83   C88   S    
C48   O36   A    
C5    H129  S    
C90   O2    A    
C41   C49   S    
Cr8   O32   S    
Cr5   O17   S    
Cr2   O46   S    
C30   H137  S    
C109  H1    S    
Cr7   O19   S    
Cr8   O20   S    
C118  H118  S    
C26   C38   S    
Cr10  O38   S    
C14   C114  S    
C41   H37   S    
C83   H112  S    
C60   C76   S    
C24   H8    S    
C55   H59   S    
C81   H110  S    
Cr11  O35   S    
C44   H40   S    
C47   O31   A    
C22   H134  S    
C54   C70   S    
C68   C72   S    
Cr9   O33   S    
C88   H108  S    
C69   H61   S    
C13   C21   S    
C98   O46   A    
C102  O6    A    
C99   O51   A    
C79   H99   S    
C31   H25   S    
C19   H123  S    
C64   C97   S    
C17   H13   S    
C15   C115  S    
C20   C120  S    
Cr7   O27   S    
C54   H82   S    
C57   H65   S    
C59   C63   S    
C52   H52   S    
Cr7   O7    S    
Cr4   O24   S    
C72   H64   S    
C57   C61   S    
C82   C85   S    
C77   H97   S    
C60   C64   S    
Cr9   O17   S    
C13   C45   S    
C66   C70   S    
C78   C94   S    
C113  H113  S    
C23   H135  S    
C86   H106  S    
C69   H89   S    
C31   H140  S    
C95   C108  S    
C60   H68   S    
C62   C99   S    
C5    C21   S    
C58   H70   S    
C31   C36   S    
C75   H79   S    
C97   O49   A    
C48   O32   A    
C55   C71   S    
C76   H76   S    
Cr6   O26   S    
C91   O39   A    
Cr2   O22   S    
C65   C101  S    
Cr10  O18   S    
C43   C51   S    
Cr11  O15   S    
C67   C103  S    
C18   H122  S    
C37   C90   S    
C41   H45   S    
C42   H46   S    
C55   H83   S    
C66   C74   S    
C25   H17   S    
C57   C73   S    
C105  O41   A    
C53   C61   S    
C60   H72   S    
C83   H101  S    
C107  O43   A    
C87   C95   S    
Cr5   O49   S    
C56   C64   S    
C7    H131  S    
C45   O33   A    
C116  H88   S    
C104  O8    A    
C85   H105  S    
C76   H80   S    
Cr6   O6    S    
C50   H50   S    
C1    C12   S    
Cr9   O37   S    
C80   H100  S    
C2    C11   S    
C110  H42   S    
Cr12  O12   S    
C87   H107  S    
C112  H4    S    
C43   H39   S    
C25   C26   S    
C106  O14   A    
C8    H128  S    
C84   H102  S    
C5    C9    S    
C119  H119  S    
C93   C106  S    
C71   H63   S    
C8    C12   S    
C5    H125  S    
C6    H130  S    
C51   C67   S    
C42   C50   S    
C49   H49   S    
C112  H44   S    
Cr6   O18   S    
Cr3   O47   S    
C110  H2    S    
C61   C100  S    
C67   C75   S    
C50   H54   S    
Cr1   O1    S    
C112  C116  S    
C58   C74   S    
Cr3   O3    S    
C73   H73   S    
Cr4   O4    S    
C53   H81   S    
C54   H58   S    
C33   H33   S    
C68   C76   S    
C13   C17   S    
C98   O50   A    
C2    O22   A    
C99   O47   A    
C103  O7    A    
C20   H16   S    
C7    C23   S    
C8    C24   S    
C40   C91   S    
C56   H84   S    
Cr7   O31   S    
C49   H53   S    
Cr1   O41   S    
C57   H69   S    
Cr3   O43   S    
C52   H56   S    
C4    C9    S    
C53   H57   S    
C24   H136  S    
C58   C62   S    
C88   C96   S    
C94   C105  S    
C77   H93   S    
C82   H104  S    
C12   C112  S    
C44   H48   S    
C14   C46   S    
C77   C78   S    
C15   C19   S    
C43   H47   S    
C101  O9    A    
C101  O5    A    
C92   O4    A    
C108  O44   A    
C6    C22   S    
C2    O26   A    
Cr11  O39   S    
C21   H133  S    
Cr7   O51   S    
C116  H116  S    
Cr8   O52   S    
C15   C47   S    
Cr3   O23   S    
C85   H144  S    
Cr11  O11   S    
C17   C117  S    
C42   C62   S    
C19   C119  S    
Cr10  O34   S    
C9    C109  S    
Cr12  O40   S    
C16   C116  S    
C100  O48   A    
C20   H124  S    
C115  H115  S    
C27   H23   S    
C117  H9    S    
C25   H21   S    
C29   H138  S    
C26   H18   S    
C117  H117  S    
C106  O42   A    
C54   C62   S    
C18   H14   S    
C11   C111  S    
C29   C34   S    
C33   C37   S    
C82   H109  S    
C45   O29   A    
C30   H28   S    
C4    O24   A    
C79   C95   S    
C89   O37   A    
Cr5   O29   S    
C70   H62   S    
Cr1   O17   S    
C80   H96   S    
Cr3   O19   S    
Cr4   O20   S    
Cr12  O16   S    
C96   C107  S    
C89   O1    A    
C39   C92   S    
C73   H77   S    
C27   H19   S    
C14   C18   S    
C107  O15   A    
C68   C104  S    
C6    C10   S    
C1    O25   A    
C78   H98   S    
C92   O40   A    
C22   H6    S    
C6    H126  S    
C103  O11   A    
C14   C22   S    
C114  H114  S    
C65   C69   S    
C77   C93   S    
C70   H90   S    
Cr4   O44   S    
C84   H111  S    
C67   C71   S    
C111  H3    S    
C19   H15   S    
C51   H55   S    
Cr2   O2    S    
C3    O27   A    
C59   H71   S    
Cr12  O36   S    
C29   C37   S    
C34   H34   S    
C46   O30   A    
C9    C117  S    
C66   C102  S    
C35   C39   S    
C84   C87   S    
C3    O23   A    
C86   H143  S    
C11   C119  S    
C16   C48   S    
C29   H27   S    
Cr12  O20   S    
C7    C11   S    
C38   C89   S    
C17   H121  S    
C49   C65   S    
C74   H78   S    
C111  H43   S    
C23   H7    S    
C91   O3    A    
Cr1   O45   S    
Cr2   O42   S    
C65   C73   S    
C84   C96   S    
Cr4   O48   S    
Cr8   O8    S    
C86   C94   S    
C25   C37   S    
C12   C120  S    
C59   H67   S    
C35   H35   S    
Cr9   O9    S    
C80   C96   S    
C52   C68   S    
C16   C20   S    
C15   C23   S    
C16   C24   S    
C97   O45   A    
C115  H87   S    
C85   C93   S    
C102  O10   A    
C113  H85   S    
C32   H26   S    
C35   H30   S    
C71   H91   S    
C1    O21   A    
C32   C35   S    
C36   C40   S    
C33   H32   S    
C34   H31   S    
C27   C39   S    
Cr6   O50   S    
C55   C63   S    
Cr10  O10   S    
C46   O34   A    
C10   C118  S    
C81   C93   S    
C83   C95   S    
C81   H103  S    
Cr9   O13   S    
C50   C66   S    
C100  O52   A    
C28   H20   S    
C26   H22   S    
C59   C75   S    
C74   H74   S    
C110  C114  S    
C58   H66   S    
C30   C33   S    
C34   C38   S    
C47   O35   A    
C4    O28   A    
C118  H10   S    
C88   H141  S    
Cr5   O25   S    
C90   O38   A    
Cr6   O30   S    
C109  C113  S    
Cr1   O21   S    
Cr2   O18   S    
Cr10  O14   S    
C3    C10   S    
Cr11  O19   S    
C44   C52   S    
C36   H29   S    
C31   C39   S    
C32   C40   S    
C79   C80   S    
C27   C28   S    
C28   H24   S    
C111  C115  S    
C13   C113  S    
