data_mof_unit_31201.cif
_audit_creation_date              2012-10-26T21:02:37-0400
_audit_creation_method            fapswitch 2.2
_symmetry_space_group_name_H-M    P1
_symmetry_Int_Tables_number       1
_space_group_crystal_system       triclinic
_cell_length_a                    12.318725
_cell_length_b                    13.196108
_cell_length_c                    15.065653
_cell_angle_alpha                 77.464415
_cell_angle_beta                  101.392219
_cell_angle_gamma                 116.623388
_cell_volume                      2123.04606784

loop_
_atom_site_label
_atom_site_type_symbol
_atom_type_description
_atom_site_fract_x
_atom_site_fract_y
_atom_site_fract_z
_atom_type_partial_charge
C1    C     C_R   0.854861 0.286598 0.508004 0.533615
C2    C     C_R   0.091078 0.482781 0.832534 -0.122714
C3    C     C_R   0.998585 0.498602 0.768198 -0.012570
C4    C     C_R   0.999400 0.499473 0.671230 0.553827
C5    C     C_R   0.905638 0.513497 0.796786 -0.141510
C6    C     C_R   0.275262 0.021347 0.377451 -0.128351
C7    C     C_R   0.227949 0.834489 0.467435 0.000478
C8    C     C_R   0.815603 0.085285 0.567853 -0.123472
C9    C     C_R   0.736904 0.970344 0.585707 -0.139414
C10   C     C_R   0.613495 0.932612 0.553391 -0.119921
C11   C     C_R   0.566601 0.009422 0.498937 0.033821
C12   C     C_R   0.905693 0.513736 0.075199 0.011594
C13   C     C_R   0.650033 0.123895 0.471868 0.023314
C14   C     C_R   0.439874 0.976111 0.469584 0.029381
C15   C     C_R   0.400072 0.053340 0.406965 0.051308
C16   C     C_R   0.145102 0.713401 0.486471 0.542115
C17   C     C_R   0.485358 0.160535 0.372751 -0.137407
C18   C     C_R   0.608568 0.194733 0.403549 -0.120767
C19   C     C_R   0.351073 0.868465 0.501254 -0.133554
C20   C     C_R   0.189500 0.911968 0.407064 -0.132553
C21   C     C_R   0.773063 0.163642 0.513129 -0.007625
C22   C     C_R   0.347767 0.329058 0.646255 -0.115103
C23   C     C_R   0.184674 0.467451 0.082072 -0.133828
C24   C     C_R   0.759077 0.645122 0.375700 0.045464
C25   C     C_R   0.662351 0.676703 0.348840 -0.162864
C26   C     C_R   0.559128 0.622089 0.395554 -0.136690
C27   C     C_R   0.551385 0.534641 0.470278 0.007606
C28   C     C_R   0.000231 0.499991 0.328803 0.539264
C29   C     C_R   0.653162 0.505368 0.495419 0.181536
C30   C     C_R   0.447184 0.475375 0.521032 -0.029877
C31   C     C_R   0.447477 0.388649 0.595324 -0.023003
C32   C     C_R   0.547282 0.361703 0.618715 -0.174546
C33   C     C_R   0.647660 0.418783 0.570095 -0.094835
C34   C     C_R   0.184280 0.467169 0.989542 -0.130194
C35   C     C_R   0.341900 0.497842 0.501825 -0.022299
C36   C     C_R   0.247502 0.355208 0.623964 0.520470
C37   C     C_R   0.906934 0.514276 0.167715 -0.140297
C38   C     C_R   0.999982 0.499316 0.231950 -0.012462
C39   C     C_R   0.092402 0.483592 0.203400 -0.137852
C40   C     C_R   0.092490 0.482916 0.111072 0.011961
C41   C     C_R   0.998830 0.498085 0.046677 0.062666
C42   C     C_R   0.091733 0.482397 0.925115 0.009370
C43   C     C_R   0.998445 0.497819 0.953642 0.061846
C44   C     C_R   0.904950 0.513230 0.889210 0.012750
C45   C     C_R   0.812623 0.528422 0.918242 -0.131503
C46   C     C_R   0.813002 0.528692 0.010786 -0.133122
Cu1   Cu    Cu3+1 0.098270 0.475420 0.521130 1.008291
Cu2   Cu    Cu3+1 0.901730 0.524580 0.478870 0.915973
F1    F     F_    0.150874 0.297338 0.673105 -0.631571
H1    H     H_    0.835174 0.526199 0.189531 0.124639
H2    H     H_    0.347496 0.262561 0.703069 0.119046
H3    H     H_    0.164514 0.472179 0.252838 0.124701
H4    H     H_    0.333764 0.562159 0.446586 0.124550
H5    H     H_    0.838818 0.688079 0.339080 0.124594
H6    H     H_    0.487066 0.650008 0.371834 0.100885
H7    H     H_    0.667416 0.743802 0.291598 0.105145
H8    H     H_    0.719163 0.391874 0.594015 0.185013
H9    H     H_    0.257048 0.455729 0.130904 0.107095
H10   H     H_    0.256360 0.455219 0.968340 0.113459
H11   H     H_    0.163064 0.471193 0.810723 0.154090
H12   H     H_    0.456753 0.218401 0.321859 0.107117
H13   H     H_    0.833784 0.525296 0.747294 0.128412
H14   H     H_    0.740363 0.540274 0.869392 0.111011
H15   H     H_    0.741008 0.540751 0.031979 0.107210
H16   H     H_    0.094249 0.886579 0.379991 0.123745
H17   H     H_    0.244435 0.079854 0.329475 0.108839
H18   H     H_    0.375055 0.808193 0.551836 0.118272
H19   H     H_    0.909607 0.113256 0.598849 0.177745
H20   H     H_    0.558094 0.842298 0.570549 0.104854
H21   H     H_    0.771052 0.910490 0.627324 0.126154
H22   H     H_    0.670668 0.276297 0.370938 0.150618
H23   H     H_    0.548082 0.295578 0.675636 0.114825
N1    N     N_R   0.246280 0.438190 0.553160 -0.228829
N2    N     N_R   0.754320 0.561190 0.447410 -0.239046
O1    O     O_R   0.972510 0.318130 0.526570 -0.446604
O2    O     O_R   0.806530 0.359650 0.490890 -0.535914
O3    O     O_R   0.082980 0.479210 0.647590 -0.447149
O4    O     O_R   0.917000 0.520730 0.611900 -0.530538
O5    O     O_R   0.193470 0.640350 0.509110 -0.518873
O6    O     O_R   0.027490 0.681870 0.473430 -0.504884
O7    O     O_R   0.083000 0.479270 0.388100 -0.515847
O8    O     O_R   0.917020 0.520790 0.352410 -0.521080

loop_
_geom_bond_atom_site_label_1
_geom_bond_atom_site_label_2
_ccdc_geom_bond_type
C23   H9    S    
C1    C21   S    
C35   H4    S    
Cu2   O2    S    
C34   C42   A    
C25   H7    S    
Cu1   O5    S    
C26   H6    S    
C32   H23   S    
C45   C46   A    
C26   C27   A    
C37   C38   A    
C13   C18   A    
C30   C31   A    
C11   C14   A    
C2    H11   S    
C27   C29   A    
C24   H5    S    
C23   C40   A    
C29   C33   A    
Cu2   O4    S    
C12   C37   A    
C17   H12   S    
C6    C15   A    
Cu1   Cu2   S    
C8    C9    A    
C19   H18   S    
C9    C10   A    
C39   H3    S    
C27   C30   A    
C41   C43   A    
C8    C21   A    
C22   C31   A    
C28   O8    A    
C1    O1    A    
Cu2   N2    S    
C20   H16   S    
C9    H21   S    
Cu1   N1    S    
C12   C46   A    
C10   C11   A    
C39   C40   A    
C29   N2    A    
C25   C26   A    
C45   H14   S    
C46   H15   S    
C16   O6    A    
C43   C44   A    
C4    O4    A    
C12   C41   A    
C31   C32   A    
C28   C38   S    
C23   C34   A    
C17   C18   A    
C13   C21   A    
C24   C25   A    
C30   C35   A    
C7    C16   S    
C5    C44   A    
C8    H19   S    
C7    C19   A    
C34   H10   S    
C42   C43   A    
Cu1   O3    S    
C3    C4    S    
C6    C20   A    
C44   C45   A    
C18   H22   S    
C15   C17   A    
C35   N1    A    
C33   H8    S    
C28   O7    A    
C1    O2    A    
C14   C19   A    
C3    C5    A    
C22   C36   A    
C16   O5    A    
C32   C33   A    
Cu2   O6    S    
C2    C3    A    
Cu1   O1    S    
C4    O3    A    
C37   H1    S    
C11   C13   A    
C24   N2    A    
C38   C39   A    
C2    C42   A    
Cu2   O8    S    
C5    H13   S    
Cu1   O7    S    
C36   N1    A    
C10   H20   S    
C6    H17   S    
C7    C20   A    
C14   C15   A    
C40   C41   A    
C36   F1    S    
C22   H2    S    
