data_mof_unit_15993.cif
_audit_creation_date              2012-10-26T19:00:11-0400
_audit_creation_method            fapswitch 2.2
_symmetry_space_group_name_H-M    P1
_symmetry_Int_Tables_number       1
_space_group_crystal_system       triclinic
_cell_length_a                    10.884817
_cell_length_b                    10.80755
_cell_length_c                    9.554126
_cell_angle_alpha                 90.014805
_cell_angle_beta                  90.056955
_cell_angle_gamma                 90.662396
_cell_volume                      1123.85451747

loop_
_atom_site_label
_atom_site_type_symbol
_atom_type_description
_atom_site_fract_x
_atom_site_fract_y
_atom_site_fract_z
_atom_type_partial_charge
C1    C     C_R   0.492503 0.262531 0.499938 0.543305
C2    C     C_R   0.858931 0.334276 0.979193 -0.106751
C3    C     C_R   0.843866 0.210667 0.940206 -0.082502
C4    C     C_R   0.262056 0.498218 0.500034 0.563325
C5    C     C_R   0.858706 0.176418 0.800633 -0.102070
C6    C     C_R   0.881939 0.266567 0.699024 -0.081017
C7    C     C_R   0.897696 0.391551 0.737311 0.081042
C8    C     C_R   0.466925 0.064107 0.624765 0.047972
C9    C     C_R   0.468882 0.130201 0.499956 -0.016990
C10   C     C_R   0.441458 0.066630 0.375545 -0.144500
C11   C     C_R   0.436660 0.937054 0.373867 0.059109
C12   C     C_R   0.175639 0.218045 0.054254 0.089030
C13   C     C_R   0.466869 0.870665 0.497710 0.008122
C14   C     C_R   0.468777 0.936863 0.623351 0.023383
C15   C     C_3   0.554526 0.932797 0.744907 -0.269713
C16   C     C_R   0.490826 0.737684 0.499346 0.556077
C17   C     C_3   0.550440 0.072796 0.747616 -0.257367
C18   C     C_R   0.543875 0.599675 0.073721 0.209690
C19   C     C_R   0.449396 0.404847 0.074245 -0.005460
C20   C     C_R   0.449362 0.404787 0.925542 -0.002129
C21   C     C_R   0.541079 0.601411 0.926475 0.179976
C22   C     C_3   0.666930 0.656774 0.920720 -0.291367
C23   C     C_R   0.935569 0.481399 0.375194 -0.173180
C24   C     C_3   0.671143 0.651139 0.079083 -0.272715
C25   C     C_R   0.737712 0.495005 0.500362 0.548591
C26   C     C_R   0.155334 0.342143 0.021917 -0.101811
C27   C     C_R   0.123452 0.426217 0.126960 -0.098531
C28   C     C_R   0.114044 0.386018 0.266023 0.049128
C29   C     C_R   0.139735 0.262145 0.298794 -0.116893
C30   C     C_R   0.169474 0.178425 0.193124 -0.103448
C31   C     C_3   0.118285 0.665356 0.775187 -0.102385
C32   C     C_R   0.871780 0.489197 0.501649 -0.057509
C33   C     C_R   0.937438 0.481560 0.628467 -0.014601
C34   C     C_R   0.062093 0.512730 0.625963 0.241973
C35   C     C_R   0.127612 0.494632 0.500125 0.008344
C36   C     C_R   0.062108 0.465733 0.376401 -0.057683
C37   C     C_R   0.891384 0.423580 0.879413 -0.074436
Cu1   Cu    Cu3+1 0.499990 0.499980 0.640670 0.971893
Cu2   Cu    Cu3+1 0.500010 0.500020 0.359330 0.966701
H1    H     H_    0.822827 0.141224 0.018464 0.121130
H2    H     H_    0.161474 0.371867 0.914633 0.203174
H3    H     H_    0.409658 0.326903 0.870076 0.144945
H4    H     H_    0.731726 0.596232 0.866369 0.152082
H5    H     H_    0.668805 0.752725 0.882103 0.117988
H6    H     H_    0.738842 0.583657 0.119222 0.132597
H7    H     H_    0.675003 0.743899 0.129265 0.153510
H8    H     H_    0.103005 0.521008 0.099614 0.128594
H9    H     H_    0.131451 0.229249 0.405537 0.116396
H10   H     H_    0.184872 0.082407 0.218918 0.164943
H11   H     H_    0.885848 0.471345 0.278093 0.129071
H12   H     H_    0.850604 0.080036 0.770777 0.111677
H13   H     H_    0.912895 0.516769 0.913453 0.104134
H14   H     H_    0.849593 0.359644 0.087611 0.104529
H15   H     H_    0.021995 0.697746 0.785863 0.104187
H16   H     H_    0.166759 0.717972 0.691149 0.143638
H17   H     H_    0.166393 0.685429 0.875224 0.168328
H18   H     H_    0.892180 0.238255 0.590910 0.099477
H19   H     H_    0.428246 0.116829 0.278712 0.154122
H20   H     H_    0.510661 0.889806 0.838267 0.181454
H21   H     H_    0.646396 0.897604 0.714945 0.119906
H22   H     H_    0.504244 0.110355 0.841878 0.170345
H23   H     H_    0.638365 0.118415 0.719692 0.138854
H24   H     H_    0.410313 0.326764 0.129715 0.135803
I1    I     I_    0.209982 0.090457 0.892425 -0.473865
I2    I     I_    0.381384 0.857122 0.180199 -0.431127
N1    N     N_R   0.500790 0.500930 0.147930 -0.232488
N2    N     N_R   0.500790 0.500890 0.852020 -0.235180
O1    O     O_R   0.500000 0.319640 0.618810 -0.506771
O2    O     O_R   0.500010 0.319680 0.381230 -0.521647
O3    O     O_R   0.319640 0.499990 0.618790 -0.450468
O4    O     O_R   0.319650 0.500030 0.381210 -0.493021
O5    O     O_R   0.499990 0.680320 0.618770 -0.505987
O6    O     O_R   0.500000 0.680360 0.381190 -0.468517
O7    O     O_R   0.680350 0.499970 0.618790 -0.503085
O8    O     O_R   0.680360 0.500010 0.381210 -0.510709
O9    O     O_3   0.122227 0.536936 0.750416 -0.582619

loop_
_geom_bond_atom_site_label_1
_geom_bond_atom_site_label_2
_ccdc_geom_bond_type
Cu1   O3    S    
C18   C21   A    
C15   H21   S    
C20   N2    A    
C19   C20   A    
C16   O5    A    
C4    O3    A    
C26   C27   A    
C18   C24   S    
C24   H6    S    
C28   C29   A    
C10   H19   S    
C34   C35   A    
C5    C6    A    
C12   I1    S    
C1    O1    A    
C19   N1    A    
C25   O7    A    
C17   H22   S    
C22   H5    S    
C35   C36   A    
C19   H24   S    
C8    C9    A    
Cu2   O8    S    
C31   H17   S    
C9    C10   A    
C25   C32   S    
C4    C35   S    
C13   C14   A    
C21   N2    A    
C7    C33   S    
C6    H18   S    
Cu2   O2    S    
Cu1   O5    S    
C29   H9    S    
C16   O6    A    
C1    C9    S    
C37   H13   S    
C23   H11   S    
C1    O2    A    
C12   C26   A    
C25   O8    A    
C29   C30   A    
C17   H23   S    
C22   H4    S    
C33   C34   A    
C7    C37   A    
C30   H10   S    
Cu1   O1    S    
C3    H1    S    
Cu2   N1    S    
C22   C24   S    
Cu1   O7    S    
C27   H8    S    
C15   C17   S    
C8    C14   A    
C12   C30   A    
C15   H20   S    
C3    C5    A    
C2    H14   S    
C20   H3    S    
C6    C7    A    
C18   N1    A    
C8    C17   S    
C24   H7    S    
C23   C32   A    
C2    C3    A    
C32   C33   A    
C11   C13   A    
C2    C37   A    
C31   O9    S    
Cu1   Cu2   S    
Cu2   O6    S    
C31   H15   S    
C10   C11   A    
Cu1   N2    S    
C28   C36   S    
C23   C36   A    
C13   C16   S    
C27   C28   A    
Cu2   O4    S    
C14   C15   S    
C5    H12   S    
C31   H16   S    
C21   C22   S    
C4    O4    A    
C11   I2    S    
C26   H2    S    
C34   O9    S    
