data_mof_unit_44718.cif
_audit_creation_date              2012-12-11T16:35:21-0500
_audit_creation_method            fapswitch 2.2
_symmetry_space_group_name_H-M    P1
_symmetry_Int_Tables_number       1
_space_group_crystal_system       triclinic
_cell_length_a                    6.937177
_cell_length_b                    17.610262
_cell_length_c                    19.585693
_cell_angle_alpha                 108.961008
_cell_angle_beta                  90.156957
_cell_angle_gamma                 90.893582
_cell_volume                      2262.51588046

loop_
_atom_site_label
_atom_site_type_symbol
_atom_type_description
_atom_site_fract_x
_atom_site_fract_y
_atom_site_fract_z
_atom_type_partial_charge
O1    O     O_R   0.505700 0.440210 0.561730 -0.546183
O2    O     O_R   0.169350 0.406300 0.412660 -0.543497
O3    O     O_R   0.005650 0.559790 0.438270 -0.542649
C1    C     C_R   0.337473 0.383465 0.384950 0.680894
O4    O     O_R   0.175560 0.430650 0.559600 -0.548140
O5    O     O_R   0.011900 0.584320 0.586250 -0.534913
C2    C     C_R   0.344284 0.415300 0.580900 0.672417
O6    O     O_R   0.499450 0.415680 0.413750 -0.541348
O7    O     O_3   0.341370 0.550390 0.508570 -0.356610
V1    V     V_3+5 0.063940 0.490650 0.498410 1.438478
O8    O     O_R   0.682570 0.593700 0.587340 -0.521998
C3    C     C_R   0.852596 0.619000 0.613514 0.799218
O9    O     O_R   0.676370 0.569350 0.440400 -0.523409
C4    C     C_R   0.845276 0.580583 0.415892 0.783787
V2    V     V_3+5 0.564750 0.509350 0.501590 1.479861
O10   O     O_3   0.837190 0.449610 0.491430 -0.381436
C5    C     C_R   0.038934 0.715437 0.313595 -0.075956
H1    H     H_    0.165659 0.752791 0.315630 0.147998
C6    C     C_R   0.025280 0.672445 0.362366 -0.123430
H2    H     H_    0.143819 0.676385 0.399543 0.145039
C7    C     C_R   0.858546 0.626766 0.364556 -0.019687
C8    C     C_R   0.707202 0.624119 0.316080 -0.160492
H3    H     H_    0.577516 0.589162 0.316214 0.116542
C9    C     C_R   0.723685 0.664984 0.265690 -0.129889
H4    H     H_    0.606751 0.659889 0.227866 0.182371
C10   C     C_R   0.889570 0.711362 0.263719 0.122363
C11   C     C_R   0.739612 0.801828 0.203467 -0.157139
H5    H     H_    0.607351 0.799779 0.232041 0.180198
C12   C     C_R   0.746155 0.848475 0.157792 -0.127033
H6    H     H_    0.616591 0.876841 0.149491 0.209567
C13   C     C_R   0.917432 0.858478 0.123605 -0.132106
C14   C     C_R   0.078473 0.814158 0.131143 -0.146615
H7    H     H_    0.210230 0.817248 0.102527 0.173494
C15   C     C_R   0.069537 0.763037 0.173297 0.393994
C16   C     C_R   0.901153 0.758931 0.212758 -0.000858
H8    H     H_    0.684805 0.637875 0.928604 0.135665
C17   C     C_R   0.043985 0.902160 0.752713 -0.157826
C18   C     C_R   0.083612 0.918049 0.689283 -0.194598
C19   C     C_R   0.028515 0.863035 0.623618 -0.101744
C20   C     C_R   0.941852 0.789805 0.620345 0.354911
C21   C     C_R   0.922741 0.767163 0.683641 0.003910
C22   C     C_R   0.960416 0.827777 0.751468 0.033415
C23   C     C_R   0.862322 0.688495 0.682196 -0.171987
C24   C     C_R   0.817607 0.675006 0.748202 0.055365
C25   C     C_R   0.835769 0.738694 0.815073 0.071019
C26   C     C_R   0.907717 0.814858 0.816617 -0.151027
C27   C     C_R   0.753454 0.598539 0.749084 -0.147399
C28   C     C_R   0.705725 0.585706 0.813569 -0.114041
C29   C     C_R   0.721619 0.648185 0.878620 -0.100007
C30   C     C_R   0.786461 0.723836 0.879711 -0.134645
H9    H     H_    0.079038 0.949342 0.802565 0.119478
H10   H     H_    0.147653 0.975242 0.691355 0.138579
H11   H     H_    0.044651 0.879263 0.575091 0.154328
H12   H     H_    0.738754 0.547793 0.700116 0.093077
H13   H     H_    0.656251 0.526882 0.813003 0.124187
H14   H     H_    0.799313 0.770175 0.931809 0.092841
H15   H     H_    0.433845 0.494971 0.192535 0.161103
C31   C     C_R   0.280888 0.219878 0.378149 -0.226750
C32   C     C_R   0.257557 0.142017 0.379914 0.281010
C33   C     C_R   0.293283 0.078127 0.317898 -0.134324
C34   C     C_R   0.348766 0.090581 0.253776 0.290248
C35   C     C_R   0.368542 0.170225 0.249297 -0.006429
C36   C     C_R   0.333101 0.235546 0.314120 -0.001408
C37   C     C_R   0.424310 0.187040 0.184456 -0.166265
C38   C     C_R   0.443118 0.269563 0.186485 -0.018951
C39   C     C_R   0.394357 0.332582 0.251331 0.045789
C40   C     C_R   0.348739 0.315861 0.315196 -0.114457
C41   C     C_R   0.506023 0.293918 0.126657 0.331309
C42   C     C_R   0.498764 0.374226 0.129688 -0.084863
C43   C     C_R   0.438586 0.433060 0.191171 -0.180782
C44   C     C_R   0.390398 0.413093 0.251701 -0.160196
H16   H     H_    0.253971 0.268149 0.427733 0.110288
H17   H     H_    0.281699 0.017450 0.319926 0.165146
H18   H     H_    0.544510 0.391810 0.084038 0.165847
H19   H     H_    0.347119 0.461827 0.298753 0.106200
C45   C     C_R   0.537903 0.318575 0.714055 -0.142370
H20   H     H_    0.670727 0.321220 0.743915 0.107265
C46   C     C_R   0.526275 0.364290 0.667671 -0.160831
H21   H     H_    0.651435 0.399495 0.662558 0.114681
C47   C     C_R   0.355056 0.365689 0.629457 -0.047278
C48   C     C_R   0.196128 0.319356 0.638271 -0.178785
H22   H     H_    0.062624 0.318419 0.609180 0.122479
C49   C     C_R   0.208668 0.272500 0.683874 -0.137212
H23   H     H_    0.084579 0.236178 0.687798 0.100161
C50   C     C_R   0.379594 0.271694 0.722830 0.097050
C51   C     C_R   0.229740 0.210821 0.811000 -0.139909
H24   H     H_    0.092907 0.237141 0.805680 0.109586
C52   C     C_R   0.241641 0.165668 0.857890 -0.153081
H25   H     H_    0.112949 0.157686 0.886179 0.138507
C53   C     C_R   0.417273 0.132261 0.868883 -0.027379
C54   C     C_R   0.580553 0.144709 0.831280 -0.118782
H26   H     H_    0.717615 0.119159 0.837851 0.115892
C55   C     C_R   0.568097 0.188973 0.783528 -0.138657
H27   H     H_    0.696075 0.195392 0.754264 0.097219
C56   C     C_R   0.392540 0.223045 0.772816 0.084959
O11   O     O_R   0.273230 0.084330 0.086440 -0.521513
O12   O     O_R   0.596660 0.069390 0.940470 -0.521067
O13   O     O_R   0.760270 0.915710 0.913690 -0.547120
C57   C     C_R   0.427897 0.083525 0.918197 0.730334
O14   O     O_R   0.603330 0.093680 0.087390 -0.497211
O15   O     O_R   0.766990 0.940160 0.061660 -0.530502
C58   C     C_R   0.434839 0.119512 0.113892 0.898478
O16   O     O_R   0.266510 0.059870 0.938470 -0.557171
O17   O     O_3   0.431050 0.949630 0.991510 -0.366338
V3    V     V_3+5 0.708490 0.009340 0.001580 1.554453
O18   O     O_R   0.096270 0.930570 0.059390 -0.518932
C59   C     C_R   0.927050 0.913014 0.078980 0.745054
O19   O     O_R   0.089600 0.906290 0.912460 -0.551530
C60   C     C_R   0.919665 0.882552 0.885719 0.657362
V4    V     V_3+5 0.207670 0.990600 0.998190 1.511271
O20   O     O_3   0.935250 0.050360 0.008480 -0.355687
Cl1   Cl    Cl    0.820929 0.740780 0.539193 -0.710832
N1    N     N_2   0.205495 0.128099 0.445247 -0.516885
H28   H     H_    0.222541 0.177369 0.491183 0.256931
C61   C     C_3   0.022016 0.087071 0.443095 -0.515299
H29   H     H_    0.996333 0.078156 0.495944 0.197082
H30   H     H_    0.021210 0.027096 0.400793 0.206816
H31   H     H_    0.903404 0.123525 0.432373 0.197612
Cl2   Cl    Cl    0.397211 0.000785 0.184751 -0.726516
Cl3   Cl    Cl    0.619351 0.233329 0.048536 -0.693770
Cl4   Cl    Cl    0.265672 0.699782 0.169329 -0.747384

loop_
_geom_bond_atom_site_label_1
_geom_bond_atom_site_label_2
_ccdc_geom_bond_type
O15   C59   A    
C28   H13   S    
C57   O16   A    
C55   H27   S    
O11   C58   A    
C34   Cl2   S    
C21   C22   A    
C6    H2    S    
C1    O6    A    
C48   H22   S    
C20   Cl1   S    
C25   C26   A    
C37   C58   S    
O14   V3    S    
C35   C36   A    
O13   V3    S    
O16   V4    S    
C5    C10   A    
C4    C7    S    
C6    C7    A    
C17   C18   A    
C45   C46   A    
C3    C23   S    
O5    C3    A    
C18   C19   A    
C17   H9    S    
C51   C52   A    
C11   C12   A    
O18   C59   A    
V2    O10   S    
C33   H17   S    
O19   C60   A    
C15   C16   A    
C22   C26   A    
C17   C22   A    
V4    O20   S    
C35   C37   A    
O12   C57   A    
O8    V2    S    
C49   H23   S    
C41   C42   A    
C61   H30   S    
C43   C44   A    
O1    V2    S    
H15   C43   S    
O7    V1    S    
C24   C27   A    
O12   V3    S    
C61   H31   S    
C39   C40   A    
V3    O20   S    
C32   C33   A    
C55   C56   A    
O13   C60   A    
O1    C2    A    
O9    C4    A    
C21   C23   A    
C42   C43   A    
O17   V3    S    
C48   C49   A    
O15   V3    S    
C36   C40   A    
C27   C28   A    
C9    H4    S    
C54   H26   S    
O4    C2    A    
C51   H24   S    
C11   C16   A    
C31   C32   A    
O11   V4    S    
C30   H14   S    
C33   C34   A    
C14   C15   A    
O2    C1    A    
C23   C24   A    
C12   H6    S    
C54   C55   A    
C39   C44   A    
C32   N1    S    
C38   C41   A    
O14   C58   A    
C5    H1    S    
C42   H18   S    
C45   H20   S    
O3    C4    A    
C27   H12   S    
C20   C21   A    
C49   C50   A    
C52   C53   A    
C38   C39   A    
O6    V2    S    
O9    V2    S    
C8    C9    A    
O2    V1    S    
C53   C57   S    
C19   C20   A    
C24   C25   A    
O17   V4    S    
N1    H28   S    
O18   V4    S    
C31   C36   A    
C28   C29   A    
C46   H21   S    
C13   C59   S    
C13   C14   A    
C9    C10   A    
C47   C48   A    
O5    V1    S    
C1    C40   S    
O8    C3    A    
C15   Cl4   S    
C14   H7    S    
O7    V2    S    
O4    V1    S    
C12   C13   A    
O3    V1    S    
V1    O10   S    
C41   Cl3   S    
C44   H19   S    
C50   C56   S    
C31   H16   S    
C53   C54   A    
C19   H11   S    
C25   C30   A    
C37   C38   A    
C5    C6    A    
O19   V4    S    
C46   C47   A    
C34   C35   A    
C51   C56   A    
C10   C16   S    
C18   H10   S    
C52   H25   S    
C29   C30   A    
C26   C60   S    
C11   H5    S    
C8    H3    S    
C7    C8    A    
C45   C50   A    
H8    C29   S    
C61   H29   S    
C2    C47   S    
N1    C61   S    
