data_mof_unit_65406.cif
_audit_creation_date              2012-12-10T19:46:38-0500
_audit_creation_method            fapswitch 2.2
_symmetry_space_group_name_H-M    P1
_symmetry_Int_Tables_number       1
_space_group_crystal_system       triclinic
_cell_length_a                    18.489641
_cell_length_b                    18.489676
_cell_length_c                    32.796603
_cell_angle_alpha                 89.999945
_cell_angle_beta                  89.999522
_cell_angle_gamma                 90.020864
_cell_volume                      11212.0909959

loop_
_atom_site_label
_atom_site_type_symbol
_atom_type_description
_atom_site_fract_x
_atom_site_fract_y
_atom_site_fract_z
_atom_type_partial_charge
C1    C     C_R   0.500000 0.000000 0.896028 0.797344
C2    C     C_1   0.500000 0.000000 0.768817 0.001979
C3    C     C_3   0.297182 0.356125 0.452405 -0.043870
C4    C     C_3   0.643882 0.702827 0.452399 -0.043878
C5    C     C_3   0.685912 0.372808 0.483220 -0.043191
C6    C     C_3   0.356124 0.297203 0.452416 -0.043948
C7    C     C_3   0.314041 0.627227 0.483012 -0.043160
C8    C     C_1   0.500000 1.000000 0.149182 -0.161462
C9    C     C_1   0.999999 0.500000 0.149182 -0.161463
C10   C     C_1   1.000000 0.500000 0.649182 -0.161466
C11   C     C_1   0.499999 0.000000 0.649182 -0.161467
C12   C     C_1   0.500000 1.000000 0.186790 -0.014108
C13   C     C_1   0.500000 1.000000 0.268817 0.001975
C14   C     C_1   1.000000 0.500000 0.186790 -0.014108
C15   C     C_1   1.000000 0.500000 0.686790 -0.014108
C16   C     C_1   0.500000 0.000000 0.686790 -0.014108
C17   C     C_3   0.073300 0.814106 0.947775 -0.830131
C18   C     C_3   0.225332 0.112805 0.910916 -0.824532
C19   C     C_3   0.926628 0.185964 0.947671 -0.830089
C20   C     C_3   0.774664 0.887187 0.910912 -0.824554
C21   C     C_3   0.112814 0.225336 0.910913 -0.824561
C22   C     C_3   0.185894 0.926701 0.947775 -0.830131
C23   C     C_3   0.887196 0.774667 0.910915 -0.824538
C24   C     C_1   0.000000 0.500000 0.268817 0.001975
C25   C     C_3   0.814036 0.073369 0.947677 -0.830091
C26   C     C_3   0.573424 0.313984 0.447588 -0.830032
C27   C     C_3   0.725414 0.612871 0.410874 -0.824535
C28   C     C_3   0.426430 0.686168 0.447340 -0.829901
C29   C     C_3   0.274573 0.387087 0.410856 -0.824621
C30   C     C_3   0.612929 0.725441 0.410848 -0.824622
C31   C     C_3   0.686017 0.426576 0.447587 -0.830028
C32   C     C_3   0.387134 0.274596 0.410877 -0.824538
C33   C     C_3   0.313820 0.573604 0.447309 -0.829916
C34   C     C_1   1.000000 0.500000 0.813238 -0.013641
C35   C     C_1   0.500000 0.000000 0.813238 -0.013641
C36   C     C_1   0.500000 0.000000 0.313238 -0.013648
C37   C     C_1   0.000001 0.500000 0.313238 -0.013648
C38   C     C_1   1.000000 0.500000 0.850844 -0.163284
C39   C     C_1   0.500001 0.000000 0.850844 -0.163284
C40   C     C_1   0.500000 0.000000 0.350844 -0.163301
C41   C     C_R   1.000000 0.500000 0.896027 0.797342
C42   C     C_1   0.000001 0.500000 0.350844 -0.163301
C43   C     C_R   0.500000 1.000000 0.103995 0.786416
C44   C     C_R   1.000000 0.500000 0.103995 0.786417
C45   C     C_R   1.000000 0.500000 0.603995 0.786417
C46   C     C_R   0.500000 0.000000 0.603995 0.786418
C47   C     C_R   0.640456 0.859291 0.999903 0.824590
C48   C     C_R   0.140407 0.640725 0.000098 0.824836
C49   C     C_R   0.359544 0.140709 0.999903 0.824587
C50   C     C_R   0.859592 0.359276 0.000098 0.824846
C51   C     C_R   0.640724 0.140408 0.000098 0.824847
C52   C     C_R   0.000000 0.500000 0.396028 0.797354
C53   C     C_R   0.140709 0.359544 0.999903 0.824587
C54   C     C_R   0.359275 0.859593 0.000098 0.824835
C55   C     C_R   0.859291 0.640456 0.999903 0.824588
C56   C     C_R   0.140455 0.359290 0.499902 0.824596
C57   C     C_R   0.640407 0.140724 0.500098 0.824848
C58   C     C_R   0.859544 0.640708 0.499904 0.824602
C59   C     C_R   0.359595 0.859272 0.500099 0.824872
C60   C     C_R   0.140726 0.640406 0.500097 0.824862
C61   C     C_R   0.640710 0.859546 0.499902 0.824585
C62   C     C_R   0.859276 0.359592 0.500098 0.824848
C63   C     C_R   0.500000 0.000000 0.396028 0.797351
C64   C     C_R   0.359292 0.140457 0.499904 0.824606
C65   C     C_R   0.239876 0.813153 0.977882 0.093218
C66   C     C_R   0.200947 0.253803 0.967369 0.086274
C67   C     C_R   0.760096 0.186876 0.977852 0.093198
C68   C     C_R   0.799054 0.746197 0.967369 0.086286
C69   C     C_R   0.253803 0.200946 0.967370 0.086283
C70   C     C_R   0.186847 0.760124 0.977882 0.093215
C71   C     C_R   0.746197 0.799053 0.967369 0.086272
C72   C     C_R   0.813124 0.239905 0.977851 0.093197
C73   C     C_R   0.739925 0.313104 0.477826 0.093185
C74   C     C_1   0.500000 1.000000 0.231212 0.001636
C75   C     C_R   0.700977 0.753833 0.467355 0.086228
C76   C     C_R   0.260016 0.686958 0.477749 0.093137
C77   C     C_R   0.299034 0.246178 0.467361 0.086273
C78   C     C_R   0.753827 0.700970 0.467359 0.086274
C79   C     C_R   0.686896 0.260076 0.477826 0.093184
C80   C     C_R   0.246173 0.299029 0.467358 0.086230
C81   C     C_R   0.313048 0.739982 0.477753 0.093172
C82   C     C_R   0.305637 0.802037 0.997987 -0.113303
C83   C     C_R   0.199630 0.307406 0.997450 -0.111337
C84   C     C_R   0.694357 0.197968 0.997986 -0.113309
C85   C     C_1   1.000000 0.500000 0.231211 0.001636
C86   C     C_R   0.800369 0.692593 0.997449 -0.111336
C87   C     C_R   0.307405 0.199630 0.997451 -0.111335
C88   C     C_R   0.197963 0.694363 0.997987 -0.113302
C89   C     C_R   0.692593 0.800368 0.997449 -0.111337
C90   C     C_R   0.802032 0.305643 0.997985 -0.113308
C91   C     C_R   0.805644 0.302031 0.497984 -0.113313
C92   C     C_R   0.699635 0.807412 0.497448 -0.111327
C93   C     C_R   0.194355 0.697970 0.497980 -0.113328
C94   C     C_R   0.300372 0.192597 0.497453 -0.111328
C95   C     C_R   0.807405 0.699630 0.497453 -0.111328
C96   C     C_1   1.000000 0.500000 0.731212 0.001639
C97   C     C_R   0.697969 0.194356 0.497984 -0.113313
C98   C     C_R   0.192591 0.300368 0.497450 -0.111330
C99   C     C_R   0.302034 0.805642 0.497984 -0.113330
C100  C     C_R   0.320129 0.733392 0.014554 -0.215189
C101  C     C_R   0.259035 0.312538 0.024137 -0.216917
C102  C     C_R   0.679881 0.266596 0.014580 -0.215192
C103  C     C_R   0.740961 0.687458 0.024134 -0.216919
C104  C     C_R   0.312537 0.259035 0.024137 -0.216919
C105  C     C_R   0.266608 0.679870 0.014554 -0.215189
C106  C     C_R   0.687458 0.740961 0.024134 -0.216916
C107  C     C_1   0.500000 0.000000 0.731212 0.001639
C108  C     C_R   0.733403 0.320118 0.014580 -0.215195
C109  C     C_R   0.820104 0.233417 0.514600 -0.215197
C110  C     C_R   0.759020 0.812524 0.524151 -0.216904
C111  C     C_R   0.179943 0.766538 0.514669 -0.215218
C112  C     C_R   0.240982 0.187480 0.524153 -0.216910
C113  C     C_R   0.812521 0.759018 0.524152 -0.216910
C114  C     C_R   0.766583 0.179895 0.514600 -0.215197
C115  C     C_R   0.187477 0.240981 0.524151 -0.216905
C116  C     C_R   0.233464 0.820056 0.514671 -0.215225
C117  C     C_3   0.127157 0.814124 0.983365 -0.043206
C118  C     C_1   1.000000 0.500000 0.768817 0.001979
C119  C     C_3   0.202769 0.143839 0.952456 -0.043944
C120  C     C_3   0.872822 0.185899 0.983287 -0.043195
C121  C     C_3   0.797229 0.856161 0.952454 -0.043918
C122  C     C_3   0.143839 0.202772 0.952454 -0.043917
C123  C     C_3   0.185875 0.872843 0.983365 -0.043208
C124  C     C_3   0.856161 0.797231 0.952455 -0.043946
C125  C     C_3   0.814103 0.127180 0.983289 -0.043201
C126  C     C_3   0.627192 0.314088 0.483221 -0.043195
C127  C     C_3   0.702802 0.643883 0.452411 -0.043939
C128  C     C_3   0.372767 0.685944 0.483025 -0.043198
H1    H     H_    0.371800 0.721818 0.028671 0.173253
H2    H     H_    0.762368 0.855660 0.546414 0.174654
H3    H     H_    0.128342 0.778047 0.528885 0.173320
H4    H     H_    0.237633 0.144342 0.546415 0.174653
H5    H     H_    0.855657 0.762366 0.546415 0.174654
H6    H     H_    0.778129 0.128254 0.528758 0.173283
H7    H     H_    0.144339 0.237631 0.546414 0.174654
H8    H     H_    0.221955 0.871656 0.528887 0.173322
H9    H     H_    0.099969 0.808644 0.013485 0.129360
H10   H     H_    0.192897 0.101140 0.975713 0.139444
H11   H     H_    0.900051 0.191342 0.013397 0.129368
H12   H     H_    0.262398 0.355690 0.046390 0.174657
H13   H     H_    0.807096 0.898865 0.975708 0.139456
H14   H     H_    0.101134 0.192906 0.975709 0.139459
H15   H     H_    0.191354 0.900030 0.013485 0.129360
H16   H     H_    0.898861 0.807101 0.975712 0.139445
H17   H     H_    0.808663 0.099956 0.013400 0.129368
H18   H     H_    0.599931 0.308682 0.513324 0.129375
H19   H     H_    0.692893 0.601169 0.475654 0.139462
H20   H     H_    0.400122 0.691229 0.513107 0.129388
H21   H     H_    0.307061 0.398866 0.475637 0.139514
H22   H     H_    0.601137 0.692949 0.475628 0.139505
H23   H     H_    0.628227 0.278155 0.028719 0.173267
H24   H     H_    0.691317 0.400069 0.513323 0.129374
H25   H     H_    0.398839 0.307107 0.475658 0.139463
H26   H     H_    0.308736 0.599843 0.513085 0.129395
H27   H     H_    0.035892 0.767656 0.951068 0.260327
H28   H     H_    0.040498 0.864358 0.948421 0.232524
H29   H     H_    0.100986 0.809384 0.917843 0.248736
H30   H     H_    0.270573 0.074146 0.914961 0.259622
H31   H     H_    0.179246 0.083104 0.897125 0.237235
H32   H     H_    0.243834 0.155738 0.889664 0.245149
H33   H     H_    0.964039 0.232411 0.950966 0.260345
H34   H     H_    0.737594 0.644303 0.046385 0.174657
H35   H     H_    0.959432 0.135712 0.948282 0.232526
H36   H     H_    0.898899 0.190724 0.917755 0.248721
H37   H     H_    0.729418 0.925841 0.914956 0.259609
H38   H     H_    0.820747 0.916891 0.897120 0.237232
H39   H     H_    0.756167 0.844249 0.889661 0.245151
H40   H     H_    0.083103 0.179255 0.897123 0.237224
H41   H     H_    0.074165 0.270587 0.914955 0.259613
H42   H     H_    0.155752 0.243824 0.889660 0.245156
H43   H     H_    0.135643 0.959505 0.948423 0.232523
H44   H     H_    0.232345 0.964107 0.951068 0.260325
H45   H     H_    0.355689 0.262398 0.046390 0.174657
H46   H     H_    0.190613 0.899016 0.917843 0.248738
H47   H     H_    0.916911 0.820748 0.897128 0.237231
H48   H     H_    0.925844 0.729416 0.914960 0.259629
H49   H     H_    0.844262 0.756179 0.889660 0.245154
H50   H     H_    0.864290 0.040566 0.948287 0.232527
H51   H     H_    0.767591 0.035957 0.950974 0.260343
H52   H     H_    0.809272 0.101093 0.917759 0.248723
H53   H     H_    0.540624 0.364240 0.448168 0.232517
H54   H     H_    0.601185 0.309184 0.417682 0.248706
H55   H     H_    0.536003 0.267546 0.450887 0.260340
H56   H     H_    0.278182 0.628199 0.028671 0.173254
H57   H     H_    0.770638 0.574197 0.414931 0.259603
H58   H     H_    0.679338 0.583191 0.397058 0.237216
H59   H     H_    0.743956 0.655812 0.389639 0.245146
H60   H     H_    0.463894 0.732566 0.450666 0.260354
H61   H     H_    0.459201 0.635891 0.447822 0.232506
H62   H     H_    0.398584 0.691109 0.417467 0.248681
H63   H     H_    0.229307 0.425720 0.414894 0.259576
H64   H     H_    0.320631 0.416799 0.397042 0.237196
H65   H     H_    0.256085 0.344114 0.389626 0.245163
H66   H     H_    0.583213 0.679388 0.397033 0.237202
H67   H     H_    0.644303 0.737595 0.046385 0.174657
H68   H     H_    0.574303 0.770713 0.414885 0.259589
H69   H     H_    0.655909 0.743922 0.389620 0.245159
H70   H     H_    0.635761 0.459376 0.448167 0.232515
H71   H     H_    0.732455 0.463997 0.450886 0.260340
H72   H     H_    0.690816 0.398815 0.417682 0.248705
H73   H     H_    0.416816 0.320671 0.397062 0.237215
H74   H     H_    0.425806 0.229368 0.414932 0.259602
H75   H     H_    0.344191 0.256058 0.389642 0.245149
H76   H     H_    0.364078 0.540805 0.447793 0.232511
H77   H     H_    0.267396 0.536166 0.450607 0.260377
H78   H     H_    0.721844 0.371773 0.028720 0.173266
H79   H     H_    0.308922 0.601490 0.417444 0.248671
H80   H     H_    0.871746 0.221870 0.528758 0.173282
O1    O     O_3   0.500000 0.000000 0.000010 -0.452950
O2    O     O_R   0.500000 0.939250 0.416010 -0.630493
O3    O     O_R   0.060750 0.500000 0.416010 -0.630498
O4    O     O_R   0.500000 0.060750 0.416010 -0.630467
O5    O     O_R   0.500000 0.939250 0.084010 -0.627234
O6    O     O_R   0.060750 0.500000 0.084010 -0.627233
O7    O     O_R   0.500000 0.060750 0.084010 -0.627236
O8    O     O_R   0.939250 0.500000 0.084010 -0.627237
O9    O     O_R   0.000000 0.439250 0.584010 -0.627237
O10   O     O_R   0.560750 0.000000 0.584010 -0.627235
O11   O     O_R   0.000000 0.560750 0.584010 -0.627243
O12   O     O_3   1.000000 0.500000 0.000010 -0.452950
O13   O     O_R   0.439250 0.000000 0.584010 -0.627246
O14   O     O_R   0.646150 0.914530 0.977990 -0.653867
O15   O     O_R   0.085470 0.646150 0.977990 -0.645998
O16   O     O_R   0.353850 0.085470 0.977990 -0.653869
O17   O     O_R   0.914530 0.353850 0.977990 -0.646015
O18   O     O_R   0.646150 0.085470 0.977990 -0.646016
O19   O     O_R   0.085470 0.353850 0.977990 -0.653867
O20   O     O_R   0.353850 0.914530 0.977990 -0.645999
O21   O     O_R   0.914530 0.646150 0.977990 -0.653873
O22   O     O_R   0.146150 0.414530 0.477990 -0.653856
O23   O     O_3   1.000000 0.500000 0.500010 -0.452938
O24   O     O_R   0.585470 0.146150 0.477990 -0.646024
O25   O     O_R   0.853850 0.585470 0.477990 -0.653864
O26   O     O_R   0.414530 0.853850 0.477990 -0.646031
O27   O     O_R   0.146150 0.585470 0.477990 -0.646054
O28   O     O_R   0.585470 0.853850 0.477990 -0.653866
O29   O     O_R   0.853850 0.414530 0.477990 -0.646023
O30   O     O_R   0.414530 0.146150 0.477990 -0.653864
O31   O     O_R   0.414550 0.146120 0.022030 -0.644139
O32   O     O_R   0.853880 0.414550 0.022030 -0.644297
O33   O     O_R   0.585450 0.853880 0.022030 -0.644139
O34   O     O_3   0.500000 0.000000 0.500010 -0.452940
O35   O     O_R   0.146120 0.585450 0.022030 -0.644293
O36   O     O_R   0.414550 0.853880 0.022030 -0.644293
O37   O     O_R   0.853880 0.585450 0.022030 -0.644138
O38   O     O_R   0.585450 0.146120 0.022030 -0.644295
O39   O     O_R   0.146120 0.414550 0.022030 -0.644139
O40   O     O_R   0.914550 0.646120 0.522030 -0.644133
O41   O     O_R   0.353880 0.914550 0.522030 -0.644301
O42   O     O_R   0.085450 0.353880 0.522030 -0.644135
O43   O     O_R   0.646120 0.085450 0.522030 -0.644295
O44   O     O_R   0.914550 0.353880 0.522030 -0.644296
O45   O     O_R   0.439250 0.000000 0.916010 -0.630453
O46   O     O_R   0.353880 0.085450 0.522030 -0.644132
O47   O     O_R   0.085450 0.646120 0.522030 -0.644293
O48   O     O_R   0.646120 0.914550 0.522030 -0.644134
O49   O     O_R   1.000000 0.439250 0.916010 -0.630463
O50   O     O_R   0.560750 0.000000 0.916010 -0.630464
O51   O     O_R   1.000000 0.560750 0.916010 -0.630454
O52   O     O_R   0.939250 0.500000 0.416010 -0.630467
Zn1   Zn    Zn3+2 0.500000 0.913220 0.031480 0.969941
Zn2   Zn    Zn3+2 0.000000 0.586740 0.968550 0.954388
Zn3   Zn    Zn3+2 0.413260 0.000000 0.968550 0.954388
Zn4   Zn    Zn3+2 0.000000 0.413260 0.968550 0.954375
Zn5   Zn    Zn3+2 0.086740 0.500000 0.468550 0.954341
Zn6   Zn    Zn3+2 0.500000 0.086740 0.468550 0.954370
Zn7   Zn    Zn3+2 0.913260 0.500000 0.468550 0.954368
Zn8   Zn    Zn3+2 0.500000 0.913260 0.468550 0.954347
Zn9   Zn    Zn3+2 0.086780 0.500000 0.031480 0.969942
Zn10  Zn    Zn3+2 0.500000 0.086780 0.031480 0.969940
Zn11  Zn    Zn3+2 0.913220 0.500000 0.031480 0.969941
Zn12  Zn    Zn3+2 1.000000 0.413220 0.531480 0.969947
Zn13  Zn    Zn3+2 0.586780 0.000000 0.531480 0.969946
Zn14  Zn    Zn3+2 1.000000 0.586780 0.531480 0.969948
Zn15  Zn    Zn3+2 0.413220 0.000000 0.531480 0.969947
Zn16  Zn    Zn3+2 0.586740 0.000000 0.968550 0.954376

loop_
_geom_bond_atom_site_label_1
_geom_bond_atom_site_label_2
_ccdc_geom_bond_type
C2    C35   S    
C34   C118  S    
C6    C32   S    
C29   H65   S    
O27   Zn5   S    
C46   O10   A    
C12   C74   S    
O49   Zn4   S    
C68   C86   A    
C55   O21   A    
C5    H24   S    
C8    C43   S    
C56   C98   S    
C63   O4    A    
C49   O31   A    
O51   Zn2   S    
C70   C88   A    
C28   H61   S    
C68   C124  S    
C31   H71   S    
C110  H2    S    
C126  H18   S    
C25   H52   S    
C22   C123  S    
C30   H66   S    
O21   Zn2   S    
O1    Zn3   S    
C20   H37   S    
C33   H77   S    
C100  C105  A    
C40   C63   S    
O4    Zn6   S    
C44   O6    A    
O32   Zn11  S    
C96   C118  T    
O37   Zn11  S    
C95   C113  A    
O34   Zn15  S    
C1    O50   A    
O23   Zn7   S    
C10   C15   T    
C28   H60   S    
C51   C84   S    
C19   H33   S    
O39   Zn9   S    
O44   Zn12  S    
C119  C122  S    
C66   C69   A    
C23   H47   S    
C78   C127  S    
C70   C117  S    
C46   O13   A    
C21   H42   S    
C52   O52   A    
C2    C107  T    
O3    Zn5   S    
C84   C102  A    
C112  C115  A    
C41   O51   A    
C67   C72   A    
C27   H57   S    
C94   C112  A    
C32   H73   S    
C3    C29   S    
O12   Zn11  S    
C25   C125  S    
C121  C124  S    
O34   Zn6   S    
C18   H31   S    
O34   Zn13  S    
C16   C107  S    
C66   C83   A    
C27   C127  S    
C50   C90   S    
C92   C110  A    
C30   H68   S    
C13   C36   S    
C4    C75   S    
C56   O42   A    
C89   C106  A    
C59   O41   A    
C52   O3    A    
C29   H63   S    
C102  C108  A    
C111  C116  A    
O34   Zn8   S    
C7    C128  S    
C57   O43   A    
C17   H29   S    
C24   C85   T    
O8    Zn11  S    
C64   O30   A    
C22   H43   S    
C69   C87   A    
C61   C92   S    
C17   C117  S    
C102  H23   S    
C60   C93   S    
C58   O25   A    
C62   O44   A    
C65   C70   A    
C43   O7    A    
C67   C84   A    
C105  H56   S    
O33   Zn1   S    
O42   Zn12  S    
O15   Zn2   S    
C86   C103  A    
C47   C89   S    
O12   Zn4   S    
C60   O27   A    
O18   Zn16  S    
C51   O18   A    
C48   O35   A    
C3    C80   S    
C31   H72   S    
C22   H46   S    
C101  H12   S    
C1    O45   A    
O19   Zn4   S    
C37   C42   T    
O16   Zn3   S    
C64   O46   A    
C114  H6    S    
O12   Zn2   S    
C3    H21   S    
C7    C33   S    
O47   Zn14  S    
O50   Zn16  S    
O14   Zn16  S    
C121  H13   S    
C29   H64   S    
O30   Zn6   S    
C51   O38   A    
C73   C91   A    
C38   C41   S    
C108  H78   S    
C50   O17   A    
C15   C96   S    
C47   O33   A    
C9    C14   T    
C25   H50   S    
C128  H20   S    
C6    C77   S    
C27   H59   S    
C23   H48   S    
C81   C99   A    
C103  H34   S    
C69   C119  S    
C60   O47   A    
C61   O28   A    
O23   Zn14  S    
O5    Zn1   S    
C27   H58   S    
C54   O36   A    
C99   C116  A    
C5    C126  S    
C109  H80   S    
C35   C39   T    
C49   C87   S    
O35   Zn9   S    
O40   Zn14  S    
C18   H30   S    
C76   C93   A    
O25   Zn7   S    
C72   C90   A    
C11   C16   T    
C58   C95   S    
O26   Zn8   S    
C50   O32   A    
C71   C89   A    
C36   C40   T    
C78   C95   A    
C8    C12   T    
O1    Zn16  S    
C57   C97   S    
C62   C91   S    
C72   C120  S    
C10   C45   S    
C48   C88   S    
C24   C37   S    
C73   C79   A    
O11   Zn14  S    
C56   O22   A    
C120  H11   S    
C19   H35   S    
C112  H4    S    
O52   Zn7   S    
C41   O49   A    
O12   Zn9   S    
C62   O29   A    
C110  C113  A    
C54   O20   A    
C20   C121  S    
C7    C76   S    
C109  C114  A    
C93   C111  A    
C26   H54   S    
C111  H3    S    
O1    Zn10  S    
C47   O14   A    
C19   C120  S    
C101  C104  A    
C79   C126  S    
O23   Zn5   S    
C81   C128  S    
C45   O11   A    
O48   Zn13  S    
C59   O26   A    
C122  H14   S    
C63   O2    A    
C103  C106  A    
C17   H27   S    
C75   C92   A    
C54   C82   S    
C4    H22   S    
O29   Zn7   S    
O41   Zn15  S    
C21   C122  S    
C77   C80   A    
C57   O24   A    
C20   H39   S    
C42   C52   S    
C33   H79   S    
C9    C44   S    
O2    Zn8   S    
C83   C101  A    
O31   Zn10  S    
C80   C98   A    
C34   C38   T    
C119  H10   S    
C21   H40   S    
C79   C97   A    
C5    C73   S    
C117  H9    S    
O43   Zn13  S    
C14   C85   S    
C61   O48   A    
O38   Zn10  S    
C28   H62   S    
C76   C81   A    
O46   Zn15  S    
C25   H51   S    
O1    Zn1   S    
C104  H45   S    
C116  H8    S    
C48   O15   A    
O10   Zn13  S    
O9    Zn12  S    
C20   H38   S    
C33   H76   S    
C53   C83   S    
C82   C100  A    
C91   C109  A    
C32   H75   S    
C67   C125  S    
C117  C123  S    
C106  H67   S    
C64   C94   S    
C49   O16   A    
C125  H17   S    
C26   H55   S    
C88   C105  A    
C17   H28   S    
C22   H44   S    
O45   Zn3   S    
C65   C82   A    
C100  H1    S    
C7    H26   S    
C115  H7    S    
C55   C86   S    
C68   C71   A    
C21   H41   S    
C59   C99   S    
C18   C119  S    
O20   Zn3   S    
C58   O40   A    
C120  C125  S    
O24   Zn6   S    
O13   Zn15  S    
C98   C115  A    
C19   H36   S    
C65   C123  S    
O7    Zn10  S    
C32   H74   S    
C66   C122  S    
C75   C78   A    
C4    C30   S    
C23   H49   S    
C6    H25   S    
C18   H32   S    
C1    C39   S    
C90   C108  A    
C87   C104  A    
C26   H53   S    
C71   C121  S    
C30   H69   S    
C13   C74   T    
O6    Zn9   S    
C55   O37   A    
C3    C6    S    
C123  H15   S    
C53   O39   A    
O28   Zn8   S    
O23   Zn12  S    
C26   C126  S    
C77   C94   A    
C124  H16   S    
C11   C46   S    
C113  H5    S    
O36   Zn1   S    
O17   Zn4   S    
C97   C114  A    
C23   C124  S    
C44   O8    A    
C4    C127  S    
C31   H70   S    
C53   O19   A    
C45   O9    A    
C28   C128  S    
C127  H19   S    
C5    C31   S    
O22   Zn5   S    
C43   O5    A    
