data_mof_unit_45264.cif
_audit_creation_date              2012-10-26T19:41:52-0400
_audit_creation_method            fapswitch 2.2
_symmetry_space_group_name_H-M    P1
_symmetry_Int_Tables_number       1
_space_group_crystal_system       triclinic
_cell_length_a                    10.609768
_cell_length_b                    10.759864
_cell_length_c                    9.611079
_cell_angle_alpha                 89.971655
_cell_angle_beta                  89.889661
_cell_angle_gamma                 92.756868
_cell_volume                      1095.92543098

loop_
_atom_site_label
_atom_site_type_symbol
_atom_type_description
_atom_site_fract_x
_atom_site_fract_y
_atom_site_fract_z
_atom_type_partial_charge
C1    C     C_R   0.496970 0.262692 0.499953 0.581957
C2    C     C_R   0.390230 0.060408 0.566410 -0.024893
C3    C     C_R   0.490363 0.128389 0.499129 0.005890
C4    C     C_R   0.259441 0.499408 0.500225 0.532651
C5    C     C_R   0.583855 0.067937 0.425394 0.228046
C6    C     C_R   0.583944 0.939099 0.428192 -0.145384
C7    C     C_R   0.489538 0.870360 0.499364 -0.037081
C8    C     C_R   0.668394 0.665179 0.143519 -0.094892
C9    C     C_R   0.750772 0.745966 0.071239 -0.183561
C10   C     C_R   0.750803 0.746066 0.927829 -0.174334
C11   C     C_R   0.668376 0.665438 0.855783 -0.080684
C12   C     C_3   0.959543 0.501042 0.367658 -0.112910
C13   C     C_R   0.582759 0.581245 0.925053 0.158558
C14   C     C_R   0.582760 0.581157 0.074555 0.153073
C15   C     C_R   0.421625 0.422359 0.074056 -0.013526
C16   C     C_R   0.497179 0.737029 0.499910 0.526371
C17   C     C_R   0.421568 0.422465 0.926244 -0.013920
C18   C     C_R   0.740497 0.500200 0.499789 0.555107
C19   C     C_3   0.040268 0.498644 0.632477 -0.122389
C20   C     C_3   0.952496 0.397116 0.564755 -0.110910
C21   C     C_3   0.877441 0.500103 0.499193 0.052217
C22   C     C_3   0.962899 0.601637 0.566808 -0.135702
C23   C     C_3   0.036900 0.398034 0.433362 -0.120420
C24   C     C_3   0.047317 0.602577 0.435420 -0.126122
C25   C     C_3   0.667050 0.128091 0.215247 0.023753
C26   C     C_3   0.750166 0.230829 0.146582 -0.253996
C27   C     C_3   0.736873 0.228557 0.988442 -0.479230
C28   C     C_3   0.122406 0.499565 0.500936 0.040798
C29   C     C_R   0.288434 0.119761 0.629369 -0.114884
C30   C     C_R   0.189352 0.050200 0.691605 -0.122757
C31   C     C_R   0.188891 0.920888 0.691258 -0.122570
C32   C     C_R   0.287588 0.860421 0.628809 -0.093150
C33   C     C_R   0.389726 0.929117 0.566241 0.014902
Cu1   Cu    Cu3+1 0.499990 0.499990 0.640660 0.906702
Cu2   Cu    Cu3+1 0.500010 0.500010 0.359340 0.913396
H1    H     H_    0.910480 0.313136 0.617584 0.122048
H2    H     H_    0.357257 0.358808 0.871295 0.110488
H3    H     H_    0.075914 0.497659 0.740990 0.117528
H4    H     H_    0.929426 0.684842 0.621378 0.094741
H5    H     H_    0.089399 0.686647 0.382848 0.113814
H6    H     H_    0.923706 0.502035 0.259194 0.116072
H7    H     H_    0.070319 0.314734 0.378960 0.106814
H8    H     H_    0.282752 0.219822 0.628842 0.122195
H9    H     H_    0.111889 0.096853 0.738867 0.103745
H10   H     H_    0.567283 0.140521 0.183200 0.138107
H11   H     H_    0.696937 0.036104 0.177933 0.126588
H12   H     H_    0.111084 0.867122 0.738247 0.103387
H13   H     H_    0.722640 0.322826 0.185648 0.207376
H14   H     H_    0.850481 0.218985 0.174626 0.158799
H15   H     H_    0.766538 0.138401 0.946265 0.145088
H16   H     H_    0.797610 0.304791 0.942206 0.149812
H17   H     H_    0.637528 0.242267 0.958147 0.164916
H18   H     H_    0.281562 0.759880 0.627997 0.141588
H19   H     H_    0.659695 0.892540 0.377055 0.108646
H20   H     H_    0.357384 0.358606 0.129286 0.111478
H21   H     H_    0.676093 0.672971 0.253195 0.178833
H22   H     H_    0.815017 0.809107 0.127256 0.111823
H23   H     H_    0.815139 0.809249 0.871637 0.110066
H24   H     H_    0.676027 0.673540 0.746050 0.180784
N1    N     N_R   0.501210 0.501210 0.147910 -0.247701
N2    N     N_R   0.501250 0.501290 0.852040 -0.243583
O1    O     O_R   0.499990 0.319640 0.618810 -0.507977
O2    O     O_R   0.500000 0.319660 0.381240 -0.487078
O3    O     O_R   0.316850 0.499960 0.618770 -0.519192
O4    O     O_R   0.316860 0.499980 0.381190 -0.499941
O5    O     O_R   0.500000 0.680340 0.618760 -0.521396
O6    O     O_R   0.500010 0.680360 0.381190 -0.516090
O7    O     O_R   0.683140 0.500020 0.618810 -0.518346
O8    O     O_R   0.683150 0.500040 0.381230 -0.529443
O9    O     O_3   0.681540 0.136370 0.361222 -0.564092

loop_
_geom_bond_atom_site_label_1
_geom_bond_atom_site_label_2
_ccdc_geom_bond_type
Cu2   O2    S    
C27   H17   S    
C20   C23   S    
C23   C28   S    
C5    O9    S    
C25   O9    S    
C19   H3    S    
C26   H13   S    
C18   C21   S    
C14   N1    A    
C15   N1    A    
C4    O3    A    
C19   C20   S    
C27   H15   S    
Cu2   O6    S    
C3    C5    A    
C17   N2    A    
C32   C33   A    
Cu1   O5    S    
C18   O8    A    
Cu1   O3    S    
C2    C3    A    
C16   O6    A    
C31   H12   S    
C13   C14   A    
C29   H8    S    
C19   C28   S    
C11   C13   A    
C12   C23   S    
C30   H9    S    
C26   C27   S    
C29   C30   A    
C23   H7    S    
C12   C21   S    
C6    H19   S    
C2    C29   A    
C5    C6    A    
C22   H4    S    
C1    O2    A    
C2    C33   A    
C7    C16   S    
C24   H5    S    
C27   H16   S    
C6    C7    A    
C9    H22   S    
C30   C31   A    
C22   C24   S    
C16   O5    A    
C10   C11   A    
C17   H2    S    
C18   O7    A    
C20   H1    S    
C25   H10   S    
C32   H18   S    
Cu1   O1    S    
C19   C22   S    
C13   N2    A    
C20   C21   S    
Cu2   O8    S    
C1    O1    A    
Cu1   Cu2   S    
C9    C10   A    
C26   H14   S    
Cu1   O7    S    
C15   C17   A    
C7    C33   A    
Cu2   O4    S    
C4    O4    A    
C8    C9    A    
C8    C14   A    
C12   C24   S    
C10   H23   S    
C25   C26   S    
C21   C22   S    
C4    C28   S    
C25   H11   S    
Cu1   N2    S    
C11   H24   S    
C12   H6    S    
C31   C32   A    
C8    H21   S    
C24   C28   S    
Cu2   N1    S    
C1    C3    S    
C15   H20   S    
