data_mof_unit_40395.cif
_audit_creation_date              2013-03-05T15:51:59-0500
_audit_creation_method            fapswitch 2.2
_symmetry_space_group_name_H-M    P1
_symmetry_Int_Tables_number       1
_space_group_crystal_system       triclinic
_cell_length_a                    18.887611
_cell_length_b                    11.028703
_cell_length_c                    18.6649
_cell_angle_alpha                 90.216901
_cell_angle_beta                  91.438329
_cell_angle_gamma                 89.783915
_cell_volume                      3886.72873834

loop_
_atom_site_label
_atom_site_type_symbol
_atom_site_description
_atom_site_fract_x
_atom_site_fract_y
_atom_site_fract_z
_atom_type_partial_charge
O1    O     O_R   0.214300 0.709080 0.827500 -0.532823
O2    O     O_R   0.785700 0.709080 0.172500 -0.549147
O3    O     O_R   0.714300 0.209080 0.827500 -0.546513
O4    O     O_R   0.285700 0.209080 0.172500 -0.534491
O5    O     O_R   0.236190 0.958390 0.823150 -0.512434
O6    O     O_R   0.763810 0.958390 0.176850 -0.484604
O7    O     O_R   0.736190 0.458390 0.823150 -0.488322
O8    O     O_R   0.263810 0.458390 0.176850 -0.513916
C1    C     C_R   0.274410 0.037571 0.855208 0.580556
C2    C     C_R   0.711475 0.001898 0.138593 0.554897
C3    C     C_R   0.787789 0.504224 0.861272 0.535815
C4    C     C_R   0.224583 0.534877 0.143867 0.579371
O9    O     O_R   0.332090 0.075280 0.831290 -0.467417
O10   O     O_R   0.667910 0.075280 0.168710 -0.428602
O11   O     O_R   0.832090 0.575280 0.831290 -0.439259
O12   O     O_R   0.167910 0.575280 0.168710 -0.467214
O13   O     O_R   0.446280 0.918040 0.826620 -0.502590
O14   O     O_R   0.553720 0.918040 0.173380 -0.524707
O15   O     O_R   0.946280 0.418040 0.826620 -0.510885
O16   O     O_R   0.053720 0.418040 0.173380 -0.508998
C5    C     C_R   0.470045 0.821249 0.855533 0.568922
C6    C     C_R   0.529278 0.821478 0.144809 0.537761
C7    C     C_R   0.939596 0.317194 0.862256 0.525045
C8    C     C_R   0.028527 0.321259 0.145509 0.555993
O17   O     O_R   0.457080 0.716270 0.831760 -0.504482
O18   O     O_R   0.542920 0.716270 0.168240 -0.508906
O19   O     O_R   0.957080 0.216270 0.831760 -0.498779
O20   O     O_R   0.042920 0.216270 0.168240 -0.511609
O21   O     O_R   0.320980 0.624440 0.823040 -0.475751
O22   O     O_R   0.679020 0.624440 0.176960 -0.474265
O23   O     O_R   0.820980 0.124440 0.823040 -0.490446
O24   O     O_R   0.179020 0.124440 0.176960 -0.476057
C9    C     C_R   0.260727 0.635884 0.850963 0.574705
C10   C     C_R   0.739559 0.635390 0.149136 0.556475
C11   C     C_R   0.760413 0.135434 0.850902 0.549894
C12   C     C_R   0.239065 0.136295 0.148767 0.570450
O25   O     O_R   0.213880 0.710510 0.665560 -0.502353
O26   O     O_R   0.786120 0.710510 0.334440 -0.536156
O27   O     O_R   0.713880 0.210510 0.665560 -0.529828
O28   O     O_R   0.286120 0.210510 0.334440 -0.507548
O29   O     O_R   0.235800 0.959720 0.673040 -0.514277
O30   O     O_R   0.764200 0.959720 0.326960 -0.452337
O31   O     O_R   0.735800 0.459720 0.673040 -0.481724
O32   O     O_R   0.264200 0.459720 0.326960 -0.511967
C13   C     C_R   0.269618 0.050946 0.648019 0.533003
C14   C     C_R   0.708112 0.994278 0.361094 0.588011
C15   C     C_R   0.772003 0.543120 0.645046 0.604539
C16   C     C_R   0.230388 0.551282 0.351913 0.543326
O33   O     O_R   0.331670 0.076720 0.669350 -0.535404
O34   O     O_R   0.668330 0.076720 0.330650 -0.496300
O35   O     O_R   0.831670 0.576720 0.669350 -0.528935
O36   O     O_R   0.168330 0.576720 0.330650 -0.527855
O37   O     O_R   0.445900 0.919370 0.676500 -0.486520
O38   O     O_R   0.554100 0.919370 0.323500 -0.531744
O39   O     O_R   0.945900 0.419370 0.676500 -0.516065
O40   O     O_R   0.054100 0.419370 0.323500 -0.516464
C17   C     C_R   0.437945 0.819308 0.639516 0.548702
C18   C     C_R   0.528069 0.822782 0.351630 0.528849
C19   C     C_R   0.970688 0.322599 0.647656 0.550947
C20   C     C_R   0.031309 0.324208 0.353628 0.566983
O41   O     O_R   0.456660 0.717710 0.669820 -0.484665
O42   O     O_R   0.543340 0.717710 0.330180 -0.470217
O43   O     O_R   0.956660 0.217710 0.669820 -0.468945
O44   O     O_R   0.043340 0.217710 0.330180 -0.516226
O45   O     O_R   0.320590 0.625770 0.672930 -0.502029
O46   O     O_R   0.679410 0.625770 0.327070 -0.491223
O47   O     O_R   0.820590 0.125770 0.672930 -0.493314
O48   O     O_R   0.179410 0.125770 0.327070 -0.491631
C21   C     C_R   0.274851 0.691418 0.636712 0.548236
C22   C     C_R   0.741759 0.633547 0.354280 0.551890
C23   C     C_R   0.757736 0.131504 0.645772 0.552290
C24   C     C_R   0.225057 0.191813 0.363341 0.566567
Cr1   Cr    Cr6+3 0.229640 0.835880 0.747370 1.033421
Cr2   Cr    Cr6+3 0.770360 0.835880 0.252630 1.043572
Cr3   Cr    Cr6+3 0.729640 0.335880 0.747370 1.044367
Cr4   Cr    Cr6+3 0.270360 0.335880 0.252630 1.037438
Cr5   Cr    Cr6+3 0.387390 0.989720 0.750850 1.048451
Cr6   Cr    Cr6+3 0.612610 0.989720 0.249150 1.058259
Cr7   Cr    Cr6+3 0.887390 0.489720 0.750850 1.056398
Cr8   Cr    Cr6+3 0.112610 0.489720 0.249150 1.040860
Cr9   Cr    Cr6+3 0.385770 0.677220 0.749340 1.064334
Cr10  Cr    Cr6+3 0.614230 0.677220 0.250660 1.096100
Cr11  Cr    Cr6+3 0.885770 0.177220 0.749340 1.098270
Cr12  Cr    Cr6+3 0.114230 0.177220 0.250660 1.060917
O49   O     O_3   0.334270 0.834280 0.749190 -0.321645
O50   O     O_3   0.665730 0.834280 0.250810 -0.326435
O51   O     O_3   0.834270 0.334280 0.749190 -0.314969
O52   O     O_3   0.165730 0.334280 0.250810 -0.299108
C25   C     C_3   0.469890 0.927456 0.028502 -0.126572
C26   C     C_3   0.528135 0.926077 0.971752 -0.127030
C27   C     C_3   0.962331 0.429958 0.034929 -0.126238
C28   C     C_3   0.012740 0.417227 0.971310 -0.110660
C29   C     C_3   0.428994 0.827933 0.986464 -0.111029
C30   C     C_3   0.568683 0.826141 0.013941 -0.107087
C31   C     C_3   0.911343 0.335310 0.000015 -0.141235
C32   C     C_3   0.052694 0.313478 0.010185 -0.112436
H1    H     H_    0.371353 0.828661 0.973089 0.128389
H2    H     H_    0.626337 0.824227 0.027097 0.114464
H3    H     H_    0.852802 0.340126 0.994518 0.132355
H4    H     H_    0.111157 0.305162 0.016175 0.124824
H5    H     H_    0.449339 0.009450 0.055007 0.115690
H6    H     H_    0.547658 0.006595 0.943653 0.117379
H7    H     H_    0.951809 0.515718 0.063392 0.119106
H8    H     H_    0.036815 0.493204 0.941924 0.126215
C33   C     C_3   0.488255 0.826560 0.931316 0.053464
C34   C     C_3   0.509565 0.827440 0.069264 0.054668
C35   C     C_3   0.962389 0.322968 0.937693 0.043423
C36   C     C_3   0.001427 0.326246 0.072292 0.055901
C37   C     C_3   0.527995 0.726460 0.972327 -0.114526
C38   C     C_3   0.469345 0.727910 0.028438 -0.120954
C39   C     C_3   0.002332 0.219083 0.975753 -0.110265
C40   C     C_3   0.951599 0.231664 0.038796 -0.115356
H9    H     H_    0.551784 0.645092 0.947317 0.124272
H10   H     H_    0.445792 0.648521 0.054675 0.121649
H11   H     H_    0.018785 0.132615 0.950625 0.121375
H12   H     H_    0.927291 0.156771 0.068901 0.136232
C41   C     C_R   0.236544 0.560775 0.069545 0.076805
C42   C     C_R   0.772332 0.538929 0.933721 0.058447
C43   C     C_R   0.726199 0.033834 0.065420 0.059428
C44   C     C_R   0.261444 0.067101 0.928948 0.076864
C45   C     C_R   0.302852 0.548565 0.039154 -0.030492
C46   C     C_R   0.704899 0.529013 0.962304 0.001502
C47   C     C_R   0.794113 0.027593 0.037490 -0.000189
C48   C     C_R   0.195418 0.053589 0.959738 -0.024455
C49   C     C_R   0.310691 0.567961 0.966414 0.006978
C50   C     C_R   0.694144 0.555229 0.033774 0.003399
C51   C     C_R   0.805208 0.055288 0.966328 -0.000593
C52   C     C_R   0.188146 0.070398 0.032824 0.005730
C53   C     C_R   0.184407 0.601145 0.952309 -0.144890
C54   C     C_R   0.817884 0.603996 0.049041 -0.159271
C55   C     C_R   0.680766 0.099098 0.949887 -0.149816
C56   C     C_R   0.313601 0.108823 0.045914 -0.158879
C57   C     C_R   0.177212 0.587369 0.025192 -0.094094
C58   C     C_R   0.827739 0.584195 0.976902 -0.117430
C59   C     C_R   0.670300 0.076280 0.021744 -0.115413
C60   C     C_R   0.320322 0.097267 0.972971 -0.099419
C61   C     C_3   0.351687 0.441515 0.039948 -0.254829
C62   C     C_3   0.654682 0.425028 0.961502 -0.252405
C63   C     C_3   0.845661 0.924985 0.037502 -0.253461
C64   C     C_3   0.145766 0.948396 0.956951 -0.249417
C65   C     C_3   0.363305 0.466622 0.961159 0.087312
C66   C     C_3   0.641560 0.454832 0.039738 0.078444
C67   C     C_3   0.859021 0.956275 0.959732 0.080679
C68   C     C_3   0.135723 0.969253 0.036622 0.087536
C69   C     C_R   0.251182 0.590305 0.922086 0.075801
C70   C     C_R   0.751462 0.585720 0.078963 0.066519
C71   C     C_R   0.748068 0.084908 0.920726 0.069078
C72   C     C_R   0.247859 0.092437 0.076969 0.072648
H13   H     H_    0.137890 0.623502 0.919813 0.129527
H14   H     H_    0.861879 0.638791 0.081023 0.131642
H15   H     H_    0.636514 0.132338 0.917552 0.132053
H16   H     H_    0.359611 0.135074 0.077936 0.128118
H17   H     H_    0.124491 0.594867 0.046405 0.159470
H18   H     H_    0.879828 0.599186 0.955649 0.157960
H19   H     H_    0.617949 0.089365 0.042919 0.151633
H20   H     H_    0.372699 0.108382 0.951626 0.167564
H21   H     H_    0.818661 0.837667 0.045467 0.170561
H22   H     H_    0.172868 0.861861 0.943747 0.181223
H23   H     H_    0.323246 0.355857 0.050478 0.178600
H24   H     H_    0.682438 0.338013 0.952477 0.169680
H25   H     H_    0.399692 0.456117 0.074392 0.113629
H26   H     H_    0.607737 0.441523 0.925764 0.120593
H27   H     H_    0.892151 0.941673 0.073791 0.116910
H28   H     H_    0.097402 0.967684 0.923845 0.115510
H29   H     H_    0.417602 0.499011 0.949786 0.115282
H30   H     H_    0.587015 0.488388 0.049670 0.113622
H31   H     H_    0.913245 0.990970 0.950617 0.108236
H32   H     H_    0.081667 0.001285 0.049973 0.114847
C73   C     C_R   0.488800 0.823423 0.417984 0.017906
C74   C     C_R   0.452028 0.824726 0.563138 0.033057
C75   C     C_R   0.011441 0.333002 0.427860 0.052771
C76   C     C_R   0.002705 0.325707 0.577795 0.012615
C77   C     C_R   0.488927 0.716434 0.458385 0.019240
C78   C     C_R   0.476532 0.721440 0.529845 -0.031580
C79   C     C_R   0.003637 0.224818 0.463576 -0.021714
C80   C     C_R   0.002017 0.219097 0.536612 0.014916
C81   C     C_R   0.433838 0.923701 0.518855 -0.158206
C82   C     C_R   0.454689 0.925543 0.446589 -0.157535
C83   C     C_R   0.019435 0.435067 0.543999 -0.167933
C84   C     C_R   0.022731 0.438663 0.468946 -0.160813
C85   C     C_3   0.544378 0.619875 0.470163 0.097501
C86   C     C_3   0.531956 0.631448 0.550498 0.096014
C87   C     C_3   0.950648 0.127433 0.450797 0.083270
C88   C     C_3   0.950186 0.115908 0.532340 0.106313
H33   H     H_    0.405448 0.998548 0.540341 0.109465
H34   H     H_    0.446580 0.006170 0.414565 0.123703
H35   H     H_    0.024005 0.518433 0.574501 0.120766
H36   H     H_    0.030654 0.523805 0.442874 0.118033
H37   H     H_    0.972547 0.050413 0.419741 0.159873
H38   H     H_    0.898702 0.137143 0.556670 0.151176
H39   H     H_    0.596746 0.649833 0.451999 0.144146
H40   H     H_    0.509871 0.551282 0.577860 0.148646
C89   C     C_R   0.258398 0.622115 0.412710 0.003299
C90   C     C_R   0.755260 0.577813 0.573022 0.061826
C91   C     C_R   0.714898 0.999904 0.439047 0.017743
C92   C     C_R   0.241583 0.121853 0.587355 0.000266
C93   C     C_R   0.217631 0.714081 0.443739 0.071733
C94   C     C_R   0.803449 0.651465 0.538433 0.065984
C95   C     C_R   0.659483 0.043033 0.480430 0.024168
C96   C     C_R   0.282174 0.213968 0.557083 0.079988
C97   C     C_R   0.224387 0.738270 0.516065 -0.012110
C98   C     C_R   0.803183 0.655562 0.465589 0.009913
C99   C     C_R   0.669104 0.065868 0.552436 0.053386
C100  C     C_R   0.276018 0.237112 0.484825 -0.006414
C101  C     C_R   0.327411 0.611842 0.523458 -0.140158
C102  C     C_R   0.705636 0.515558 0.458134 -0.148511
C103  C     C_R   0.786717 0.983915 0.549013 -0.121959
C104  C     C_R   0.171169 0.116082 0.476718 -0.134817
C105  C     C_R   0.320419 0.587148 0.449720 -0.147945
C106  C     C_R   0.704965 0.511433 0.532445 -0.111275
C107  C     C_R   0.776177 0.957241 0.475910 -0.098081
C108  C     C_R   0.179160 0.088584 0.550121 -0.147963
C109  C     C_3   0.139605 0.737582 0.443686 -0.031146
C110  C     C_3   0.883032 0.644075 0.540870 -0.056118
C111  C     C_3   0.604057 0.140508 0.471991 -0.020326
C112  C     C_3   0.359549 0.244600 0.559146 -0.037599
C113  C     C_3   0.146786 0.757529 0.523968 -0.178470
C114  C     C_3   0.881641 0.652980 0.460440 -0.218732
C115  C     C_3   0.612986 0.162290 0.552119 -0.181662
C116  C     C_3   0.353456 0.260167 0.478226 -0.183870
C117  C     C_R   0.274444 0.677631 0.558784 -0.010044
C118  C     C_R   0.755070 0.588156 0.424659 0.021453
C119  C     C_R   0.736734 0.055270 0.584640 0.034869
C120  C     C_R   0.225231 0.178941 0.441464 -0.009132
H41   H     H_    0.371742 0.573998 0.553188 0.167327
H42   H     H_    0.665526 0.468352 0.426870 0.193484
H43   H     H_    0.836739 0.960818 0.574841 0.175308
H44   H     H_    0.125810 0.080803 0.447087 0.183192
H45   H     H_    0.359798 0.533304 0.423290 0.166165
H46   H     H_    0.667129 0.453425 0.557845 0.163978
H47   H     H_    0.818676 0.914107 0.447436 0.160880
H48   H     H_    0.139960 0.034479 0.576051 0.177560
H49   H     H_    0.106227 0.659900 0.428436 0.149006
H50   H     H_    0.902954 0.556035 0.561485 0.164308
H51   H     H_    0.550788 0.107103 0.455757 0.154950
H52   H     H_    0.397358 0.174176 0.577026 0.150540
H53   H     H_    0.133732 0.849800 0.541626 0.201954
H54   H     H_    0.902909 0.739397 0.439453 0.180052
H55   H     H_    0.632886 0.254066 0.565823 0.182491
H56   H     H_    0.365822 0.351806 0.459788 0.189340
H57   H     H_    0.121644 0.684313 0.555150 0.130450
H58   H     H_    0.900647 0.569762 0.433161 0.139393
H59   H     H_    0.565894 0.134114 0.582435 0.132790
H60   H     H_    0.380519 0.186631 0.448565 0.128985
N1    N     N_R   0.521465 0.502904 0.439834 0.039991
O53   O     O_R   0.513208 0.490197 0.370855 -0.316626
O54   O     O_R   0.514930 0.408016 0.480313 -0.406028
N2    N     N_R   0.591125 0.687683 0.590384 0.066145
O55   O     O_R   0.623299 0.782280 0.565506 -0.370441
O56   O     O_R   0.608858 0.647550 0.653784 -0.310019
N3    N     N_R   0.884265 0.175254 0.419540 0.048062
O57   O     O_R   0.848176 0.258780 0.452235 -0.383677
O58   O     O_R   0.866029 0.145530 0.354209 -0.297294
N4    N     N_R   0.982780 0.004077 0.559759 0.045902
O59   O     O_R   0.989814 0.987441 0.628518 -0.325542
O60   O     O_R   0.005764 0.920976 0.516512 -0.430265
N5    N     N_3   0.121486 0.848148 0.404436 -0.604853
H61   H     H_    0.135899 0.835647 0.351168 0.263089
H62   H     H_    0.066357 0.856356 0.403063 0.256097
N6    N     N_3   0.915657 0.749321 0.575481 -0.554215
H63   H     H_    0.895871 0.758905 0.626964 0.277907
H64   H     H_    0.969569 0.729577 0.582431 0.267097
N7    N     N_3   0.626337 0.247133 0.431937 -0.570648
H65   H     H_    0.681254 0.247867 0.425828 0.275856
H66   H     H_    0.601532 0.246213 0.381276 0.293081
N8    N     N_3   0.371943 0.358726 0.596888 -0.612949
H67   H     H_    0.363040 0.344184 0.651256 0.269204
H68   H     H_    0.425735 0.378943 0.593178 0.244408
N9    N     N_R   0.339477 0.368922 0.913188 0.078780
O61   O     O_R   0.382560 0.325889 0.866063 -0.341950
O62   O     O_R   0.273846 0.333136 0.911975 -0.364733
N10   N     N_R   0.664951 0.359572 0.089414 0.087414
O63   O     O_R   0.622476 0.323307 0.138659 -0.314509
O64   O     O_R   0.729198 0.316458 0.088237 -0.348863
N11   N     N_R   0.837093 0.861303 0.908964 0.087015
O65   O     O_R   0.880870 0.824973 0.860615 -0.321772
O66   O     O_R   0.772830 0.818837 0.908128 -0.339046
N12   N     N_R   0.160836 0.868670 0.081505 0.079940
O67   O     O_R   0.119297 0.823730 0.129073 -0.341340
O68   O     O_R   0.226112 0.830822 0.078971 -0.369608

loop_
_geom_bond_atom_site_label_1
_geom_bond_atom_site_label_2
_geom_bond_distance
_ccdc_geom_bond_type
O4    C12   1.264707 A    
O25   C21   1.299568 A    
C54   C70   1.401559 A    
C55   H15   1.082247 S    
C41   C57   1.407130 A    
Cr7   O51   1.989330 S    
O39   C19   1.285549 A    
C108  H48   1.077943 S    
C85   N1    1.469127 S    
C24   C120  1.465515 S    
O21   C9    1.269195 A    
C80   C88   1.504546 S    
C115  H55   1.107821 S    
C1    O9    1.260293 A    
O44   Cr12  2.070113 S    
N4    O60   1.299605 A    
C3    O11   1.288095 A    
C12   C72   1.436345 S    
C4    O12   1.256635 A    
N10   O63   1.300235 A    
C25   C34   1.525982 S    
C102  H42   1.078876 S    
C53   C69   1.399029 A    
C29   C38   1.543295 S    
O2    C10   1.262430 A    
C32   C36   1.534716 S    
N1    O53   1.300120 A    
O17   Cr9   2.064326 S    
C54   C58   1.380346 A    
C86   H40   1.110592 S    
C109  H49   1.098030 S    
C87   H37   1.110988 S    
N2    O56   1.300524 A    
O31   Cr3   1.956365 S    
O16   Cr8   1.944587 S    
N7    H65   1.046420 S    
O13   C5    1.273108 A    
O28   Cr4   2.078965 S    
O12   Cr8   2.081459 S    
O22   Cr10  1.949794 S    
O15   C7    1.306219 A    
C87   C88   1.528013 S    
O46   Cr10  1.945323 S    
C79   C80   1.366024 A    
O14   Cr6   1.944587 S    
C7    C35   1.463234 S    
C62   H26   1.110967 S    
C51   C67   1.495841 S    
C52   C68   1.497401 S    
C112  N8    1.456872 S    
C53   C57   1.379522 A    
C76   C83   1.403935 A    
N9    O62   1.301985 A    
C2    O10   1.289492 A    
C56   H16   1.082025 S    
C114  H54   1.112094 S    
C94   C110  1.504607 S    
C79   C87   1.485365 S    
C74   C78   1.379502 A    
N7    H66   1.044730 S    
C25   H5    1.103061 S    
Cr12  O52   1.989751 S    
C26   C33   1.520865 S    
C27   H7    1.102898 S    
C17   O41   1.300834 A    
C43   C47   1.398048 A    
C30   C37   1.540259 S    
C19   O43   1.261325 A    
C20   O44   1.273500 A    
Cr8   O52   1.983001 S    
C61   H25   1.110132 S    
C10   C70   1.440337 S    
O46   C22   1.273764 A    
C31   H3    1.108988 S    
C28   H8    1.108415 S    
C4    C41   1.440885 S    
C82   H34   1.081584 S    
C62   H24   1.106143 S    
C16   O36   1.259006 A    
C63   H21   1.103703 S    
O27   C23   1.260646 A    
C116  H56   1.096747 S    
O31   C15   1.269999 A    
O32   C16   1.284914 A    
O47   Cr11  1.944882 S    
C16   C89   1.464286 S    
C39   C40   1.541578 S    
C97   C117  1.392246 A    
C78   C86   1.484697 S    
O5    C1    1.273133 A    
C95   C111  1.503640 S    
O24   C12   1.269569 A    
C66   H30   1.113045 S    
C47   C63   1.490036 S    
O8    Cr4   1.961089 S    
N5    H61   1.045906 S    
C42   C46   1.397979 A    
C45   C61   1.495356 S    
O32   Cr4   1.948402 S    
C26   H6    1.102421 S    
C2    C43   1.445744 S    
C64   H22   1.111066 S    
C63   C67   1.520740 S    
O11   Cr7   2.072715 S    
C49   C65   1.497331 S    
C54   H14   1.081597 S    
C55   C71   1.403279 A    
C88   N4    1.464680 S    
O3    Cr3   2.077762 S    
C38   H10   1.105179 S    
C21   C117  1.461704 S    
C42   C58   1.397344 A    
C96   C100  1.375554 A    
C13   C92   1.465425 S    
Cr5   O49   1.989330 S    
C103  C107  1.404163 A    
C104  C108  1.408631 A    
C91   C95   1.397288 A    
C32   C39   1.540566 S    
O22   C10   1.274000 A    
C18   C73   1.459473 S    
C110  C114  1.504376 S    
C27   C28   1.546206 S    
C11   C71   1.443995 S    
C92   C108  1.402825 A    
C53   H13   1.083203 S    
C86   N2    1.465532 S    
C90   C106  1.406012 A    
C102  C106  1.388295 A    
C47   C51   1.385262 A    
O3    C11   1.259883 A    
C56   C60   1.375935 A    
C67   H31   1.111971 S    
C101  H41   1.076572 S    
Cr1   O49   1.975665 S    
N8    H68   1.045053 S    
Cr3   O51   1.975665 S    
C88   H38   1.107389 S    
C113  H53   1.097557 S    
C40   H12   1.108187 S    
C17   C74   1.458216 S    
O26   Cr2   2.078965 S    
C5    O17   1.260998 A    
O29   C13   1.289073 A    
O28   C24   1.302895 A    
O14   C6    1.272271 A    
C20   C75   1.447307 S    
C35   C39   1.535968 S    
C8    O20   1.261016 A    
N6    H63   1.044597 S    
Cr11  O51   1.983372 S    
C64   H28   1.110277 S    
C65   H29   1.112944 S    
O40   Cr8   1.959761 S    
C98   C114  1.487561 S    
C63   H27   1.110892 S    
C49   C69   1.400506 A    
C104  H44   1.080883 S    
C90   C94   1.394296 A    
C102  C118  1.393546 A    
C32   H4    1.110561 S    
C96   C112  1.500738 S    
O33   Cr5   2.065261 S    
C114  H58   1.110673 S    
O5    Cr1   1.954342 S    
O35   Cr7   2.065261 S    
O29   Cr1   1.956365 S    
N10   O64   1.302296 A    
C1    C44   1.439904 S    
C73   C77   1.402688 A    
N12   O67   1.300283 A    
C3    C42   1.440617 S    
Cr9   O49   1.983372 S    
C76   C80   1.402228 A    
C18   O42   1.259396 A    
C95   C99   1.374129 A    
O26   C22   1.258155 A    
C29   H1    1.110838 S    
O20   Cr12  2.064636 S    
N11   O65   1.300308 A    
N3    O57   1.302878 A    
C85   C86   1.528272 S    
C103  C119  1.405238 A    
C107  H47   1.081549 S    
C100  C116  1.493706 S    
C31   C40   1.542962 S    
O38   C18   1.293554 A    
C83   H35   1.082162 S    
C30   H2    1.110403 S    
C81   H33   1.065219 S    
O30   C14   1.304762 A    
C33   C37   1.529512 S    
C84   H36   1.071970 S    
O41   Cr9   2.074709 S    
C26   C30   1.546376 S    
C8    C36   1.448383 S    
C65   N9    1.463332 S    
O8    C4    1.271154 A    
C48   C52   1.386156 A    
O42   Cr10  2.070113 S    
C77   C85   1.503701 S    
O18   Cr10  2.064636 S    
N9    O61   1.300361 A    
C67   N11   1.463768 S    
C110  H50   1.106891 S    
O34   Cr6   2.063598 S    
O6    Cr2   1.961089 S    
O24   Cr12  1.949794 S    
O30   Cr2   1.948402 S    
C61   H23   1.109143 S    
C74   C81   1.408009 A    
O48   Cr12  1.945323 S    
C111  N7    1.464574 S    
C46   C62   1.490767 S    
C62   C66   1.521771 S    
O37   C17   1.306597 A    
C52   C72   1.401380 A    
C15   O35   1.260699 A    
Cr10  O50   1.989751 S    
C50   C66   1.496515 S    
C43   C59   1.397992 A    
C36   C40   1.528935 S    
O43   Cr11  2.074709 S    
C44   C60   1.406195 A    
C113  H57   1.112013 S    
O37   Cr5   1.952287 S    
O21   Cr9   1.955650 S    
N4    O59   1.300548 A    
C111  C115  1.519155 S    
O39   Cr7   1.952287 S    
O45   Cr9   1.944882 S    
C13   O33   1.261412 A    
O13   Cr5   1.945529 S    
C106  H46   1.080506 S    
O23   Cr11  1.955650 S    
C99   C119  1.402663 A    
O15   Cr7   1.945529 S    
C31   C35   1.534698 S    
C103  H43   1.079895 S    
N1    O54   1.301093 A    
C112  H52   1.100181 S    
O23   C11   1.273639 A    
C104  C120  1.413779 A    
C19   C76   1.451622 S    
C93   C109  1.495346 S    
N2    O55   1.302287 A    
C61   C65   1.518944 S    
C109  N5    1.460069 S    
C27   C36   1.521091 S    
C48   C64   1.494462 S    
C64   C68   1.520334 S    
O6    C2    1.296448 A    
O1    Cr1   2.077762 S    
O19   Cr11  2.064326 S    
C37   C38   1.543457 S    
C85   H39   1.105708 S    
C58   H18   1.083481 S    
O45   C21   1.302751 A    
C22   C118  1.423688 S    
O47   C23   1.280536 A    
C87   N3    1.466681 S    
C83   C84   1.404527 A    
O40   C20   1.273985 A    
C81   C82   1.414847 A    
C6    O18   1.264873 A    
C68   N12   1.463029 S    
C25   C26   1.546172 S    
O36   Cr8   2.063598 S    
C5    C33   1.448296 S    
O38   Cr6   1.959761 S    
C98   C118  1.388528 A    
C15   C90   1.426632 S    
C28   C32   1.541919 S    
C92   C96   1.403955 A    
C50   C70   1.396880 A    
O1    C9    1.261135 A    
C14   C91   1.458523 S    
C77   C78   1.360837 A    
O7    C3    1.295297 A    
C116  H60   1.110482 S    
C68   H32   1.112967 S    
C57   H17   1.083554 S    
N11   O66   1.302350 A    
C55   C59   1.384728 A    
C60   H20   1.083286 S    
N3    O58   1.299909 A    
C59   H19   1.082983 S    
C41   C45   1.393637 A    
C29   C33   1.539532 S    
C45   C49   1.386903 A    
O16   C8    1.274173 A    
C93   C97   1.377941 A    
C7    O19   1.293761 A    
Cr4   O52   1.975796 S    
O2    Cr2   2.068650 S    
O48   C24   1.305326 A    
Cr6   O50   1.983001 S    
C100  C120  1.395883 A    
C25   C29   1.544825 S    
C110  N6    1.457413 S    
O9    Cr5   2.072715 S    
C23   C119  1.462436 S    
C56   C72   1.396101 A    
C111  H51   1.107456 S    
N6    H64   1.045484 S    
C109  C113  1.516471 S    
O7    Cr3   1.954342 S    
C6    C34   1.450976 S    
C75   C79   1.379126 A    
N5    H62   1.044524 S    
C46   C50   1.383707 A    
C94   C98   1.360441 A    
C91   C107  1.411649 A    
C28   C35   1.533408 S    
C89   C105  1.398605 A    
C101  C105  1.405035 A    
C105  H45   1.077988 S    
Cr2   O50   1.975796 S    
C9    C69   1.437078 S    
O27   Cr3   2.072760 S    
N12   O68   1.302085 A    
C75   C84   1.406550 A    
C73   C82   1.405644 A    
C34   C38   1.527595 S    
O25   Cr1   2.072760 S    
C30   C34   1.539780 S    
C37   H9    1.108778 S    
C14   O34   1.300578 A    
C99   C115  1.498518 S    
C97   C113  1.491109 S    
C89   C93   1.403249 A    
C101  C117  1.409274 A    
C115  H59   1.112015 S    
O10   Cr6   2.081459 S    
C66   N10   1.463543 S    
O4    Cr4   2.068650 S    
N8    H67   1.045831 S    
C27   C31   1.553262 S    
C39   H11   1.107989 S    
C112  C116  1.522179 S    
C44   C48   1.394889 A    
C51   C71   1.396156 A    
