data_mof_unit_38064.cif
_audit_creation_date              2013-03-05T15:41:54-0500
_audit_creation_method            fapswitch 2.2
_symmetry_space_group_name_H-M    P1
_symmetry_Int_Tables_number       1
_space_group_crystal_system       triclinic
_cell_length_a                    23.508471
_cell_length_b                    8.661458
_cell_length_c                    7.427902
_cell_angle_alpha                 103.046162
_cell_angle_beta                  94.103033
_cell_angle_gamma                 92.215916
_cell_volume                      1467.29639586

loop_
_atom_site_label
_atom_site_type_symbol
_atom_site_description
_atom_site_fract_x
_atom_site_fract_y
_atom_site_fract_z
_atom_type_partial_charge
O1    O     O_R   0.504120 0.286130 0.619770 -0.580536
O2    O     O_R   0.495880 0.713870 0.380230 -0.581939
O3    O     O_R   0.493410 0.256770 0.308360 -0.581299
O4    O     O_R   0.506590 0.743230 0.691640 -0.582179
C1    C     C_R   0.498198 0.199584 0.453128 0.898678
C2    C     C_R   0.501789 0.800415 0.546872 0.893344
O5    O     O_R   0.423230 0.514630 0.655730 -0.598960
O6    O     O_R   0.576770 0.485370 0.344270 -0.601634
O7    O     O_R   0.412530 0.485280 0.344320 -0.529276
O8    O     O_R   0.587470 0.514720 0.655680 -0.524354
C3    C     C_R   0.391063 0.499086 0.502511 0.825642
C4    C     C_R   0.608942 0.501094 0.497533 0.832130
Cu1   Cu    Cu3+1 0.506340 0.517380 0.684380 1.035050
Cu2   Cu    Cu3+1 0.493660 0.482620 0.315620 1.033686
C5    C     C_R   0.883800 0.639189 0.582906 0.617271
C6    C     C_R   0.116430 0.367490 0.420881 0.559644
N1    N     N_R   0.851948 0.505704 0.490336 -0.452915
N2    N     N_R   0.148293 0.500499 0.514791 -0.484691
C7    C     C_R   0.876589 0.374387 0.396944 0.627800
C8    C     C_R   0.123601 0.631936 0.607668 0.554209
C9    C     C_R   0.936098 0.369870 0.403507 0.002760
C10   C     C_R   0.064095 0.636775 0.599999 -0.012372
C11   C     C_R   0.970036 0.505927 0.496659 -0.029410
C12   C     C_R   0.030163 0.500812 0.506547 -0.034884
C13   C     C_R   0.943887 0.646747 0.579399 -0.045601
C14   C     C_R   0.056320 0.360033 0.423745 -0.042664
C15   C     C_R   0.961885 0.230059 0.325165 -0.190101
C16   C     C_R   0.038315 0.776728 0.677872 -0.194556
C17   C     C_R   0.021166 0.221028 0.340632 -0.040245
C18   C     C_R   0.979043 0.785837 0.662093 -0.048410
O9    O     O_2   0.857222 0.760151 0.684317 -0.470643
O10   O     O_2   0.143032 0.246805 0.319046 -0.457572
O11   O     O_2   0.843400 0.247287 0.301936 -0.494235
O12   O     O_2   0.156752 0.758770 0.703588 -0.468239
H1    H     H_    0.935587 0.123861 0.259379 0.194486
H2    H     H_    0.064617 0.882921 0.743648 0.196475
C19   C     C_R   0.237165 0.591020 0.400924 -0.107304
C20   C     C_R   0.763010 0.415873 0.606358 -0.095325
C21   C     C_R   0.297265 0.590614 0.400985 0.330247
C22   C     C_R   0.702887 0.412402 0.601605 0.255807
C23   C     C_R   0.328555 0.501119 0.508063 -0.233758
C24   C     C_R   0.671485 0.500058 0.492609 -0.197051
C25   C     C_R   0.299606 0.412083 0.615401 -0.083424
C26   C     C_R   0.700431 0.589461 0.385682 -0.084371
C27   C     C_R   0.240300 0.416900 0.616966 -0.009617
C28   C     C_R   0.759833 0.586483 0.386236 -0.072038
H3    H     H_    0.217262 0.349473 0.697762 0.194515
H4    H     H_    0.782815 0.653354 0.304719 0.198215
C29   C     C_R   0.209253 0.503536 0.510733 0.174635
C30   C     C_R   0.791039 0.502405 0.495270 0.245566
C31   C     C_2   0.497350 0.031608 0.426674 -0.289628
C32   C     C_2   0.502628 0.968390 0.573326 -0.290842
H5    H     H_    0.492399 0.959686 0.285484 0.184556
H6    H     H_    0.507578 0.040311 0.714516 0.184807
N3    N     N_2   0.484110 0.456420 0.038520 -0.194029
N4    N     N_2   0.515890 0.543580 0.961480 -0.193786
H7    H     H_    0.455116 0.378903 0.948577 0.226601
H8    H     H_    0.544875 0.621118 0.051422 0.226533
C33   C     C_2   0.042768 0.060497 0.280093 0.487920
H9    H     H_    0.023005 0.979678 0.155946 0.024746
O13   O     O_2   0.079433 0.012524 0.375495 -0.484284
C34   C     C_2   0.957446 0.946432 0.722119 0.491009
H10   H     H_    0.977244 0.027558 0.845977 0.033045
O14   O     O_2   0.920735 0.994085 0.626575 -0.478461
C35   C     C_2   0.202581 0.681475 0.288315 0.547106
H11   H     H_    0.157521 0.649035 0.251249 0.051665
O15   O     O_2   0.223207 0.795541 0.239779 -0.421476
C36   C     C_2   0.795523 0.326318 0.725055 0.525858
H12   H     H_    0.774840 0.227087 0.766230 0.136756
O16   O     O_2   0.845278 0.363854 0.781967 -0.525904
N5    N     N_R   0.326671 0.679715 0.291347 0.167779
O17   O     O_R   0.320421 0.636680 0.111215 -0.298691
O18   O     O_R   0.361943 0.798867 0.371426 -0.346455
N6    N     N_R   0.673551 0.319552 0.707658 0.113130
O19   O     O_R   0.681283 0.354797 0.887812 -0.337459
O20   O     O_R   0.637902 0.202312 0.624367 -0.364976
C37   C     C_2   0.329691 0.305676 0.717552 0.499902
H13   H     H_    0.372260 0.269852 0.686978 0.044337
O21   O     O_2   0.306763 0.254304 0.836226 -0.491651
C38   C     C_2   0.670208 0.694030 0.281289 0.485826
H14   H     H_    0.627452 0.729009 0.310354 0.043506
O22   O     O_2   0.693241 0.744893 0.162439 -0.497996

loop_
_geom_bond_atom_site_label_1
_geom_bond_atom_site_label_2
_geom_bond_distance
_ccdc_geom_bond_type
N3    N4    1.291568 D    
C15   C17   1.396776 A    
C21   C23   1.418893 A    
C37   H13   1.083522 S    
O5    C3    1.298084 A    
N6    O20   1.301007 A    
O1    C1    1.289113 A    
C7    C9    1.398697 A    
C12   C14   1.420119 A    
C18   C34   1.482703 S    
C5    C13   1.413927 A    
C27   H3    1.083911 S    
O4    Cu1   1.944495 S    
C4    C24   1.473687 S    
C17   C33   1.482705 S    
C26   C28   1.397433 A    
C36   H12   1.084569 S    
C35   O15   1.220628 D    
C19   C35   1.490726 S    
C34   O14   1.221043 D    
C11   C12   1.413066 A    
N4    H8    1.028867 S    
O7    C3    1.294513 A    
Cu1   N4    2.014309 S    
C8    O12   1.350108 S    
C22   C24   1.418510 A    
Cu2   N3    2.014309 S    
C9    C15   1.400609 A    
C33   H9    1.085514 S    
C10   C16   1.400618 A    
Cu1   Cu2   2.680698 S    
C23   C25   1.417097 A    
O2    C2    1.289108 A    
C24   C26   1.416956 A    
C32   H6    1.087862 S    
C37   O21   1.221512 D    
C9    C11   1.408616 A    
C6    C14   1.413993 A    
C28   H4    1.083949 S    
C33   O13   1.221054 D    
N6    O19   1.301299 A    
C31   C32   1.325524 D    
C26   C38   1.488081 S    
C38   O22   1.221534 D    
C7    O11   1.350081 S    
N5    O18   1.300984 A    
C15   H1    1.084869 S    
C31   H5    1.087863 S    
O7    Cu2   1.934663 S    
C34   H10   1.085519 S    
C19   C29   1.409666 A    
C27   C29   1.394894 A    
O6    C4    1.298227 A    
C25   C27   1.397239 A    
O3    Cu2   1.944495 S    
O8    C4    1.294410 A    
O4    C2    1.281329 A    
C20   C36   1.490432 S    
N3    H7    1.028905 S    
C10   C12   1.408563 A    
C25   C37   1.488182 S    
C13   C18   1.424061 A    
C5    N1    1.367735 A    
O6    Cu2   1.948782 S    
C8    C10   1.398615 A    
C38   H14   1.083415 S    
O3    C1    1.281324 A    
O8    Cu1   1.934663 S    
N1    C30   1.434305 S    
C5    O9    1.348025 S    
C20   C30   1.412659 A    
C6    O10   1.348037 S    
C28   C30   1.395341 A    
C16   C18   1.396716 A    
N5    O17   1.301247 A    
C19   C21   1.412977 A    
C20   C22   1.410304 A    
N1    C7    1.364804 A    
C22   N6    1.436601 S    
C3    C23   1.473663 S    
N2    C8    1.364821 A    
C11   C13   1.420175 A    
O2    Cu2   1.949168 S    
O5    Cu1   1.948782 S    
O1    Cu1   1.949168 S    
C16   H2    1.084869 S    
C14   C17   1.424124 A    
C6    N2    1.367683 A    
C35   H11   1.084996 S    
C36   O16   1.220781 D    
C21   N5    1.435182 S    
C1    C31   1.422645 S    
C2    C32   1.422642 S    
N2    C29   1.434901 S    
