data_mof_unit_39758.cif
_audit_creation_date              2012-12-10T19:00:48-0500
_audit_creation_method            fapswitch 2.2
_symmetry_space_group_name_H-M    P1
_symmetry_Int_Tables_number       1
_space_group_crystal_system       triclinic
_cell_length_a                    15.048701
_cell_length_b                    10.795198
_cell_length_c                    9.585911
_cell_angle_alpha                 89.986914
_cell_angle_beta                  90.10642
_cell_angle_gamma                 90.353986
_cell_volume                      1557.2343329

loop_
_atom_site_label
_atom_site_type_symbol
_atom_type_description
_atom_site_fract_x
_atom_site_fract_y
_atom_site_fract_z
_atom_type_partial_charge
C1    C     C_R   0.496605 0.262675 0.500179 0.814626
C2    C     C_R   0.907498 0.553639 0.612049 0.109515
C3    C     C_R   0.953058 0.403586 0.269488 -0.207199
C4    C     C_R   0.045758 0.404512 0.268951 -0.196380
C5    C     C_R   0.092939 0.453103 0.382924 0.102012
C6    C     C_R   0.046753 0.501821 0.498368 0.062192
C7    C     C_R   0.093615 0.549801 0.614271 0.105432
C8    C     C_R   0.047179 0.599660 0.727546 -0.200406
C9    C     C_R   0.954564 0.602288 0.726047 -0.203506
C10   C     C_R   0.185556 0.453764 0.383701 -0.216697
C11   C     C_R   0.232087 0.500147 0.499443 -0.060860
C12   C     C_R   0.328818 0.499823 0.499856 0.819792
C13   C     C_R   0.186168 0.547390 0.614593 -0.228045
C14   C     C_R   0.528632 0.063714 0.608710 0.127025
C15   C     C_R   0.486745 0.129340 0.502654 -0.151610
C16   C     C_R   0.430492 0.064499 0.408809 -0.081253
C17   C     C_R   0.431917 0.933605 0.407274 -0.097380
C18   C     C_R   0.487944 0.870379 0.501993 -0.155613
C19   C     C_R   0.528930 0.936832 0.608750 0.130436
C20   C     C_3   0.622031 0.931218 0.662571 -0.486807
C21   C     C_3   0.621666 0.072050 0.662464 -0.438774
C22   C     C_R   0.552171 0.581959 0.074108 0.257454
C23   C     C_R   0.497623 0.737300 0.500058 0.802206
C24   C     C_R   0.442385 0.428408 0.074865 -0.096141
C25   C     C_R   0.442199 0.427748 0.926557 0.028795
C26   C     C_R   0.554710 0.578240 0.927047 0.203757
C27   C     C_3   0.654448 0.580402 0.928330 -0.290919
C28   C     C_3   0.650518 0.593902 0.085528 -0.529486
C29   C     C_R   0.671256 0.500726 0.499848 0.804682
C30   C     C_R   0.815002 0.555067 0.610152 -0.224623
C31   C     C_R   0.768145 0.502096 0.498684 -0.064549
C32   C     C_R   0.814000 0.451360 0.385261 -0.249207
C33   C     C_R   0.906639 0.452376 0.383392 0.108620
C34   C     C_R   0.953615 0.502561 0.497949 0.063025
Cu1   Cu    Cu3+1 0.500000 0.499980 0.640670 0.967881
Cu2   Cu    Cu3+1 0.500000 0.500020 0.359330 0.962478
H1    H     H_    0.779591 0.598721 0.694578 0.135184
H2    H     H_    0.625319 0.890690 0.769076 0.200049
H3    H     H_    0.668978 0.890739 0.585820 0.192005
H4    H     H_    0.624731 0.112730 0.768906 0.217221
H5    H     H_    0.668353 0.113732 0.585574 0.195622
H6    H     H_    0.397010 0.369287 0.131459 0.165014
H7    H     H_    0.683364 0.662271 0.874441 0.136730
H8    H     H_    0.681754 0.516434 0.143192 0.218804
H9    H     H_    0.777690 0.409717 0.299372 0.145846
H10   H     H_    0.670865 0.687503 0.122429 0.187527
H11   H     H_    0.917682 0.365115 0.180788 0.154041
H12   H     H_    0.080541 0.366793 0.179805 0.156698
H13   H     H_    0.221415 0.416713 0.295153 0.165889
H14   H     H_    0.222504 0.584094 0.703405 0.156150
H15   H     H_    0.082483 0.636956 0.816939 0.152111
H16   H     H_    0.919725 0.641467 0.814346 0.146800
N1    N     N_R   0.500570 0.500930 0.147930 -0.188294
N2    N     N_R   0.500570 0.500890 0.852020 -0.214873
O1    O     O_R   0.500000 0.319640 0.618810 -0.570129
O2    O     O_R   0.500010 0.319680 0.381230 -0.580385
O3    O     O_R   0.370250 0.499950 0.618800 -0.586778
O4    O     O_R   0.370260 0.499990 0.381220 -0.580064
O5    O     O_R   0.499990 0.680320 0.618770 -0.580947
O6    O     O_R   0.500000 0.680360 0.381190 -0.571950
O7    O     O_R   0.629740 0.500010 0.618780 -0.578016
O8    O     O_R   0.629750 0.500050 0.381200 -0.593088
C35   C     C_1   0.376201 0.865492 0.309879 0.282531
N3    N     N_1   0.331748 0.811083 0.232254 -0.272969
C36   C     C_1   0.381813 0.344626 0.856599 0.314740
N4    N     N_1   0.333058 0.277341 0.801203 -0.286245
C37   C     C_1   0.694194 0.460563 0.889345 0.340294
N5    N     N_1   0.725330 0.366465 0.859467 -0.304196
C38   C     C_1   0.369618 0.130180 0.318344 0.272606
N6    N     N_1   0.320018 0.181383 0.246627 -0.318401

loop_
_geom_bond_atom_site_label_1
_geom_bond_atom_site_label_2
_ccdc_geom_bond_type
C8    C9    A    
C7    C13   A    
C11   C12   S    
C24   C25   A    
C6    C7    A    
C1    C15   S    
C20   H2    S    
C32   H9    S    
C16   C38   S    
C19   C20   S    
Cu1   O3    S    
C2    C30   A    
C12   O4    A    
C32   C33   A    
C2    C34   A    
C17   C18   A    
C1    O1    A    
C25   C36   S    
C5    C10   A    
C29   C31   S    
C29   O7    A    
C22   C28   S    
C25   N2    A    
Cu1   N2    S    
C23   O5    A    
C23   O6    A    
C11   C13   A    
C8    H15   S    
C28   H10   S    
C26   C27   S    
C5    C6    A    
C9    H16   S    
C18   C23   S    
C21   H5    S    
C12   O3    A    
C26   N2    A    
C14   C21   S    
C3    H11   S    
C13   H14   S    
C1    O2    A    
C33   C34   A    
C22   N1    A    
Cu2   O4    S    
C38   N6    T    
C22   C26   A    
C30   C31   A    
Cu1   O5    S    
Cu2   O8    S    
C27   C37   S    
C10   C11   A    
C3    C33   A    
Cu1   O1    S    
C37   N5    T    
C16   C17   A    
C27   H7    S    
C7    C8    A    
C2    C9    A    
C24   H6    S    
C20   C21   S    
C29   O8    A    
C6    C34   A    
Cu1   O7    S    
C36   N4    T    
C4    H12   S    
Cu2   O2    S    
C27   C28   S    
C20   H3    S    
C14   C15   A    
C18   C19   A    
Cu2   N1    S    
C24   N1    A    
C35   N3    T    
C10   H13   S    
C14   C19   A    
C28   H8    S    
C31   C32   A    
C17   C35   S    
C3    C4    A    
C15   C16   A    
C30   H1    S    
C4    C5    A    
Cu2   O6    S    
Cu1   Cu2   S    
C21   H4    S    
