data_mof_unit_31148.cif
_audit_creation_date              2012-12-10T17:54:29-0500
_audit_creation_method            fapswitch 2.2
_symmetry_space_group_name_H-M    P1
_symmetry_Int_Tables_number       1
_space_group_crystal_system       triclinic
_cell_length_a                    27.691356
_cell_length_b                    10.616988
_cell_length_c                    9.919996
_cell_angle_alpha                 89.913473
_cell_angle_beta                  90.187523
_cell_angle_gamma                 91.897699
_cell_volume                      2914.84883914

loop_
_atom_site_label
_atom_site_type_symbol
_atom_type_description
_atom_site_fract_x
_atom_site_fract_y
_atom_site_fract_z
_atom_type_partial_charge
C1    C     C_R   0.501441 0.260912 0.500141 0.876935
C2    C     C_R   0.974358 0.417348 0.590185 -0.026271
C3    C     C_R   0.975782 0.639182 0.514438 0.070106
C4    C     C_R   0.406282 0.500884 0.500085 0.923036
C5    C     C_R   0.949741 0.525905 0.548736 0.072567
C6    C     C_R   0.946774 0.309873 0.631225 -0.317736
C7    C     C_R   0.896604 0.303416 0.619907 0.565109
C8    C     C_R   0.871941 0.409737 0.575665 -0.148787
C9    C     C_R   0.898520 0.521230 0.541233 -0.118042
C10   C     C_R   0.873776 0.628255 0.498414 0.011609
C11   C     C_R   0.823413 0.622379 0.489647 0.515657
C12   C     C_R   0.274105 0.446746 0.425658 -0.189564
C13   C     C_R   0.821241 0.408725 0.564874 0.543038
C14   C     C_R   0.723942 0.464101 0.399145 -0.205942
C15   C     C_R   0.673545 0.457950 0.392735 0.501998
C16   C     C_R   0.501061 0.739378 0.499795 0.941404
C17   C     C_R   0.670700 0.549130 0.617997 -0.300372
C18   C     C_R   0.720739 0.553109 0.623865 -0.102783
C19   C     C_R   0.747245 0.510753 0.514672 0.252601
C20   C     C_R   0.025582 0.418945 0.588623 0.078544
C21   C     C_R   0.051575 0.531913 0.553928 0.072546
C22   C     C_R   0.027004 0.643182 0.520851 0.042303
C23   C     C_R   0.254097 0.529720 0.518046 0.233685
C24   C     C_R   0.051951 0.309874 0.616770 -0.216474
C25   C     C_R   0.104878 0.754418 0.489926 -0.134512
C26   C     C_R   0.949506 0.744239 0.471967 -0.217379
C27   C     C_R   0.899577 0.738657 0.464508 -0.151824
C28   C     C_R   0.593892 0.500246 0.500287 0.858724
C29   C     C_R   0.054835 0.754564 0.493424 -0.216474
C30   C     C_R   0.582697 0.137215 0.621804 -0.182101
C31   C     C_R   0.620974 0.074147 0.679718 -0.126022
C32   C     C_R   0.620929 0.943114 0.678381 -0.123784
C33   C     C_R   0.582577 0.874778 0.619272 -0.162531
C34   C     C_R   0.102783 0.533080 0.550216 -0.055394
C35   C     C_R   0.543162 0.937333 0.561163 0.026155
C36   C     C_R   0.543359 0.069236 0.562086 0.097136
C37   C     C_R   0.504475 0.128969 0.499825 -0.159367
C38   C     C_R   0.467399 0.062925 0.433651 -0.324768
C39   C     C_R   0.467144 0.933594 0.430502 0.513735
C40   C     C_R   0.178107 0.425006 0.571591 0.514615
C41   C     C_R   0.503886 0.872116 0.498664 -0.226744
C42   C     C_R   0.437358 0.332383 0.139217 -0.103068
C43   C     C_R   0.406831 0.249135 0.068465 -0.153615
C44   C     C_R   0.406730 0.249559 0.929035 -0.203951
C45   C     C_R   0.127697 0.422866 0.579371 -0.022015
C46   C     C_R   0.437271 0.332941 0.859291 -0.141311
C47   C     C_R   0.469115 0.417555 0.927413 0.167622
C48   C     C_R   0.469143 0.417467 0.071955 0.139722
C49   C     C_R   0.529542 0.578998 0.071637 -0.088645
C50   C     C_R   0.529551 0.578916 0.928551 -0.110067
C51   C     C_R   0.179592 0.641371 0.506016 0.518536
C52   C     C_R   0.284103 0.604317 0.601296 -0.098666
C53   C     C_R   0.333901 0.595474 0.592853 -0.265651
C54   C     C_R   0.324042 0.433762 0.420272 0.497774
C55   C     C_3   0.340941 0.227319 0.408909 -0.336424
C56   C     C_R   0.101953 0.312364 0.613131 -0.140968
C57   C     C_3   0.429663 0.879654 0.232795 -0.251471
C58   C     C_3   0.645284 0.281004 0.287850 -0.258327
C59   C     C_3   0.876537 0.100511 0.564352 -0.221443
C60   C     C_R   0.129195 0.643979 0.515579 -0.025650
C61   C     C_R   0.354083 0.510763 0.502363 -0.138012
C62   C     C_R   0.646664 0.502510 0.502608 -0.154075
H1    H     H_    0.268769 0.667697 0.673791 0.165148
H2    H     H_    0.650959 0.127159 0.724609 0.159343
H3    H     H_    0.250725 0.388347 0.362055 0.168158
H4    H     H_    0.650888 0.894224 0.722196 0.145329
H5    H     H_    0.584630 0.773285 0.617794 0.137039
H6    H     H_    0.553686 0.643577 0.125430 0.150565
H7    H     H_    0.434912 0.327780 0.246103 0.220882
H8    H     H_    0.382883 0.184136 0.121872 0.161515
H9    H     H_    0.382715 0.185137 0.874387 0.159087
H10   H     H_    0.434769 0.328353 0.752384 0.203279
H11   H     H_    0.553716 0.643423 0.874918 0.142711
H12   H     H_    0.124455 0.841632 0.466047 0.190444
H13   H     H_    0.120344 0.226048 0.634665 0.191229
H14   H     H_    0.744980 0.431770 0.314878 0.155057
H15   H     H_    0.962808 0.228368 0.674898 0.161066
H16   H     H_    0.035272 0.219218 0.638576 0.140432
H17   H     H_    0.356756 0.654104 0.657717 0.184577
H18   H     H_    0.303267 0.199445 0.437957 0.205634
H19   H     H_    0.364725 0.231285 0.499628 0.148728
H20   H     H_    0.353982 0.152191 0.342262 0.187600
H21   H     H_    0.402289 0.813327 0.188096 0.197935
H22   H     H_    0.465456 0.855656 0.190674 0.161638
H23   H     H_    0.966228 0.832397 0.440920 0.134999
H24   H     H_    0.420152 0.976414 0.201997 0.140594
H25   H     H_    0.622168 0.253613 0.375333 0.148257
H26   H     H_    0.680827 0.235400 0.295085 0.163278
H27   H     H_    0.626852 0.244837 0.195597 0.195335
H28   H     H_    0.914332 0.068600 0.558895 0.123381
H29   H     H_    0.864171 0.132432 0.463317 0.161690
H30   H     H_    0.853319 0.017834 0.593528 0.210406
H31   H     H_    0.650809 0.583798 0.703397 0.180070
H32   H     H_    0.881247 0.821687 0.430763 0.174683
H33   H     H_    0.739041 0.589164 0.713139 0.151473
H34   H     H_    0.039299 0.844387 0.474215 0.138980
H35   H     H_    0.438027 0.112183 0.387167 0.148305
H36   H     H_    0.584710 0.239026 0.622478 0.151498
N1    N     N_R   0.202833 0.532486 0.532631 -0.341172
N2    N     N_R   0.798579 0.513793 0.522252 -0.351428
N3    N     N_R   0.499540 0.498800 0.142780 -0.124657
N4    N     N_R   0.499520 0.498720 0.857170 -0.121976
O1    O     O_R   0.500000 0.316780 0.614690 -0.640666
O2    O     O_R   0.571250 0.499990 0.614680 -0.639906
O3    O     O_R   0.571240 0.499970 0.385350 -0.564559
O4    O     O_2   0.202343 0.320507 0.602750 -0.570012
O5    O     O_3   0.343050 0.342936 0.338334 -0.622826
O6    O     O_3   0.428460 0.865797 0.374249 -0.605547
O7    O     O_3   0.651036 0.413062 0.277049 -0.593311
O8    O     O_3   0.871742 0.195338 0.662526 -0.557411
O9    O     O_2   0.794485 0.304401 0.596641 -0.505352
O10   O     O_2   0.205119 0.745997 0.468265 -0.556700
O11   O     O_2   0.799268 0.724143 0.448774 -0.563155
O12   O     O_R   0.500000 0.316750 0.385360 -0.640034
O13   O     O_R   0.428760 0.500030 0.614650 -0.649845
O14   O     O_R   0.428750 0.500010 0.385320 -0.595474
O15   O     O_R   0.500000 0.683250 0.614640 -0.626578
O16   O     O_R   0.500000 0.683220 0.385310 -0.607185
Zn1   Zn    Zn3+2 0.500000 0.500020 0.653130 0.930704
Zn2   Zn    Zn3+2 0.500000 0.499980 0.346870 0.971818

loop_
_geom_bond_atom_site_label_1
_geom_bond_atom_site_label_2
_ccdc_geom_bond_type
C10   C27   A    
C23   N1    S    
C8    C13   A    
C49   H6    S    
C39   O6    S    
C58   O7    S    
C15   O7    S    
C4    O13   A    
C35   C36   A    
C58   H25   S    
C40   N1    A    
C7    C8    A    
C39   C41   A    
C31   C32   A    
C12   C23   A    
C26   C27   A    
C51   O10   S    
C54   O5    S    
C40   O4    S    
C36   C37   A    
C22   C29   A    
C18   C19   A    
O15   Zn1   S    
C49   N3    A    
C30   C31   A    
C59   O8    S    
C57   H24   S    
C44   H9    S    
C25   H12   S    
C53   C61   A    
C20   C24   A    
C45   C56   A    
C8    C9    A    
C57   H21   S    
O3    Zn2   S    
C25   C60   A    
C55   H19   S    
C9    C10   A    
C1    O1    A    
C46   H10   S    
C1    C37   S    
O2    Zn1   S    
C56   H13   S    
C12   C54   A    
C21   C22   A    
C34   C60   A    
C18   H33   S    
C2    C6    A    
C38   H35   S    
C35   C41   A    
C14   C19   A    
C44   C46   A    
C25   C29   A    
C40   C45   A    
C2    C20   A    
C50   H11   S    
C6    H15   S    
C42   C48   A    
C21   C34   A    
C4    C61   S    
C42   H7    S    
O14   Zn2   S    
C55   O5    S    
C11   N2    A    
C59   H28   S    
C14   H14   S    
C43   C44   A    
C5    C9    A    
C37   C38   A    
C16   O16   A    
C17   C62   A    
C51   N1    A    
C28   O2    A    
C47   C48   A    
C28   O3    A    
C17   C18   A    
C57   H22   S    
C34   C45   A    
C59   H29   S    
C55   H20   S    
C24   H16   S    
C50   N4    A    
C43   H8    S    
O13   Zn1   S    
C2    C5    A    
C17   H31   S    
C42   C43   A    
C52   C53   A    
C33   H5    S    
C32   H4    S    
C46   C47   A    
C53   H17   S    
N3    Zn2   S    
C31   H2    S    
C4    O14   A    
C3    C26   A    
O1    Zn1   S    
C3    C5    A    
C52   H1    S    
C58   H26   S    
C29   H34   S    
C19   N2    S    
C6    C7    A    
C54   C61   A    
C24   C56   A    
C12   H3    S    
C30   H36   S    
C7    O8    S    
C30   C36   A    
C32   C33   A    
C13   N2    A    
C27   H32   S    
C13   O9    S    
C16   O15   A    
C55   H18   S    
C23   C52   A    
C38   C39   A    
C26   H23   S    
C48   N3    A    
C33   C35   A    
C15   C62   A    
C59   H30   S    
C11   O11   S    
C58   H27   S    
O16   Zn2   S    
C10   C11   A    
C57   O6    S    
C20   C21   A    
C49   C50   A    
C1    O12   A    
C47   N4    A    
C14   C15   A    
C3    C22   A    
C51   C60   A    
C16   C41   S    
O12   Zn2   S    
N4    Zn1   S    
C28   C62   S    
