data_mof_unit_65996.cif
_audit_creation_date              2012-12-10T20:42:15-0500
_audit_creation_method            fapswitch 2.2
_symmetry_space_group_name_H-M    P1
_symmetry_Int_Tables_number       1
_space_group_crystal_system       triclinic
_cell_length_a                    25.953538
_cell_length_b                    39.716307
_cell_length_c                    23.76311
_cell_angle_alpha                 90.0
_cell_angle_beta                  123.402246
_cell_angle_gamma                 89.999948
_cell_volume                      20448.6584412

loop_
_atom_site_label
_atom_site_type_symbol
_atom_type_description
_atom_site_fract_x
_atom_site_fract_y
_atom_site_fract_z
_atom_type_partial_charge
C1    C     C_R   0.500000 0.621998 1.000000 -0.007265
C2    C     C_1   0.500000 0.015104 0.000000 -0.007225
C3    C     C_R   0.825503 0.783635 0.636596 0.047898
C4    C     C_R   0.325497 0.716364 0.636596 0.047896
C5    C     C_R   0.674484 0.283634 0.363403 0.047900
C6    C     C_R   0.674497 0.716365 0.363404 0.047898
C7    C     C_R   0.325498 0.283636 0.636596 0.047897
C8    C     C_R   0.859337 0.215881 0.708532 0.025696
C9    C     C_R   0.140679 0.784121 0.291469 0.025695
C10   C     C_R   0.140679 0.215879 0.291469 0.025695
C11   C     C_R   0.859325 0.784120 0.708531 0.025695
C12   C     C_R   0.359318 0.715879 0.708531 0.025694
C13   C     C_1   1.000000 0.484896 1.000000 -0.007225
C14   C     C_R   0.640660 0.284119 0.291468 0.025697
C15   C     C_R   0.640674 0.715880 0.291469 0.025695
C16   C     C_R   0.359320 0.284121 0.708531 0.025695
C17   C     C_R   0.874969 0.247182 0.743964 0.042866
C18   C     C_R   0.125031 0.752819 0.256036 0.042860
C19   C     C_R   0.125031 0.247181 0.256036 0.042859
C20   C     C_R   0.874969 0.752819 0.743964 0.042861
C21   C     C_R   0.374969 0.747181 0.743964 0.042858
C22   C     C_R   0.625031 0.252818 0.256035 0.042868
C23   C     C_R   0.625031 0.747181 0.256036 0.042861
C24   C     C_1   1.000000 0.515104 1.000000 -0.007225
C25   C     C_R   0.374969 0.252819 0.743964 0.042859
C26   C     C_R   0.856990 0.277563 0.708313 -0.135963
C27   C     C_R   0.142995 0.722437 0.291687 -0.135966
C28   C     C_R   0.142995 0.277562 0.291687 -0.135966
C29   C     C_R   0.857001 0.722437 0.708313 -0.135965
C30   C     C_R   0.357009 0.777562 0.708312 -0.135966
C31   C     C_R   0.643014 0.222437 0.291687 -0.135963
C32   C     C_R   0.642999 0.777563 0.291687 -0.135965
C33   C     C_R   0.357007 0.222438 0.708313 -0.135966
C34   C     C_R   0.821659 0.277759 0.638436 -0.133201
C35   C     C_R   0.453941 0.604164 0.943326 -0.099314
C36   C     C_R   0.178327 0.722242 0.361563 -0.133204
C37   C     C_R   0.178326 0.277758 0.361563 -0.133204
C38   C     C_R   0.821671 0.722242 0.638436 -0.133204
C39   C     C_R   0.321679 0.777758 0.638436 -0.133204
C40   C     C_R   0.678346 0.222241 0.361563 -0.133201
C41   C     C_R   0.678330 0.777758 0.361563 -0.133203
C42   C     C_R   0.321676 0.222242 0.638436 -0.133204
C43   C     C_R   0.805296 0.247624 0.602554 0.033508
C44   C     C_R   0.194704 0.752376 0.397446 0.033509
C45   C     C_R   0.194704 0.247624 0.397446 0.033509
C46   C     C_R   0.546060 0.395837 0.056673 -0.099311
C47   C     C_R   0.805296 0.752376 0.602554 0.033509
C48   C     C_R   0.305298 0.747623 0.602554 0.033509
C49   C     C_R   0.694705 0.252375 0.397446 0.033508
C50   C     C_R   0.694704 0.747624 0.397446 0.033509
C51   C     C_R   0.305297 0.252377 0.602554 0.033509
C52   C     C_1   0.766386 0.249386 0.530222 -0.034076
C53   C     C_1   0.233616 0.750614 0.469778 -0.034077
C54   C     C_1   0.233615 0.249386 0.469778 -0.034076
C55   C     C_1   0.766386 0.750614 0.530222 -0.034076
C56   C     C_1   0.266387 0.749386 0.530222 -0.034076
C57   C     C_R   0.546060 0.604163 0.056673 -0.099313
C58   C     C_1   0.733616 0.250614 0.469777 -0.034076
C59   C     C_1   0.733615 0.749386 0.469778 -0.034076
C60   C     C_1   0.266386 0.250614 0.530222 -0.034076
C61   C     C_1   0.500001 0.515151 0.999998 0.052353
C62   C     C_1   0.500001 0.484849 0.999998 0.052353
C63   C     C_1   0.999999 0.015151 0.000002 0.052353
C64   C     C_1   0.999999 0.984849 0.000001 0.052353
C65   C     C_R   0.360002 0.250215 0.000325 0.535693
C66   C     C_R   0.639998 0.749786 0.999675 0.535695
C67   C     C_R   0.639998 0.250214 0.999675 0.535695
C68   C     C_R   0.453941 0.395836 0.943325 -0.099313
C69   C     C_R   0.360002 0.749785 0.000325 0.535694
C70   C     C_R   0.860002 0.750214 0.000325 0.535695
C71   C     C_R   0.139998 0.249785 0.999675 0.535693
C72   C     C_R   0.139998 0.750214 0.999675 0.535695
C73   C     C_R   0.860002 0.249786 0.000325 0.535694
C74   C     C_R   0.454033 0.568992 0.943202 0.118776
C75   C     C_R   0.545968 0.431008 0.056795 0.118774
C76   C     C_R   0.545969 0.568991 0.056795 0.118775
C77   C     C_R   0.454033 0.431008 0.943202 0.118777
C78   C     C_R   0.954032 0.068992 0.943204 0.118774
C79   C     C_R   0.953940 0.104163 0.943327 -0.099311
C80   C     C_R   0.045968 0.931008 0.056797 0.118776
C81   C     C_R   0.045967 0.068992 0.056798 0.118777
C82   C     C_R   0.954031 0.931008 0.943204 0.118775
C83   C     C_R   0.409932 0.250802 0.818129 0.496276
C84   C     C_R   0.590068 0.749198 0.181871 0.496275
C85   C     C_R   0.590068 0.250802 0.181871 0.496271
C86   C     C_R   0.409932 0.749198 0.818129 0.496276
C87   C     C_R   0.909932 0.750802 0.818129 0.496275
C88   C     C_R   0.090068 0.249198 0.181871 0.496276
C89   C     C_R   0.090068 0.750802 0.181871 0.496275
C90   C     C_R   0.046059 0.895836 0.056674 -0.099313
C91   C     C_R   0.909931 0.249198 0.818129 0.496273
C92   C     C_R   0.500000 0.340965 1.000000 0.507856
C93   C     C_R   0.500000 0.659035 1.000000 0.507854
C94   C     C_R   1.000000 0.840965 0.000000 0.507854
C95   C     C_R   1.000000 0.159035 0.000000 0.507856
C96   C     C_R   0.500000 0.158948 0.000000 0.516965
C97   C     C_R   0.500000 0.841052 0.000000 0.516965
C98   C     C_R   0.000000 0.658948 0.000000 0.516965
C99   C     C_R   0.000000 0.341052 0.000000 0.516965
C100  C     C_R   0.476409 0.931414 0.031987 -0.106648
C101  C     C_R   0.046059 0.104164 0.056675 -0.099313
C102  C     C_R   0.523592 0.068586 0.968014 -0.106648
C103  C     C_R   0.523591 0.931414 0.968013 -0.106648
C104  C     C_R   0.476408 0.068586 0.031986 -0.106648
C105  C     C_R   0.976408 0.431414 0.031986 -0.106648
C106  C     C_R   0.023592 0.568586 0.968014 -0.106648
C107  C     C_R   0.023591 0.431414 0.968014 -0.106648
C108  C     C_R   0.976408 0.568586 0.031986 -0.106648
C109  C     C_R   0.476300 0.896302 0.032162 0.092371
C110  C     C_R   0.523701 0.103698 0.967838 0.092371
C111  C     C_R   0.523700 0.896302 0.967838 0.092371
C112  C     C_R   0.500000 0.378002 0.999999 -0.007265
C113  C     C_R   0.953940 0.895837 0.943327 -0.099313
C114  C     C_R   0.476299 0.103698 0.032162 0.092371
C115  C     C_R   0.976299 0.396302 0.032162 0.092371
C116  C     C_R   0.023701 0.603698 0.967838 0.092371
C117  C     C_R   0.023701 0.396302 0.967838 0.092371
C118  C     C_R   0.976299 0.603698 0.032162 0.092371
C119  C     C_R   0.500000 0.878260 0.000000 0.026157
C120  C     C_R   0.500000 0.121740 0.000000 0.026157
C121  C     C_R   1.000000 0.378260 0.000000 0.026157
C122  C     C_R   1.000000 0.621740 1.000000 0.026157
C123  C     C_3   0.811784 0.184272 0.595479 -0.275257
C124  C     C_R   0.625463 0.358630 0.955214 0.100860
C125  C     C_3   0.750451 0.168787 0.576809 -0.430326
C126  C     C_3   0.188247 0.815731 0.404523 -0.275256
C127  C     C_3   0.249587 0.831205 0.423193 -0.430327
C128  C     C_3   0.188248 0.184269 0.404523 -0.275256
C129  C     C_3   0.249588 0.168795 0.423193 -0.430326
C130  C     C_3   0.811761 0.815731 0.595477 -0.275256
C131  C     C_3   0.750423 0.831207 0.576807 -0.430327
C132  C     C_3   0.311748 0.684268 0.595477 -0.275256
C133  C     C_3   0.250406 0.668796 0.576806 -0.430326
C134  C     C_3   0.688210 0.315728 0.404521 -0.275257
C135  C     C_R   0.374531 0.641369 0.044775 0.100863
C136  C     C_3   0.749541 0.331214 0.423190 -0.430326
C137  C     C_3   0.688238 0.684270 0.404523 -0.275256
C138  C     C_3   0.749576 0.668793 0.423193 -0.430326
C139  C     C_3   0.311751 0.315732 0.595477 -0.275256
C140  C     C_3   0.250410 0.331204 0.576806 -0.430326
C141  C     C_3   0.879649 0.182579 0.747127 -0.281973
C142  C     C_3   0.948499 0.176249 0.779909 -0.408676
C143  C     C_3   0.120385 0.817423 0.252875 -0.281959
C144  C     C_3   0.051537 0.823764 0.220085 -0.408657
C145  C     C_3   0.120387 0.182577 0.252876 -0.281958
C146  C     C_R   0.374516 0.358635 0.044750 0.100867
C147  C     C_3   0.051538 0.176235 0.220085 -0.408656
C148  C     C_3   0.879623 0.817423 0.747125 -0.281963
C149  C     C_3   0.948472 0.823761 0.779914 -0.408661
C150  C     C_3   0.379607 0.682576 0.747124 -0.281955
C151  C     C_3   0.448455 0.676233 0.779918 -0.408650
C152  C     C_3   0.620343 0.317420 0.252872 -0.281977
C153  C     C_3   0.551492 0.323748 0.220093 -0.408681
C154  C     C_3   0.620376 0.682578 0.252875 -0.281962
C155  C     C_3   0.551527 0.676240 0.220087 -0.408661
C156  C     C_3   0.379610 0.317423 0.747124 -0.281956
C157  C     C_R   0.625462 0.641370 0.955213 0.100861
C158  C     C_3   0.448459 0.323766 0.779916 -0.408654
C159  C     C_R   0.125468 0.858631 0.955224 0.100863
C160  C     C_R   0.874536 0.141370 0.044784 0.100861
C161  C     C_R   0.874536 0.858630 0.044784 0.100861
C162  C     C_R   0.125481 0.141366 0.955246 0.100867
C163  C     C_R   0.647227 0.326789 0.952730 0.078163
C164  C     C_R   1.000000 0.121998 0.000000 -0.007265
C165  C     C_R   0.352769 0.673210 0.047263 0.078164
C166  C     C_R   0.352760 0.326794 0.047245 0.078166
C167  C     C_R   0.647226 0.673211 0.952729 0.078163
C168  C     C_R   0.147230 0.826790 0.952737 0.078164
C169  C     C_R   0.852773 0.173211 0.047269 0.078162
C170  C     C_R   0.852772 0.826789 0.047269 0.078163
C171  C     C_R   0.147239 0.173207 0.952752 0.078166
C172  C     C_R   0.702342 0.314246 0.009175 0.009442
C173  C     C_R   0.297655 0.685754 0.990819 0.009445
C174  C     C_R   0.297647 0.314246 0.990804 0.009450
C175  C     C_R   1.000000 0.878002 0.000000 -0.007265
C176  C     C_R   0.702341 0.685754 0.009175 0.009442
C177  C     C_R   0.202345 0.814246 0.009181 0.009444
C178  C     C_R   0.797658 0.185754 0.990824 0.009442
C179  C     C_R   0.797658 0.814246 0.990824 0.009443
C180  C     C_R   0.202352 0.185754 0.009194 0.009449
C181  C     C_R   0.734863 0.333858 0.068105 0.121355
C182  C     C_R   0.265133 0.666143 0.931887 0.121351
C183  C     C_R   0.265122 0.333853 0.931868 0.121350
C184  C     C_R   0.734862 0.666141 0.068104 0.121352
C185  C     C_R   0.234867 0.833857 0.068112 0.121352
C186  C     C_R   0.500000 0.948905 0.000000 -0.020620
C187  C     C_R   0.765137 0.166142 0.931894 0.121354
C188  C     C_R   0.765136 0.833858 0.931894 0.121352
C189  C     C_R   0.234877 0.166146 0.068129 0.121351
C190  C     C_R   0.712794 0.365657 0.070225 0.115855
C191  C     C_R   0.287200 0.634345 0.929763 0.115851
C192  C     C_R   0.287183 0.365652 0.929737 0.115849
C193  C     C_R   0.712793 0.634343 0.070224 0.115853
C194  C     C_R   0.212800 0.865656 0.070236 0.115851
C195  C     C_R   0.787205 0.134343 0.929773 0.115854
C196  C     C_R   0.787205 0.865657 0.929772 0.115852
C197  C     C_R   0.500000 0.051094 0.000000 -0.020620
C198  C     C_R   0.212814 0.134347 0.070259 0.115850
C199  C     C_R   0.658438 0.378125 0.013688 0.106198
C200  C     C_R   0.341554 0.621876 0.986299 0.106200
C201  C     C_R   0.341536 0.378125 0.986270 0.106201
C202  C     C_R   0.658438 0.621875 0.013686 0.106199
C203  C     C_R   0.158445 0.878124 0.013700 0.106199
C204  C     C_R   0.841561 0.121875 0.986311 0.106199
C205  C     C_R   0.841560 0.878124 0.986310 0.106199
C206  C     C_R   0.158461 0.121875 0.013726 0.106200
C207  C     C_R   0.281189 0.780117 0.007281 0.100496
C208  C     C_R   1.000000 0.448906 1.000000 -0.020620
C209  C     C_R   0.718812 0.219883 0.992721 0.100495
C210  C     C_R   0.718812 0.780117 0.992721 0.100495
C211  C     C_R   0.281192 0.219884 0.007287 0.100495
C212  C     C_R   0.781188 0.280117 0.007279 0.100495
C213  C     C_R   0.218810 0.719884 0.992718 0.100495
C214  C     C_R   0.218807 0.280116 0.992713 0.100496
C215  C     C_R   0.781188 0.719883 0.007279 0.100495
C216  C     C_R   0.500001 0.551332 0.999999 0.040802
C217  C     C_R   0.500001 0.448668 0.999998 0.040800
C218  C     C_R   0.999999 0.051332 0.000001 0.040800
C219  C     C_R   1.000000 0.551094 1.000000 -0.020620
C220  C     C_R   0.999999 0.948668 0.000001 0.040802
C221  C     C_R   0.304237 0.749401 0.000951 0.006614
C222  C     C_R   0.695763 0.250599 0.999049 0.006617
C223  C     C_R   0.695763 0.749401 0.999049 0.006617
C224  C     C_R   0.304237 0.250599 0.000951 0.006612
C225  C     C_R   0.804237 0.249401 0.000951 0.006616
C226  C     C_R   0.195763 0.750599 0.999049 0.006615
C227  C     C_R   0.195763 0.249401 0.999049 0.006613
C228  C     C_R   0.804237 0.750599 0.000951 0.006616
C229  C     C_R   0.273104 0.718970 0.993891 -0.013850
C230  C     C_1   0.500000 0.984896 0.000000 -0.007225
C231  C     C_R   0.726895 0.281030 0.006107 -0.013849
C232  C     C_R   0.726895 0.718970 0.006107 -0.013849
C233  C     C_R   0.273101 0.281030 0.993884 -0.013852
C234  C     C_R   0.773105 0.218970 0.993893 -0.013849
C235  C     C_R   0.226896 0.781030 0.006109 -0.013850
C236  C     C_R   0.226899 0.218970 0.006115 -0.013851
C237  C     C_R   0.773105 0.781030 0.993893 -0.013850
C238  C     C_R   0.825514 0.216366 0.636597 0.047899
C239  C     C_R   0.174502 0.783636 0.363404 0.047897
C240  C     C_R   0.174502 0.216364 0.363404 0.047897
F1    F     F_    0.310116 0.809491 0.011499 -0.150990
F2    F     F_    0.590806 0.447789 0.112150 -0.160157
F3    F     F_    0.590807 0.552211 0.112149 -0.160157
F4    F     F_    0.409196 0.447789 0.887847 -0.160156
F5    F     F_    0.909194 0.052211 0.887850 -0.160157
F6    F     F_    0.090806 0.947789 0.112152 -0.160157
F7    F     F_    0.090804 0.052211 0.112153 -0.160156
F8    F     F_    0.909193 0.947789 0.887850 -0.160157
F9    F     F_    0.452281 0.880186 0.063096 -0.151127
F10   F     F_    0.547719 0.119814 0.936905 -0.151127
F11   F     F_    0.547719 0.880186 0.936904 -0.151127
F12   F     F_    0.689886 0.190508 0.988505 -0.150991
F13   F     F_    0.452281 0.119814 0.063095 -0.151126
F14   F     F_    0.952281 0.380186 0.063095 -0.151127
F15   F     F_    0.047719 0.619814 0.936905 -0.151127
F16   F     F_    0.047719 0.380186 0.936905 -0.151126
F17   F     F_    0.952281 0.619814 0.063095 -0.151127
F18   F     F_    0.638140 0.409345 0.015248 -0.155093
F19   F     F_    0.361851 0.590655 0.984735 -0.155092
F20   F     F_    0.361827 0.409346 0.984699 -0.155090
F21   F     F_    0.638139 0.590655 0.015246 -0.155093
F22   F     F_    0.138148 0.909345 0.015263 -0.155092
F23   F     F_    0.689886 0.809492 0.988506 -0.150991
F24   F     F_    0.861859 0.090655 0.984749 -0.155092
F25   F     F_    0.861858 0.909345 0.984748 -0.155092
F26   F     F_    0.138169 0.090655 0.015296 -0.155090
F27   F     F_    0.572765 0.370843 0.900524 -0.172039
F28   F     F_    0.427228 0.629154 0.099464 -0.172039
F29   F     F_    0.427212 0.370853 0.099436 -0.172039
F30   F     F_    0.572765 0.629157 0.900522 -0.172039
F31   F     F_    0.072771 0.870846 0.900535 -0.172039
F32   F     F_    0.927234 0.129156 0.099475 -0.172039
F33   F     F_    0.927233 0.870844 0.099474 -0.172039
F34   F     F_    0.310122 0.190509 0.011510 -0.150988
F35   F     F_    0.072786 0.129148 0.900560 -0.172038
F36   F     F_    0.615355 0.308458 0.895083 -0.175473
F37   F     F_    0.384642 0.691539 0.104912 -0.175476
F38   F     F_    0.384636 0.308467 0.104899 -0.175482
F39   F     F_    0.615354 0.691543 0.895082 -0.175472
F40   F     F_    0.115358 0.808460 0.895088 -0.175475
F41   F     F_    0.884645 0.191542 0.104917 -0.175473
F42   F     F_    0.884644 0.808458 0.104917 -0.175474
F43   F     F_    0.115364 0.191534 0.895099 -0.175481
F44   F     F_    0.787806 0.322122 0.123374 -0.152729
F45   F     F_    0.810114 0.309492 0.011494 -0.150991
F46   F     F_    0.212191 0.677881 0.876619 -0.152732
F47   F     F_    0.212181 0.322112 0.876604 -0.152732
F48   F     F_    0.787805 0.677877 0.123373 -0.152730
F49   F     F_    0.287809 0.822119 0.123380 -0.152731
F50   F     F_    0.712194 0.177878 0.876625 -0.152729
F51   F     F_    0.712194 0.822122 0.876625 -0.152730
F52   F     F_    0.287818 0.177887 0.123394 -0.152732
F53   F     F_    0.744470 0.384553 0.127034 -0.151979
F54   F     F_    0.255523 0.615451 0.872953 -0.151983
F55   F     F_    0.255503 0.384543 0.872922 -0.151983
F56   F     F_    0.189884 0.690509 0.988501 -0.150990
F57   F     F_    0.744469 0.615447 0.127032 -0.151981
F58   F     F_    0.244476 0.884550 0.127046 -0.151982
F59   F     F_    0.755530 0.115448 0.872965 -0.151980
F60   F     F_    0.755529 0.884552 0.872964 -0.151981
F61   F     F_    0.244494 0.115456 0.127073 -0.151983
F62   F     F_    0.189878 0.309491 0.988490 -0.150988
F63   F     F_    0.810114 0.690508 0.011494 -0.150990
F64   F     F_    0.409195 0.552211 0.887848 -0.160157
H1    H     H_    0.418101 0.617441 0.899014 0.141926
H2    H     H_    0.131131 0.698611 0.265126 0.134084
H3    H     H_    0.539145 0.348636 0.194650 0.163406
H4    H     H_    0.645800 0.339304 0.285044 0.139189
H5    H     H_    0.631909 0.318356 0.214536 0.184182
H6    H     H_    0.540339 0.676117 0.258972 0.161097
H7    H     H_    0.523385 0.695781 0.181854 0.168844
H8    H     H_    0.539194 0.651352 0.194644 0.163391
H9    H     H_    0.631950 0.681647 0.214545 0.184188
H10   H     H_    0.645840 0.660696 0.285049 0.139184
H11   H     H_    0.476604 0.304225 0.818150 0.168844
H12   H     H_    0.459650 0.323891 0.741033 0.161098
H13   H     H_    0.131130 0.301389 0.265126 0.134084
H14   H     H_    0.460786 0.348653 0.805359 0.163384
H15   H     H_    0.354144 0.339304 0.714949 0.139182
H16   H     H_    0.368033 0.318352 0.785452 0.184191
H17   H     H_    0.868863 0.698611 0.734874 0.134082
H18   H     H_    0.368876 0.801389 0.734873 0.134087
H19   H     H_    0.631164 0.198610 0.265126 0.134071
H20   H     H_    0.631138 0.801389 0.265126 0.134081
H21   H     H_    0.368872 0.198611 0.734874 0.134086
H22   H     H_    0.806696 0.301654 0.612104 0.120664
H23   H     H_    0.193279 0.698346 0.387896 0.120665
H24   H     H_    0.193277 0.301654 0.387896 0.120665
H25   H     H_    0.581898 0.382559 0.100985 0.141930
H26   H     H_    0.806716 0.698346 0.612104 0.120665
H27   H     H_    0.306729 0.801654 0.612104 0.120665
H28   H     H_    0.693312 0.198346 0.387896 0.120664
H29   H     H_    0.693285 0.801654 0.387896 0.120664
H30   H     H_    0.306726 0.198346 0.612104 0.120665
H31   H     H_    0.457952 0.944964 0.056724 0.138236
H32   H     H_    0.542049 0.055036 0.943277 0.138236
H33   H     H_    0.542048 0.944964 0.943276 0.138236
H34   H     H_    0.457951 0.055036 0.056723 0.138236
H35   H     H_    0.957951 0.444964 0.056723 0.138236
H36   H     H_    0.581899 0.617441 0.100985 0.141927
H37   H     H_    0.042049 0.555036 0.943277 0.138236
H38   H     H_    0.042049 0.444964 0.943277 0.138236
H39   H     H_    0.957951 0.555036 0.056723 0.138236
H40   H     H_    0.750606 0.163080 0.622622 0.159490
H41   H     H_    0.711912 0.186389 0.544443 0.164590
H42   H     H_    0.742474 0.145046 0.548445 0.146105
H43   H     H_    0.809761 0.189464 0.548373 0.149000
H44   H     H_    0.849733 0.165684 0.622124 0.142843
H45   H     H_    0.288118 0.813599 0.455558 0.164588
H46   H     H_    0.249434 0.836908 0.377380 0.159490
H47   H     H_    0.418102 0.382559 0.899013 0.141926
H48   H     H_    0.257575 0.854948 0.451557 0.146105
H49   H     H_    0.150306 0.834323 0.377879 0.142842
H50   H     H_    0.190269 0.810543 0.451630 0.149001
H51   H     H_    0.249436 0.163092 0.377380 0.159490
H52   H     H_    0.288119 0.186401 0.455559 0.164589
H53   H     H_    0.257577 0.145052 0.451557 0.146106
H54   H     H_    0.190270 0.189457 0.451630 0.149001
H55   H     H_    0.150308 0.165676 0.377879 0.142842
H56   H     H_    0.711890 0.813603 0.544441 0.164589
H57   H     H_    0.750576 0.836911 0.622620 0.159489
H58   H     H_    0.918102 0.117441 0.899015 0.141929
H59   H     H_    0.742438 0.854950 0.548443 0.146105
H60   H     H_    0.849704 0.834322 0.622122 0.142842
H61   H     H_    0.809739 0.810541 0.548371 0.149001
H62   H     H_    0.250558 0.663094 0.622619 0.159489
H63   H     H_    0.211878 0.686403 0.544440 0.164589
H64   H     H_    0.242416 0.645053 0.548442 0.146106
H65   H     H_    0.309728 0.689455 0.548371 0.149001
H66   H     H_    0.349687 0.665675 0.622122 0.142842
H67   H     H_    0.788082 0.313614 0.455556 0.164590
H68   H     H_    0.749385 0.336923 0.377377 0.159490
H69   H     H_    0.081899 0.882559 0.100986 0.141927
H70   H     H_    0.757516 0.354956 0.451554 0.146104
H71   H     H_    0.650259 0.334314 0.377875 0.142843
H72   H     H_    0.690235 0.310535 0.451627 0.149001
H73   H     H_    0.749423 0.663088 0.377380 0.159489
H74   H     H_    0.788109 0.686397 0.455558 0.164589
H75   H     H_    0.757561 0.645050 0.451557 0.146105
H76   H     H_    0.690260 0.689459 0.451629 0.149001
H77   H     H_    0.650295 0.665679 0.377878 0.142842
H78   H     H_    0.211880 0.313598 0.544440 0.164589
H79   H     H_    0.250562 0.336907 0.622619 0.159490
H80   H     H_    0.081897 0.117441 0.100987 0.141926
H81   H     H_    0.242421 0.354947 0.548442 0.146105
H82   H     H_    0.349691 0.334324 0.622122 0.142841
H83   H     H_    0.309731 0.310544 0.548371 0.149001
H84   H     H_    0.959683 0.176131 0.741020 0.161096
H85   H     H_    0.976637 0.195792 0.818140 0.168846
H86   H     H_    0.960843 0.151361 0.805352 0.163402
H87   H     H_    0.868081 0.181645 0.785462 0.184183
H88   H     H_    0.854190 0.160696 0.714955 0.139188
H89   H     H_    0.023393 0.804223 0.181852 0.168844
H90   H     H_    0.040347 0.823888 0.258970 0.161098
H91   H     H_    0.918100 0.882559 0.899015 0.141927
H92   H     H_    0.039208 0.848652 0.194643 0.163387
H93   H     H_    0.145851 0.839304 0.285050 0.139182
H94   H     H_    0.131961 0.818352 0.214547 0.184190
H95   H     H_    0.040348 0.176111 0.258969 0.161098
H96   H     H_    0.023394 0.195777 0.181852 0.168844
H97   H     H_    0.039210 0.151348 0.194643 0.163386
H98   H     H_    0.131963 0.181647 0.214547 0.184190
H99   H     H_    0.145853 0.160696 0.285050 0.139182
H100  H     H_    0.976614 0.804219 0.818147 0.168844
H101  H     H_    0.959660 0.823883 0.741029 0.161098
H102  H     H_    0.868843 0.301389 0.734874 0.134073
H103  H     H_    0.960804 0.848649 0.805357 0.163390
H104  H     H_    0.854159 0.839304 0.714951 0.139184
H105  H     H_    0.868049 0.818353 0.785455 0.184189
H106  H     H_    0.459647 0.676107 0.741035 0.161099
H107  H     H_    0.476600 0.695773 0.818152 0.168843
H108  H     H_    0.460780 0.651345 0.805360 0.163382
H109  H     H_    0.368028 0.681648 0.785451 0.184191
H110  H     H_    0.354139 0.660696 0.714949 0.139181
H111  H     H_    0.523357 0.304204 0.181862 0.168846
H112  H     H_    0.540310 0.323864 0.258983 0.161095
O1    O     O_3   0.500000 0.249970 0.000000 -0.448872
O2    O     O_R   0.096160 0.269650 0.960760 -0.507599
O3    O     O_R   0.096160 0.730350 0.960760 -0.507599
O4    O     O_R   0.903840 0.269650 0.039240 -0.507599
O5    O     O_R   0.394820 0.269600 0.850350 -0.551098
O6    O     O_R   0.605180 0.730400 0.149650 -0.551095
O7    O     O_R   0.605180 0.269600 0.149650 -0.551091
O8    O     O_R   0.394820 0.730400 0.850350 -0.551098
O9    O     O_R   0.894820 0.769600 0.850350 -0.551096
O10   O     O_R   0.105180 0.230400 0.149650 -0.551098
O11   O     O_R   0.105180 0.769600 0.149650 -0.551097
O12   O     O_3   0.500000 0.750030 0.000000 -0.448871
O13   O     O_R   0.894820 0.230400 0.850350 -0.551092
O14   O     O_R   0.450030 0.324790 0.960750 -0.549203
O15   O     O_R   0.549970 0.675210 0.039250 -0.549203
O16   O     O_R   0.549970 0.324790 0.039250 -0.549203
O17   O     O_R   0.450030 0.675210 0.960750 -0.549204
O18   O     O_R   0.950030 0.824790 0.960750 -0.549203
O19   O     O_R   0.049970 0.175210 0.039250 -0.549203
O20   O     O_R   0.049970 0.824790 0.039250 -0.549203
O21   O     O_R   0.950030 0.175210 0.960750 -0.549203
O22   O     O_R   0.489260 0.175140 0.039240 -0.516715
O23   O     O_3   0.000000 0.749970 0.000000 -0.448871
O24   O     O_R   0.510740 0.824860 0.960760 -0.516715
O25   O     O_R   0.510740 0.175140 0.960760 -0.516716
O26   O     O_R   0.489260 0.824860 0.039240 -0.516716
O27   O     O_R   0.989260 0.675140 0.039240 -0.516716
O28   O     O_R   0.010740 0.324860 0.960760 -0.516715
O29   O     O_R   0.010740 0.675140 0.960760 -0.516715
O30   O     O_R   0.989260 0.324860 0.039240 -0.516716
O31   O     O_R   0.455530 0.230360 0.850350 -0.534622
O32   O     O_R   0.544470 0.769640 0.149650 -0.534622
O33   O     O_R   0.544470 0.230360 0.149650 -0.534622
O34   O     O_3   0.000000 0.250030 0.000000 -0.448872
O35   O     O_R   0.455530 0.769640 0.850350 -0.534621
O36   O     O_R   0.955530 0.730360 0.850350 -0.534621
O37   O     O_R   0.044470 0.269640 0.149650 -0.534621
O38   O     O_R   0.044470 0.730360 0.149650 -0.534622
O39   O     O_R   0.955530 0.269640 0.850350 -0.534621
O40   O     O_R   0.364600 0.269590 0.960770 -0.544385
O41   O     O_R   0.635400 0.730410 0.039230 -0.544384
O42   O     O_R   0.635400 0.269590 0.039230 -0.544382
O43   O     O_R   0.364600 0.730410 0.960770 -0.544384
O44   O     O_R   0.864600 0.769590 0.960770 -0.544383
O45   O     O_R   0.403840 0.230350 0.039240 -0.507600
O46   O     O_R   0.135400 0.230410 0.039230 -0.544385
O47   O     O_R   0.135400 0.769590 0.039230 -0.544384
O48   O     O_R   0.864600 0.230410 0.960770 -0.544382
O49   O     O_R   0.596160 0.769650 0.960760 -0.507598
O50   O     O_R   0.596160 0.230350 0.960760 -0.507599
O51   O     O_R   0.403840 0.769650 0.039240 -0.507599
O52   O     O_R   0.903840 0.730350 0.039240 -0.507599
Zn1   Zn    Zn3+2 0.515340 0.221940 0.943940 0.981188
Zn2   Zn    Zn3+2 0.571400 0.722000 0.056060 0.935508
Zn3   Zn    Zn3+2 0.571400 0.278000 0.056060 0.935513
Zn4   Zn    Zn3+2 0.428600 0.722000 0.943940 0.935504
Zn5   Zn    Zn3+2 0.928600 0.778000 0.943940 0.935508
Zn6   Zn    Zn3+2 0.071400 0.222000 0.056060 0.935505
Zn7   Zn    Zn3+2 0.071400 0.778000 0.056060 0.935506
Zn8   Zn    Zn3+2 0.928600 0.222000 0.943940 0.935512
Zn9   Zn    Zn3+2 0.484660 0.778060 0.056060 0.981188
Zn10  Zn    Zn3+2 0.484660 0.221940 0.056060 0.981186
Zn11  Zn    Zn3+2 0.515340 0.778060 0.943940 0.981189
Zn12  Zn    Zn3+2 0.015340 0.721940 0.943940 0.981188
Zn13  Zn    Zn3+2 0.984660 0.278060 0.056060 0.981188
Zn14  Zn    Zn3+2 0.984660 0.721940 0.056060 0.981188
Zn15  Zn    Zn3+2 0.015340 0.278060 0.943940 0.981187
Zn16  Zn    Zn3+2 0.428600 0.278000 0.943940 0.935504

loop_
_geom_bond_atom_site_label_1
_geom_bond_atom_site_label_2
_ccdc_geom_bond_type
C174  C233  S    
C126  C127  S    
C46   C112  A    
C198  C206  A    
C77   F4    S    
C81   F7    S    
O2    Zn15  S    
C9    C143  S    
O29   Zn12  S    
O34   Zn6   S    
O3    Zn12  S    
C109  F9    S    
C29   H17   S    
C50   C59   S    
C57   C76   A    
C130  H60   S    
C70   C228  S    
C146  C201  A    
C55   C59   T    
C207  F1    S    
C117  F16   S    
C184  C193  A    
C176  C232  S    
C156  H15   S    
O45   Zn10  S    
C68   C77   A    
C78   F5    S    
C215  C228  A    
C38   H26   S    
O13   Zn8   S    
O14   Zn16  S    
C15   C154  S    
C213  C226  A    
C44   C53   S    
C191  F54   S    
C162  C171  A    
C99   O30   A    
C130  H61   S    
C152  H4    S    
C61   C216  S    
C4    C12   A    
C185  C194  A    
C104  H34   S    
C113  C175  A    
C123  C238  S    
C129  H51   S    
C153  H112  S    
C106  C219  A    
C100  C109  A    
C209  C222  A    
O17   Zn4   S    
C161  C205  A    
C190  C199  A    
C163  F36   S    
C101  C164  A    
C204  F24   S    
C141  H88   S    
C11   C20   A    
O22   Zn10  S    
C23   C84   S    
C139  H82   S    
C12   C150  S    
C185  F49   S    
C177  C235  S    
C128  H54   S    
C179  C188  A    
C195  F59   S    
C46   H25   S    
C224  C233  A    
C160  C204  A    
C142  H85   S    
C189  F52   S    
C181  C190  A    
C102  C197  A    
O1    Zn10  S    
C163  C172  A    
C83   O5    A    
C154  C155  S    
C161  F33   S    
C212  C225  A    
C83   O31   A    
C100  H31   S    
C205  F25   S    
C173  C182  A    
C192  F55   S    
O19   Zn6   S    
O49   Zn11  S    
C36   C44   A    
C214  C233  A    
C127  H45   S    
C37   C45   A    
C157  F30   S    
C167  F39   S    
C213  C229  A    
C223  C232  A    
C168  F40   S    
C67   O50   A    
C16   C25   A    
C176  C184  A    
O1    Zn1   S    
C21   C86   S    
C123  H43   S    
C18   C89   S    
C8    C17   A    
C134  C136  S    
C139  C140  S    
C186  C230  S    
C8    C238  A    
C144  H89   S    
C82   F8    S    
O44   Zn5   S    
C158  H11   S    
C156  C158  S    
C130  C131  S    
C201  F20   S    
O31   Zn1   S    
C199  F18   S    
O35   Zn11  S    
C77   C217  A    
C147  H97   S    
C98   O29   A    
C99   O28   A    
C145  H99   S    
C169  F41   S    
C97   O26   A    
C73   C225  S    
C126  H49   S    
C3    C11   A    
C49   C58   S    
C129  H53   S    
C180  C236  S    
C1    C93   S    
C25   C83   S    
C143  H93   S    
O39   Zn15  S    
C65   C224  S    
C143  C144  S    
O10   Zn6   S    
O37   Zn13  S    
O48   Zn8   S    
C115  C121  A    
C133  H64   S    
C86   O35   A    
C65   O40   A    
C17   C91   S    
C128  C129  S    
C151  H106  S    
C57   H36   S    
C207  C235  A    
C4    C132  S    
C94   O20   A    
C151  H108  S    
O46   Zn6   S    
C124  C199  A    
C225  C234  A    
C95   O19   A    
C150  H109  S    
O32   Zn9   S    
C42   H30   S    
C180  C189  A    
O40   Zn16  S    
C154  H9    S    
C11   C148  S    
C136  H68   S    
C40   C49   A    
C20   C87   S    
C97   O24   A    
C111  C119  A    
C118  C122  A    
C22   C85   S    
C150  H110  S    
C108  C219  A    
C172  C181  A    
C96   O22   A    
C125  H41   S    
C29   C38   A    
C32   C41   A    
C8    C141  S    
C69   C221  S    
C94   C175  S    
C124  C163  A    
O1    Zn3   S    
C67   O42   A    
C85   O33   A    
O23   Zn14  S    
C132  H66   S    
C46   C75   A    
C84   O32   A    
C125  H40   S    
C84   O6    A    
C215  C232  A    
C62   C217  S    
C76   F3    S    
C88   O10   A    
C191  C200  A    
C37   H24   S    
C178  C234  S    
O27   Zn14  S    
C147  H95   S    
C139  H83   S    
O34   Zn15  S    
C97   C119  S    
C90   H69   S    
C9    C239  A    
C19   C28   A    
C71   O2    A    
C1    C57   A    
C91   O13   A    
C192  C201  A    
C13   C208  S    
C82   C220  A    
C6    C50   A    
C214  C227  A    
O36   Zn12  S    
C107  H38   S    
O6    Zn2   S    
O33   Zn10  S    
O26   Zn9   S    
C87   O36   A    
C207  C221  A    
C73   O4    A    
C41   H29   S    
C135  F28   S    
C80   F6    S    
C75   C217  A    
C101  H80   S    
C105  C208  A    
C138  H75   S    
C94   O18   A    
C53   C56   T    
C210  F23   S    
C98   C122  S    
C155  H8    S    
C102  H32   S    
C105  C115  A    
C71   O46   A    
C137  H77   S    
C34   C43   A    
C82   C113  A    
C66   C223  S    
C222  C231  A    
C123  H44   S    
C69   O51   A    
C215  F63   S    
O47   Zn7   S    
C36   H23   S    
C33   H21   S    
C170  C179  A    
C32   H20   S    
C91   O39   A    
C28   H13   S    
C14   C22   A    
C6    C137  S    
C187  F50   S    
C28   C37   A    
C156  H16   S    
C3    C47   A    
C107  C117  A    
C30   C39   A    
C72   O47   A    
C158  H14   S    
C70   O44   A    
C61   C62   T    
C212  F45   S    
O11   Zn7   S    
O41   Zn2   S    
C68   H47   S    
C2    C230  T    
C209  F12   S    
C63   C64   T    
O38   Zn14  S    
C9    C18   A    
C152  C153  S    
C14   C152  S    
C150  C151  S    
C51   C60   S    
C193  F57   S    
C153  H111  S    
C35   C74   A    
C149  H101  S    
C211  F34   S    
C169  C178  A    
O18   Zn5   S    
C105  H35   S    
O7    Zn3   S    
C79   C164  A    
O28   Zn15  S    
C5    C49   A    
C183  C192  A    
C157  C167  A    
C203  F22   S    
C110  F10   S    
C66   O49   A    
C227  C236  A    
C141  H87   S    
C30   H18   S    
C116  C122  A    
O34   Zn13  S    
C170  F42   S    
C123  C125  S    
C148  H105  S    
C168  C177  A    
O51   Zn9   S    
C149  H100  S    
C177  C185  A    
C31   C40   A    
C103  C111  A    
C209  C234  A    
O12   Zn9   S    
C142  H86   S    
C213  F56   S    
O23   Zn12  S    
C131  H56   S    
C16   C156  S    
C160  C169  A    
C74   F64   S    
C138  H73   S    
C187  C195  A    
C183  F47   S    
C155  H6    S    
C140  H79   S    
C72   C226  S    
C162  C206  A    
C159  F31   S    
C127  H48   S    
O12   Zn2   S    
C126  C239  S    
C145  C147  S    
C172  C231  S    
C198  F61   S    
C166  C174  A    
C210  C237  A    
C181  F44   S    
C19   C88   S    
C133  H62   S    
C135  C200  A    
C212  C231  A    
C92   C112  S    
C81   C101  A    
C195  C204  A    
C90   C175  A    
O5    Zn16  S    
C144  H90   S    
C193  C202  A    
C106  C116  A    
C158  H12   S    
O15   Zn2   S    
C70   O52   A    
C76   C216  A    
C10   C19   A    
O21   Zn8   S    
C113  H91   S    
C145  H98   S    
C135  C165  A    
O16   Zn3   S    
C31   H19   S    
C89   O38   A    
C107  C208  A    
C126  H50   S    
C178  C187  A    
C129  H52   S    
C7    C16   A    
C149  H103  S    
C102  C110  A    
C108  H39   S    
C182  C191  A    
C33   C42   A    
C202  F21   S    
C41   C50   A    
C188  F51   S    
C109  C119  A    
C200  F19   S    
C114  F13   S    
O23   Zn7   S    
C210  C223  A    
C133  H63   S    
C131  H59   S    
C152  H5    S    
C66   O41   A    
C146  F29   S    
C165  F37   S    
C174  C183  A    
C35   H1    S    
C27   H2    S    
C69   O43   A    
C151  H107  S    
C27   C36   A    
C128  C240  S    
O50   Zn1   S    
C21   C30   A    
C124  F27   S    
C23   C32   A    
O8    Zn4   S    
C7    C51   A    
C228  C237  A    
C179  C237  S    
O12   Zn11  S    
C142  H84   S    
C95   C164  S    
C78   C218  A    
C154  H10   S    
C115  F14   S    
C211  C224  A    
O25   Zn1   S    
C43   C52   S    
C85   O7    A    
C24   C219  S    
C103  H33   S    
C86   O8    A    
C221  C229  A    
C106  H37   S    
C93   O17   A    
C95   O21   A    
C127  H46   S    
C92   O14   A    
O12   Zn4   S    
C165  C173  A    
C93   O15   A    
C114  C120  A    
C40   H28   S    
C39   C48   A    
C214  F62   S    
C116  F15   S    
C189  C198  A    
O24   Zn11  S    
O9    Zn5   S    
C10   C240  A    
C98   O27   A    
C3    C130  S    
C104  C197  A    
C118  F17   S    
C54   C60   T    
C159  C168  A    
C144  H92   S    
C17   C26   A    
C63   C218  S    
C73   O48   A    
C68   C112  A    
O30   Zn13  S    
C140  H81   S    
C194  C203  A    
C111  F11   S    
C206  F26   S    
C211  C236  A    
C196  C205  A    
C117  C121  A    
C6    C15   A    
C96   O25   A    
C194  F58   S    
C99   C121  S    
C148  H104  S    
C132  C133  S    
O4    Zn13  S    
O42   Zn3   S    
C143  H94   S    
C42   C51   A    
O1    Zn16  S    
O52   Zn14  S    
C15   C23   A    
C146  C166  A    
C136  H70   S    
C184  F48   S    
C131  H57   S    
C103  C186  A    
C171  F43   S    
C72   O3    A    
C26   C34   A    
C128  H55   S    
C20   C29   A    
C5    C134  S    
C52   C58   T    
C155  H7    S    
C140  H78   S    
C22   C31   A    
C64   C220  S    
C108  C118  A    
O43   Zn4   S    
C137  H76   S    
C148  C149  S    
C110  C120  A    
C75   F2    S    
C78   C79   A    
O34   Zn8   S    
C136  H67   S    
C12   C21   A    
C226  C235  A    
C13   C24   T    
C67   C222  S    
C100  C186  A    
C43   C238  A    
C2    C197  S    
C182  F46   S    
C162  F35   S    
C134  H71   S    
C159  C203  A    
C125  H42   S    
C5    C14   A    
C92   O16   A    
C89   O11   A    
C38   C47   A    
C173  C229  S    
C104  C114  A    
C161  C170  A    
C134  H72   S    
C45   C54   S    
C171  C180  A    
C65   O45   A    
C160  F32   S    
C87   O9    A    
C44   C239  A    
C132  H65   S    
C1    C35   A    
C47   C55   S    
C4    C48   A    
C48   C56   S    
C74   C216  A    
C71   C227  S    
C96   C120  S    
C18   C27   A    
C80   C220  A    
C153  H3    S    
C147  H96   S    
C39   H27   S    
C137  C138  S    
C34   H22   S    
C45   C240  A    
C141  C142  S    
C7    C139  S    
C196  F60   S    
C88   O37   A    
C81   C218  A    
C80   C90   A    
C10   C145  S    
C26   H102  S    
C190  F53   S    
C188  C196  A    
O23   Zn5   S    
C25   C33   A    
O20   Zn7   S    
C157  C202  A    
C166  F38   S    
C79   H58   S    
C167  C176  A    
C138  H74   S    
