data_mof_unit_56646.cif
_audit_creation_date              2012-12-11T14:10:59-0500
_audit_creation_method            fapswitch 2.2
_symmetry_space_group_name_H-M    P1
_symmetry_Int_Tables_number       1
_space_group_crystal_system       monoclinic
_cell_length_a                    19.63324
_cell_length_b                    17.083481
_cell_length_c                    15.655401
_cell_angle_alpha                 90.0
_cell_angle_beta                  52.946687
_cell_angle_gamma                 90.0
_cell_volume                      4190.60133404

loop_
_atom_site_label
_atom_site_type_symbol
_atom_type_description
_atom_site_fract_x
_atom_site_fract_y
_atom_site_fract_z
_atom_type_partial_charge
C1    C     C_R   0.381118 0.198656 0.984755 -0.157655
C2    C     C_3   0.670175 0.720472 0.465400 -0.186107
C3    C     C_3   0.392029 0.396143 0.134948 -0.951494
C4    C     C_3   0.920952 0.219261 0.160700 -0.471445
C5    C     C_3   0.002055 0.186099 0.141864 -0.190419
C6    C     C_3   0.003673 0.096859 0.138128 -0.957762
C7    C     C_3   0.165062 0.760432 0.792695 -0.480321
C8    C     C_3   0.089033 0.815758 0.841394 -0.227410
C9    C     C_3   0.107971 0.896143 0.865052 -0.951493
C10   C     C_3   0.079048 0.219261 0.839300 -0.471445
C11   C     C_3   0.997945 0.186099 0.858136 -0.190420
C12   C     C_3   0.996327 0.096859 0.861870 -0.957756
C13   C     C_3   0.757203 0.229031 0.434705 -0.158434
C14   C     C_3   0.834938 0.760432 0.207305 -0.480322
C15   C     C_3   0.910967 0.815758 0.158606 -0.227409
C16   C     C_3   0.892029 0.896143 0.134948 -0.951493
C17   C     C_3   0.329825 0.720472 0.534600 -0.186107
C18   C     C_3   0.742797 0.729031 0.565295 -0.158435
C19   C     C_3   0.170175 0.220472 0.465400 -0.186107
C20   C     C_3   0.257203 0.729031 0.434705 -0.158435
C21   C     C_3   0.829825 0.220472 0.534600 -0.186106
C22   C     C_2   0.185690 0.746061 0.101743 -0.211470
C23   C     C_2   0.708926 0.315785 0.052338 -0.203786
C24   C     C_2   0.814310 0.746061 0.898257 -0.211470
C25   C     C_R   0.664122 0.829052 0.945782 -0.161683
C26   C     C_2   0.291074 0.315785 0.947662 -0.203786
C27   C     C_2   0.685690 0.246061 0.101743 -0.211469
C28   C     C_2   0.208926 0.815785 0.052338 -0.203785
C29   C     C_2   0.314310 0.246061 0.898257 -0.211469
C30   C     C_2   0.791074 0.815785 0.947662 -0.203786
C31   C     C_R   0.400155 0.800099 0.208862 0.137227
C32   C     C_R   0.644512 0.179759 0.774177 0.170644
C33   C     C_R   0.599844 0.800099 0.791138 0.137227
C34   C     C_R   0.355488 0.179759 0.225823 0.170644
C35   C     C_R   0.900155 0.300100 0.208862 0.137227
C36   C     C_R   0.618881 0.198656 0.015245 -0.157655
C37   C     C_R   0.144512 0.679759 0.774177 0.170644
C38   C     C_R   0.099844 0.300100 0.791138 0.137227
C39   C     C_R   0.855488 0.679759 0.225823 0.170643
C40   C     C_R   0.328591 0.914311 0.952856 -0.154528
C41   C     C_R   0.633614 0.110269 0.104380 -0.152261
C42   C     C_R   0.671409 0.914311 0.047144 -0.154528
C43   C     C_R   0.366386 0.110269 0.895620 -0.152260
C44   C     C_R   0.828591 0.414311 0.952856 -0.154528
C45   C     C_R   0.133614 0.610269 0.104380 -0.152261
C46   C     C_R   0.171409 0.414311 0.047144 -0.154527
C47   C     C_R   0.335878 0.829052 0.054218 -0.161683
C48   C     C_R   0.866386 0.610269 0.895620 -0.152261
C49   C     C_R   0.363904 0.083790 0.317054 -0.165652
C50   C     C_R   0.597806 0.893848 0.693931 -0.179563
C51   C     C_R   0.636095 0.083790 0.682946 -0.165651
C52   C     C_R   0.402194 0.893848 0.306069 -0.179562
C53   C     C_R   0.863904 0.583789 0.317054 -0.165651
C54   C     C_R   0.097806 0.393848 0.693931 -0.179563
C55   C     C_R   0.136095 0.583789 0.682946 -0.165651
C56   C     C_R   0.902194 0.393848 0.306069 -0.179563
C57   C     C_R   0.351536 0.187290 0.925821 0.153793
C58   C     C_R   0.881118 0.698655 0.984755 -0.157655
C59   C     C_R   0.715719 0.855380 0.972155 0.164496
C60   C     C_R   0.648463 0.187290 0.074179 0.153793
C61   C     C_R   0.284281 0.855380 0.027844 0.164496
C62   C     C_R   0.851536 0.687290 0.925821 0.153793
C63   C     C_R   0.215719 0.355380 0.972155 0.164496
C64   C     C_R   0.148463 0.687290 0.074179 0.153794
C65   C     C_R   0.784281 0.355380 0.027844 0.164496
C66   C     C_R   0.384544 0.816762 0.305116 -0.006991
C67   C     C_R   0.682206 0.147373 0.673400 -0.025974
C68   C     C_R   0.615456 0.816762 0.694884 -0.006991
C69   C     C_R   0.164122 0.329051 0.945782 -0.161684
C70   C     C_R   0.317794 0.147373 0.326600 -0.025974
C71   C     C_R   0.884544 0.316762 0.305116 -0.006991
C72   C     C_R   0.182206 0.647373 0.673400 -0.025974
C73   C     C_R   0.115456 0.316762 0.694884 -0.006991
C74   C     C_R   0.817794 0.647373 0.326600 -0.025974
C75   C     C_3   0.216627 0.152512 0.539873 -0.154049
C76   C     C_3   0.696547 0.797077 0.490872 -0.175880
C77   C     C_3   0.783373 0.152512 0.460126 -0.154049
C78   C     C_3   0.303453 0.797077 0.509128 -0.175881
C79   C     C_3   0.716626 0.652512 0.539873 -0.154049
C80   C     C_R   0.118882 0.698655 0.015245 -0.157655
C81   C     C_3   0.196547 0.297077 0.490872 -0.175880
C82   C     C_3   0.283374 0.652512 0.460126 -0.154049
C83   C     C_3   0.803453 0.297077 0.509128 -0.175880
C84   C     C_3   0.629997 0.689278 0.579457 -0.136728
C85   C     C_3   0.282217 0.260739 0.452928 -0.134605
C86   C     C_3   0.370002 0.689278 0.420543 -0.136728
C87   C     C_3   0.717783 0.260739 0.547071 -0.134605
C88   C     C_3   0.129998 0.189278 0.579457 -0.136728
C89   C     C_3   0.782217 0.760739 0.452929 -0.134605
C90   C     C_3   0.870002 0.189278 0.420543 -0.136728
C91   C     C_R   0.835878 0.329051 0.054218 -0.161683
C92   C     C_3   0.217783 0.760739 0.547071 -0.134605
C93   C     C_3   0.657441 0.765389 0.602903 0.207383
C94   C     C_3   0.255591 0.185128 0.428087 0.195993
C95   C     C_3   0.342559 0.765389 0.397097 0.207384
C96   C     C_3   0.744409 0.185128 0.571913 0.195992
C97   C     C_3   0.157441 0.265389 0.602903 0.207383
C98   C     C_3   0.755591 0.685128 0.428087 0.195992
C99   C     C_3   0.842559 0.265389 0.397097 0.207383
C100  C     C_3   0.244409 0.685128 0.571913 0.195992
C101  C     C_3   0.420952 0.719261 0.160701 -0.471445
C102  C     C_3   0.242797 0.229031 0.565295 -0.158434
C103  C     C_3   0.502055 0.686098 0.141864 -0.190418
C104  C     C_3   0.503672 0.596859 0.138129 -0.957765
C105  C     C_3   0.665062 0.260432 0.792695 -0.480321
C106  C     C_3   0.589033 0.315758 0.841394 -0.227410
C107  C     C_3   0.607971 0.396143 0.865052 -0.951493
C108  C     C_3   0.579048 0.719261 0.839299 -0.471445
C109  C     C_3   0.497945 0.686098 0.858136 -0.190417
C110  C     C_3   0.496328 0.596859 0.861871 -0.957767
C111  C     C_3   0.334938 0.260432 0.207305 -0.480321
C112  C     C_3   0.410967 0.315758 0.158606 -0.227410
H1    H     H_    0.398605 0.254680 0.997067 0.104226
H2    H     H_    0.638238 0.083082 0.163120 0.089968
H3    H     H_    0.999150 0.075909 0.926632 0.263936
H4    H     H_    0.936351 0.075218 0.877693 0.253367
H5    H     H_    0.940570 0.208470 0.934434 0.186475
H6    H     H_    0.991892 0.205432 0.795524 0.187130
H7    H     H_    0.134701 0.180559 0.785108 0.194923
H8    H     H_    0.068257 0.220674 0.916902 0.179227
H9    H     H_    0.836089 0.923013 0.209475 0.260588
H10   H     H_    0.948067 0.934901 0.101953 0.260850
H11   H     H_    0.879043 0.891251 0.075278 0.256692
H12   H     H_    0.927696 0.822866 0.214478 0.192669
H13   H     H_    0.691693 0.947571 0.086967 0.098607
H14   H     H_    0.966431 0.790058 0.084510 0.192175
H15   H     H_    0.807314 0.757475 0.163933 0.189225
H16   H     H_    0.782405 0.787392 0.282972 0.197769
H17   H     H_    0.361762 0.083082 0.836880 0.089968
H18   H     H_    0.808307 0.447571 0.913033 0.098606
H19   H     H_    0.138238 0.583082 0.163120 0.089969
H20   H     H_    0.191693 0.447571 0.086967 0.098606
H21   H     H_    0.861762 0.583082 0.836880 0.089968
H22   H     H_    0.355495 0.048902 0.380278 0.106419
H23   H     H_    0.592984 0.923041 0.636536 0.098933
H24   H     H_    0.644505 0.048902 0.619722 0.106419
H25   H     H_    0.678215 0.783633 0.889817 0.094602
H26   H     H_    0.407016 0.923041 0.363464 0.098932
H27   H     H_    0.855495 0.548902 0.380278 0.106419
H28   H     H_    0.092984 0.423041 0.636536 0.098933
H29   H     H_    0.144505 0.548902 0.619722 0.106419
H30   H     H_    0.907016 0.423041 0.363464 0.098933
H31   H     H_    0.567428 0.659180 0.628827 0.116552
H32   H     H_    0.345677 0.289246 0.400591 0.111956
H33   H     H_    0.432572 0.659180 0.371173 0.116552
H34   H     H_    0.654323 0.289247 0.599409 0.111956
H35   H     H_    0.067428 0.159180 0.628827 0.116553
H36   H     H_    0.601395 0.254680 0.002933 0.104226
H37   H     H_    0.845677 0.789246 0.400591 0.111956
H38   H     H_    0.932571 0.159180 0.371173 0.116552
H39   H     H_    0.154323 0.789246 0.599409 0.111956
H40   H     H_    0.225583 0.092478 0.558693 0.103357
H41   H     H_    0.688528 0.856676 0.469871 0.105856
H42   H     H_    0.774417 0.092478 0.441307 0.103357
H43   H     H_    0.311472 0.856676 0.530129 0.105857
H44   H     H_    0.725582 0.592478 0.558693 0.103357
H45   H     H_    0.188528 0.356676 0.469871 0.105857
H46   H     H_    0.274418 0.592478 0.441307 0.103357
H47   H     H_    0.321785 0.783633 0.110183 0.094602
H48   H     H_    0.811472 0.356676 0.530129 0.105856
H49   H     H_    0.271993 0.233327 0.607706 0.104895
H50   H     H_    0.641830 0.715699 0.422033 0.114752
H51   H     H_    0.728007 0.233327 0.392294 0.104895
H52   H     H_    0.358169 0.715699 0.577967 0.114752
H53   H     H_    0.771993 0.733327 0.607706 0.104895
H54   H     H_    0.141830 0.215698 0.422033 0.114752
H55   H     H_    0.228007 0.733327 0.392294 0.104895
H56   H     H_    0.858169 0.215698 0.577967 0.114752
H57   H     H_    0.208331 0.725772 0.146158 0.125890
H58   H     H_    0.898605 0.754679 0.997067 0.104226
H59   H     H_    0.685294 0.336122 0.009071 0.124930
H60   H     H_    0.791669 0.725772 0.853841 0.125890
H61   H     H_    0.314706 0.336122 0.990929 0.124930
H62   H     H_    0.708331 0.225772 0.146158 0.125890
H63   H     H_    0.185294 0.836122 0.009071 0.124929
H64   H     H_    0.291669 0.225772 0.853841 0.125890
H65   H     H_    0.814706 0.836122 0.990929 0.124930
H66   H     H_    0.448719 0.572535 0.215789 0.263812
H67   H     H_    0.500845 0.575909 0.073371 0.263939
H68   H     H_    0.563650 0.575217 0.122301 0.253368
H69   H     H_    0.178214 0.283633 0.889817 0.094602
H70   H     H_    0.559429 0.708470 0.065565 0.186475
H71   H     H_    0.508108 0.705431 0.204476 0.187130
H72   H     H_    0.365299 0.680560 0.214892 0.194924
H73   H     H_    0.431742 0.720674 0.083098 0.179226
H74   H     H_    0.663911 0.423013 0.790525 0.260589
H75   H     H_    0.551933 0.434901 0.898047 0.260850
H76   H     H_    0.620957 0.391251 0.924722 0.256691
H77   H     H_    0.572304 0.322866 0.785522 0.192669
H78   H     H_    0.533569 0.290058 0.915490 0.192175
H79   H     H_    0.692686 0.257475 0.836067 0.189225
H80   H     H_    0.101395 0.754679 0.002933 0.104226
H81   H     H_    0.717595 0.287392 0.717028 0.197769
H82   H     H_    0.551281 0.572535 0.784211 0.263812
H83   H     H_    0.499155 0.575909 0.926628 0.263939
H84   H     H_    0.436350 0.575217 0.877699 0.253368
H85   H     H_    0.440571 0.708470 0.934434 0.186475
H86   H     H_    0.491892 0.705431 0.795524 0.187130
H87   H     H_    0.634701 0.680560 0.785108 0.194924
H88   H     H_    0.568257 0.720674 0.916902 0.179226
H89   H     H_    0.336089 0.423012 0.209475 0.260589
H90   H     H_    0.448067 0.434901 0.101952 0.260850
H91   H     H_    0.821785 0.283633 0.110183 0.094602
H92   H     H_    0.379043 0.391251 0.075278 0.256692
H93   H     H_    0.427696 0.322866 0.214478 0.192669
H94   H     H_    0.466431 0.290058 0.084510 0.192175
H95   H     H_    0.307314 0.257475 0.163933 0.189225
H96   H     H_    0.282405 0.287392 0.282972 0.197769
H97   H     H_    0.948718 0.072535 0.215786 0.263812
H98   H     H_    0.000851 0.075910 0.073366 0.263938
H99   H     H_    0.063649 0.075218 0.122305 0.253368
H100  H     H_    0.059429 0.208471 0.065566 0.186475
H101  H     H_    0.008107 0.205431 0.204477 0.187130
H102  H     H_    0.308307 0.947571 0.913033 0.098606
H103  H     H_    0.865299 0.180559 0.214892 0.194923
H104  H     H_    0.931743 0.220674 0.083098 0.179226
H105  H     H_    0.163911 0.923012 0.790525 0.260588
H106  H     H_    0.051933 0.934901 0.898047 0.260850
H107  H     H_    0.120957 0.891251 0.924722 0.256691
H108  H     H_    0.072304 0.822866 0.785522 0.192669
H109  H     H_    0.033569 0.790059 0.915490 0.192175
H110  H     H_    0.192686 0.757475 0.836067 0.189225
H111  H     H_    0.217595 0.787392 0.717028 0.197769
H112  H     H_    0.051283 0.072536 0.784211 0.263811
N1    N     N_R   0.408680 0.130810 0.995780 -0.044075
N2    N     N_R   0.578590 0.132790 0.846380 -0.057229
N3    N     N_R   0.578590 0.867210 0.846380 -0.054251
N4    N     N_R   0.421410 0.132790 0.153620 -0.057229
N5    N     N_R   0.921410 0.367210 0.153620 -0.054251
N6    N     N_R   0.078590 0.632790 0.846380 -0.057229
N7    N     N_R   0.078590 0.367210 0.846380 -0.054251
N8    N     N_R   0.921410 0.632790 0.153620 -0.057229
N9    N     N_R   0.403840 0.921910 0.935760 -0.038381
N10   N     N_R   0.596160 0.078090 0.064240 -0.037507
N11   N     N_R   0.596160 0.921910 0.064240 -0.038381
N12   N     N_R   0.591320 0.869190 0.004220 -0.046817
N13   N     N_R   0.403840 0.078090 0.935760 -0.037508
N14   N     N_R   0.903840 0.421910 0.935760 -0.038381
N15   N     N_R   0.096160 0.578090 0.064240 -0.037507
N16   N     N_R   0.096160 0.421910 0.064240 -0.038381
N17   N     N_R   0.903840 0.578090 0.935760 -0.037507
N18   N     N_R   0.426250 0.076100 0.213650 -0.046471
N19   N     N_R   0.573750 0.923900 0.786350 -0.041212
N20   N     N_R   0.573750 0.076100 0.786350 -0.046471
N21   N     N_R   0.426250 0.923900 0.213650 -0.041212
N22   N     N_R   0.926250 0.576100 0.213650 -0.046471
N23   N     N_R   0.591320 0.130810 0.004220 -0.044075
N24   N     N_R   0.073750 0.423900 0.786350 -0.041212
N25   N     N_R   0.073750 0.576100 0.786350 -0.046471
N26   N     N_R   0.926250 0.423900 0.213650 -0.041212
N27   N     N_R   0.408680 0.869190 0.995780 -0.046817
N28   N     N_R   0.908680 0.630810 0.995780 -0.044075
N29   N     N_R   0.091320 0.369190 0.004220 -0.046817
N30   N     N_R   0.091320 0.630810 0.004220 -0.044075
N31   N     N_R   0.908680 0.369190 0.995780 -0.046817
N32   N     N_R   0.421410 0.867210 0.153620 -0.054251
Ni1   Ni    Ni4+2 0.500000 0.131570 0.000000 0.198385
Ni2   Ni    Ni4+2 0.500000 0.868430 0.000000 0.196849
Ni3   Ni    Ni4+2 0.000000 0.631570 0.000000 0.198385
Ni4   Ni    Ni4+2 0.000000 0.368430 0.000000 0.196849
Ni5   Ni    Ni4+2 0.488900 0.000000 0.862310 0.203222
Ni6   Ni    Ni4+2 0.511100 1.000000 0.137690 0.203222
Ni7   Ni    Ni4+2 0.988900 0.500000 0.862310 0.203222
Ni8   Ni    Ni4+2 0.011100 0.500000 0.137690 0.203222

loop_
_geom_bond_atom_site_label_1
_geom_bond_atom_site_label_2
_ccdc_geom_bond_type
C9    H106  S    
C58   C62   A    
C31   C66   A    
C83   C87   S    
C49   H22   S    
C16   H9    S    
C13   C99   S    
C55   H29   S    
C87   H34   S    
C20   C82   S    
C103  H70   S    
N1    N13   A    
C105  H79   S    
C79   C98   S    
C58   N28   A    
N7    N24   A    
C76   C93   S    
N22   Ni8   S    
C41   H2    S    
C90   H38   S    
C2    C76   S    
C52   N21   A    
C2    H50   S    
C49   N18   A    
C109  H86   S    
C3    C112  S    
C7    C8    S    
C74   C98   S    
C6    H97   S    
C47   H47   S    
C40   N9    A    
C2    C98   S    
C73   C97   S    
C33   C108  S    
C107  H74   S    
N9    N27   A    
N16   N29   A    
C21   H56   S    
C80   N30   A    
C31   N32   A    
C103  H71   S    
C31   C101  S    
C8    H109  S    
C58   H58   S    
C16   H11   S    
C112  H93   S    
C75   C94   S    
C50   H23   S    
N27   Ni2   S    
N3    N19   A    
C5    C6    S    
C77   H42   S    
C78   H43   S    
C104  H67   S    
C41   N10   A    
C3    H90   S    
C1    N1    A    
C15   C16   S    
C107  H75   S    
C76   H41   S    
C91   H91   S    
C14   H16   S    
C108  C109  S    
N2    Ni1   S    
C51   N20   A    
C85   C94   S    
C39   C74   A    
C20   H55   S    
C16   H10   S    
C53   N22   A    
C12   H112  S    
C10   H7    S    
C43   N13   A    
N3    Ni2   S    
C50   C68   A    
C14   C39   S    
C109  H85   S    
C36   H36   S    
C104  H66   S    
C83   H48   S    
C111  C112  S    
C25   N12   A    
C18   C79   S    
C15   H14   S    
N32   Ni2   S    
C110  H82   S    
C75   C102  S    
C52   H26   S    
N11   N12   A    
C55   N25   A    
C105  C106  S    
C19   H54   S    
C23   C27   D    
N6    N25   A    
C103  C104  S    
C75   H40   S    
C47   N27   A    
N5    N26   A    
C42   H13   S    
C76   C89   S    
C12   H3    S    
C56   H30   S    
C28   C61   S    
C9    H107  S    
C89   H37   S    
C79   H44   S    
C4    C35   S    
C35   C71   A    
C24   H60   S    
C101  C103  S    
C4    H103  S    
C83   C99   S    
C87   C96   S    
C3    H92   S    
C64   C80   A    
N17   Ni7   S    
N14   Ni7   S    
N17   N28   A    
C1    H1    S    
N16   Ni8   S    
C101  H73   S    
N21   Ni6   S    
C27   H62   S    
C42   N11   A    
N23   Ni1   S    
C18   H53   S    
C13   H51   S    
C13   C77   S    
C21   C90   S    
C7    C37   S    
C37   N6    A    
N21   N32   A    
C54   H28   S    
C77   C90   S    
C22   C64   S    
C81   H45   S    
C15   H12   S    
N13   Ni5   S    
C17   C86   S    
C22   H57   S    
C21   C83   S    
C48   H21   S    
C43   H17   S    
C19   C88   S    
C86   C95   S    
C7    H110  S    
C43   C57   A    
N4    Ni1   S    
C8    C9    S    
C6    H99   S    
C84   H31   S    
C78   C92   S    
C82   C86   S    
C71   C99   S    
C107  H76   S    
N8    Ni3   S    
C36   N23   A    
C14   H15   S    
C88   H35   S    
C56   N26   A    
C35   N5    A    
C108  H88   S    
C25   H25   S    
C26   C63   S    
C45   N15   A    
C8    H108  S    
C17   H52   S    
C1    C57   A    
N10   N23   A    
C54   C73   A    
C7    H111  S    
C51   H24   S    
C80   H80   S    
N2    N20   A    
C78   C95   S    
C56   C71   A    
C5    H101  S    
C30   C59   S    
C13   C87   S    
C92   H39   S    
C2    C84   S    
N18   Ni6   S    
N4    N18   A    
C51   C67   A    
C49   C70   A    
N25   Ni7   S    
C101  H72   S    
N26   Ni8   S    
C19   C94   S    
C32   C67   A    
C20   C95   S    
C29   C57   S    
C50   N19   A    
N11   Ni6   S    
C54   N24   A    
C32   C105  S    
C110  H84   S    
C67   C96   S    
C3    H89   S    
N15   Ni8   S    
C20   C92   S    
C106  H78   S    
C29   H64   S    
C11   H5    S    
C86   H33   S    
C111  H95   S    
C90   C99   S    
C110  H83   S    
C52   C66   A    
C92   C100  S    
N9    Ni5   S    
C72   C100  S    
C9    H105  S    
C65   C91   A    
C5    H100  S    
C34   C70   A    
N31   Ni4   S    
C34   C111  S    
C24   C62   S    
C45   C64   A    
C70   C94   S    
C53   H27   S    
C18   C89   S    
C82   C100  S    
C104  H68   S    
C55   C72   A    
C41   C60   A    
C32   N2    A    
C48   N17   A    
C33   N3    A    
C44   N14   A    
C42   C59   A    
C47   C61   A    
C69   N29   A    
C11   C12   S    
C28   H63   S    
C45   H19   S    
C38   N7    A    
C6    H98   S    
C21   C96   S    
N19   Ni5   S    
N7    Ni4   S    
N14   N31   A    
C77   C96   S    
N12   Ni2   S    
C68   C93   S    
C26   H61   S    
C10   C38   S    
C89   C98   S    
C27   C60   S    
N24   Ni7   S    
C108  H87   S    
C48   C62   A    
C88   C97   S    
C112  H94   S    
C63   C69   A    
C109  C110  S    
C46   H20   S    
C105  H81   S    
N29   Ni4   S    
C23   C65   S    
C79   C84   S    
C46   C63   A    
C91   N31   A    
N30   Ni3   S    
C102  H49   S    
C82   H46   S    
C4    C5    S    
C111  H96   S    
C44   C65   A    
C17   C78   S    
C81   C97   S    
C30   H65   S    
C46   N16   A    
N8    N22   A    
C84   C93   S    
C39   N8    A    
C34   N4    A    
C17   C100  S    
C24   C30   D    
C85   H32   S    
C10   H8    S    
C10   C11   S    
C40   C61   A    
N1    Ni1   S    
N5    Ni4   S    
C75   C88   S    
N10   Ni6   S    
C23   H59   S    
N6    Ni3   S    
N28   Ni3   S    
C26   C29   D    
C106  C107  S    
C37   C72   A    
C40   H102  S    
C4    H104  S    
C18   C93   S    
C36   C60   A    
C14   C15   S    
C106  H77   S    
C22   C28   D    
N20   Ni5   S    
C25   C59   A    
N15   N30   A    
C19   C81   S    
C11   H6    S    
C44   H18   S    
C97   C102  S    
C38   C73   A    
C81   C85   S    
C85   C102  S    
C33   C68   A    
C69   H69   S    
C66   C95   S    
C12   H4    S    
C53   C74   A    
