data_mof_unit_11378.cif
_audit_creation_date              2012-12-10T20:46:52-0500
_audit_creation_method            fapswitch 2.2
_symmetry_space_group_name_H-M    P1
_symmetry_Int_Tables_number       1
_space_group_crystal_system       triclinic
_cell_length_a                    12.934783
_cell_length_b                    8.917586
_cell_length_c                    8.081588
_cell_angle_alpha                 89.988614
_cell_angle_beta                  96.655611
_cell_angle_gamma                 90.007655
_cell_volume                      925.904976613

loop_
_atom_site_label
_atom_site_type_symbol
_atom_type_description
_atom_site_fract_x
_atom_site_fract_y
_atom_site_fract_z
_atom_type_partial_charge
C1    C     C_R   0.500028 0.217927 0.500014 0.927105
C2    C     C_R   0.870543 0.516299 0.709492 0.508115
C3    C     C_R   0.135710 0.560327 0.598368 -0.137117
C4    C     C_R   0.862599 0.588886 0.415111 -0.130456
C5    C     C_R   0.027713 0.560884 0.584614 0.037358
C6    C     C_R   0.970028 0.567613 0.425682 0.078026
C7    C     C_1   0.500034 0.065222 0.500013 -0.196382
C8    C     C_1   0.500027 0.934822 0.499977 -0.186450
C9    C     C_2   0.806008 0.679051 0.275881 0.457066
C10   C     C_2   0.193743 0.599767 0.762782 0.489057
C11   C     C_3   0.851459 0.331815 0.903890 0.064375
C12   C     C_R   0.499996 0.782099 0.499985 0.927426
C13   C     C_3   0.773778 0.216188 0.822938 -0.366322
C14   C     C_3   0.800777 0.058134 0.886421 -0.858036
C15   C     C_3   0.142175 0.319374 0.109132 0.025951
C16   C     C_3   0.224775 0.207914 0.184228 -0.356514
C17   C     C_3   0.198932 0.048157 0.125521 -0.837592
C18   C     C_R   0.297197 0.505416 0.469332 0.897057
C19   C     C_R   0.701888 0.512002 0.531769 0.872908
C20   C     C_R   0.812690 0.540609 0.552681 -0.274715
C21   C     C_R   0.184866 0.524466 0.454900 -0.239674
C22   C     C_R   0.019559 0.541485 0.283444 -0.231021
C23   C     C_R   0.976291 0.544772 0.726789 -0.264667
C24   C     C_R   0.125063 0.507517 0.298584 0.475346
H1    H     H_    0.975843 0.532458 0.161503 0.199843
H2    H     H_    0.743166 0.977256 0.825379 0.271581
H3    H     H_    0.798784 0.052205 0.023324 0.273724
H4    H     H_    0.138009 0.313476 0.971236 0.144825
H5    H     H_    0.063930 0.285002 0.141142 0.113489
H6    H     H_    0.301847 0.239856 0.146913 0.249364
H7    H     H_    0.229607 0.211278 0.322343 0.203110
H8    H     H_    0.122862 0.012716 0.163830 0.269265
H9    H     H_    0.260137 0.970389 0.182222 0.272700
H10   H     H_    0.195619 0.040921 0.987784 0.281027
H11   H     H_    0.018343 0.536915 0.850348 0.172381
H12   H     H_    0.726434 0.714734 0.280944 0.091862
H13   H     H_    0.240460 0.516516 0.835184 0.102886
H14   H     H_    0.849374 0.328302 0.040890 0.163288
H15   H     H_    0.932077 0.299757 0.882100 0.098209
H16   H     H_    0.694192 0.244999 0.851658 0.254370
H17   H     H_    0.774332 0.218194 0.685564 0.203389
H18   H     H_    0.879488 0.025679 0.856781 0.272276
N1    N     N_1   0.500020 0.500000 0.073640 -0.030590
N2    N     N_1   0.499980 0.500000 0.926360 -0.031225
O1    O     O_R   0.499990 0.285340 0.636850 -0.627482
O2    O     O_2   0.186118 0.725322 0.820307 -0.553512
O3    O     O_3   0.822648 0.478661 0.848886 -0.589510
O4    O     O_3   0.170662 0.467916 0.157893 -0.617890
O5    O     O_R   0.500010 0.714660 0.363150 -0.625738
O6    O     O_R   0.500010 0.285340 0.363150 -0.624699
O7    O     O_R   0.499990 0.714660 0.636850 -0.606898
O8    O     O_R   0.346350 0.500000 0.614250 -0.660232
O9    O     O_R   0.653650 0.500000 0.385750 -0.650091
O10   O     O_R   0.346360 0.500000 0.340500 -0.563353
O11   O     O_R   0.653640 0.500000 0.659500 -0.562098
O12   O     O_2   0.849305 0.725636 0.159670 -0.566350
Zn1   Zn    Zn3+2 0.499990 0.500000 0.682780 0.998824
Zn2   Zn    Zn3+2 0.500010 0.500000 0.317220 0.992410

loop_
_geom_bond_atom_site_label_1
_geom_bond_atom_site_label_2
_ccdc_geom_bond_type
C10   O2    D    
C11   H14   S    
N1    N2    T    
O7    Zn1   S    
O9    Zn2   S    
C2    O3    S    
C9    H12   S    
C18   C21   S    
C1    O6    A    
C24   O4    S    
C11   O3    S    
C19   C20   S    
C5    C23   A    
C8    C12   S    
N2    Zn1   S    
C14   H18   S    
O1    Zn1   S    
C19   O9    A    
C13   H17   S    
C12   O5    A    
C18   O8    A    
C7    C8    T    
C9    O12   D    
C13   C14   S    
C14   H2    S    
C16   H7    S    
C11   H15   S    
C11   C13   S    
C1    O1    A    
C15   H4    S    
C17   H9    S    
C15   O4    S    
C10   H13   S    
C4    C20   A    
C15   H5    S    
C23   H11   S    
O11   Zn1   S    
O10   Zn2   S    
C5    C6    A    
C14   H3    S    
C22   C24   A    
C3    C21   A    
C17   H10   S    
C18   O10   A    
C2    C20   A    
C15   C16   S    
O6    Zn2   S    
C12   O7    A    
C4    C6    A    
O8    Zn1   S    
C21   C24   A    
C19   O11   A    
C2    C23   A    
C3    C10   S    
C17   H8    S    
C13   H16   S    
N1    Zn2   S    
C4    C9    S    
C1    C7    S    
C16   H6    S    
O5    Zn2   S    
C16   C17   S    
C3    C5    A    
C22   H1    S    
C6    C22   A    
