data_mof_unit_67148.cif
_audit_creation_date              2012-12-11T17:48:32-0500
_audit_creation_method            fapswitch 2.2
_symmetry_space_group_name_H-M    P1
_symmetry_Int_Tables_number       1
_space_group_crystal_system       triclinic
_cell_length_a                    8.185949
_cell_length_b                    12.85808
_cell_length_c                    15.004508
_cell_angle_alpha                 98.422372
_cell_angle_beta                  97.624003
_cell_angle_gamma                 98.538531
_cell_volume                      1525.59048532

loop_
_atom_site_label
_atom_site_type_symbol
_atom_type_description
_atom_site_fract_x
_atom_site_fract_y
_atom_site_fract_z
_atom_type_partial_charge
Ba1   Ba    Ba6+2 0.843750 0.550210 0.455600 1.773638
Ba2   Ba    Ba6+2 0.346090 0.449880 0.544410 1.770524
C1    C     C_3   0.512640 0.901209 0.185458 -0.416648
C2    C     C_R   0.891175 0.446779 0.923606 -0.038103
C3    C     C_R   0.034545 0.458020 0.110040 -0.022181
C4    C     C_3   0.065367 0.769003 0.209103 0.343258
C5    C     C_R   0.873008 0.401862 0.075219 -0.041481
C6    C     C_R   0.801228 0.398776 0.985012 -0.106811
C7    C     C_R   0.106292 0.466934 0.203980 -0.024816
C8    C     C_R   0.271491 0.518506 0.231685 -0.290572
C9    C     C_R   0.082337 0.537494 0.798619 -0.020683
C10   C     C_R   0.154117 0.543851 0.892202 -0.029462
C11   C     C_R   0.057448 0.499517 0.954700 0.015244
C12   C     C_3   0.573407 0.822375 0.243044 0.346355
C13   C     C_R   0.321457 0.588334 0.924855 -0.063262
C14   C     C_R   0.391991 0.593231 0.015205 -0.098775
C15   C     C_R   0.297756 0.553236 0.078213 -0.041627
C16   C     C_3   0.033090 0.795787 0.113523 -0.375400
C17   C     C_R   0.129175 0.504817 0.048069 0.008090
C18   C     C_R   0.368259 0.558853 0.170163 0.009754
C19   C     C_R   0.919189 0.481850 0.770181 -0.288947
C20   C     C_R   0.787585 0.156929 0.514243 0.146170
C21   C     C_R   0.406701 0.811531 0.478348 -0.224680
C22   C     C_R   0.376245 0.987154 0.446671 -0.074229
C23   C     C_3   0.512225 0.265224 0.262893 0.357967
C24   C     C_R   0.309298 0.880576 0.442236 0.034221
C25   C     C_R   0.569550 0.849230 0.524325 0.045316
C26   C     C_R   0.634128 0.960556 0.536786 -0.057091
C27   C     C_R   0.538211 0.028869 0.492828 -0.082589
C28   C     C_3   0.222585 0.799383 0.788679 0.878250
C29   C     C_R   0.613899 0.134588 0.490183 -0.055093
C30   C     C_R   0.867681 0.109900 0.580973 -0.027101
C31   C     C_R   0.793213 0.006647 0.588856 -0.126569
C32   C     C_3   0.371939 0.840827 0.865421 -0.326009
C33   C     C_3   0.060846 0.223626 0.216223 0.369926
C34   C     C_3   0.481237 0.223579 0.160702 -0.408345
C35   C     C_3   0.002998 0.104469 0.182636 -0.247487
C36   C     C_3   0.763656 0.692899 0.728687 0.377602
C37   C     C_3   0.772329 0.718749 0.831889 -0.363230
C38   C     C_3   0.124313 0.251949 0.804311 0.379202
C39   C     C_3   0.178050 0.238056 0.902435 -0.301754
C40   C     C_3   0.623440 0.175204 0.757657 0.440080
C41   C     C_3   0.695584 0.104083 0.819665 -0.349481
C42   C     C_R   0.822290 0.439603 0.831028 0.006651
H1    H     H_    0.671895 0.865322 0.299965 0.065736
H2    H     H_    0.884313 0.674074 0.711966 -0.010881
H3    H     H_    0.664573 0.622102 0.703432 0.050231
H4    H     H_    0.449380 0.957634 0.226209 0.104658
H5    H     H_    0.857285 0.795098 0.860547 0.153983
H6    H     H_    0.818017 0.655130 0.865370 0.051547
H7    H     H_    0.646246 0.725439 0.848492 0.089122
H8    H     H_    0.466208 0.787081 0.273590 -0.072956
H9    H     H_    0.422570 0.857561 0.124983 0.116574
H10   H     H_    0.450728 0.336130 0.277011 -0.057456
H11   H     H_    0.647411 0.287051 0.284276 0.146079
H12   H     H_    0.486828 0.865972 0.836650 0.116366
H13   H     H_    0.347449 0.190123 0.136638 0.097939
H14   H     H_    0.516794 0.289803 0.123457 0.064615
H15   H     H_    0.556872 0.160292 0.144835 0.134167
H16   H     H_    0.619997 0.946756 0.161741 0.129160
H17   H     H_    0.045343 0.726885 0.062310 0.075939
H18   H     H_    0.203033 0.324143 0.791243 0.071389
H19   H     H_    0.991961 0.262675 0.795511 -0.098955
H20   H     H_    0.311437 0.228662 0.913297 0.154301
H21   H     H_    0.162728 0.308425 0.950511 0.049856
H22   H     H_    0.101019 0.166321 0.917858 0.101514
H23   H     H_    0.346822 0.910204 0.911958 0.089912
H24   H     H_    0.725266 0.211737 0.724030 -0.176525
H25   H     H_    0.527378 0.125463 0.702722 0.104093
H26   H     H_    0.738693 0.037890 0.778291 0.129201
H27   H     H_    0.600154 0.070091 0.858241 0.149091
H28   H     H_    0.969840 0.699904 0.213299 0.105865
H29   H     H_    0.802101 0.151391 0.869678 0.086204
H30   H     H_    0.799368 0.359472 0.117143 0.088287
H31   H     H_    0.674604 0.356502 0.964154 0.101946
H32   H     H_    0.522861 0.627637 0.034047 0.108525
H33   H     H_    0.403377 0.617125 0.880478 0.103800
H34   H     H_    0.395471 0.782268 0.909344 0.017081
H35   H     H_    0.327711 0.524127 0.302053 0.065172
H36   H     H_    0.864431 0.473937 0.699313 0.053178
H37   H     H_    0.302293 0.035363 0.411053 0.136054
H38   H     H_    0.861817 0.961881 0.630691 0.194083
H39   H     H_    0.191153 0.746604 0.220065 -0.064122
H40   H     H_    0.354775 0.727768 0.471341 0.064547
H41   H     H_    0.904847 0.814227 0.099331 0.147071
H42   H     H_    0.124556 0.866142 0.107127 0.107095
H43   H     H_    0.116389 0.760068 0.817161 -0.345222
H44   H     H_    0.714159 0.051603 0.322458 0.308920
H45   H     H_    0.180309 0.235677 0.262970 0.047711
H46   H     H_    0.043479 0.969924 0.856748 0.310047
H47   H     H_    0.077412 0.260925 0.155139 -0.127560
H48   H     H_    0.000715 0.060817 0.241013 0.197056
H49   H     H_    0.090140 0.072781 0.139201 0.033104
H50   H     H_    0.875927 0.089894 0.141643 0.088794
O1    O     O_2   0.827880 0.435260 0.277750 -0.488667
O2    O     O_2   0.215682 0.119023 0.583270 -0.400423
O3    O     O_3   0.144899 0.160850 0.746091 -0.515471
O4    O     O_3   0.100280 0.438960 0.391170 -0.431955
O5    O     O_3   0.587780 0.631850 0.546230 -0.510138
O6    O     O_2   0.332590 0.233690 0.456160 -0.400214
O7    O     O_3   0.451928 0.184725 0.309460 -0.635417
O8    O     O_2   0.479784 0.441382 0.823780 -0.507888
O9    O     O_3   0.546837 0.248814 0.809435 -0.594134
O10   O     O_3   0.625580 0.634130 0.333250 -0.490893
O11   O     O_2   0.711080 0.554824 0.176171 -0.502067
O12   O     O_3   0.729716 0.782181 0.690844 -0.595090
O13   O     O_3   0.942001 0.265280 0.263605 -0.533131
O14   O     O_3   0.642353 0.747440 0.187932 -0.602252
O15   O     O_2   0.857130 0.766340 0.543890 -0.417581
O16   O     O_3   0.056550 0.691050 0.379010 -0.512662
O17   O     O_2   0.964867 0.875401 0.434418 -0.413098
O18   O     O_2   0.987672 0.271824 0.437450 -0.261148
O19   O     O_2   0.018086 0.085529 0.420768 -0.317823
O20   O     O_3   0.760674 0.127465 0.324626 -0.562818
O21   O     O_2   0.310519 0.004008 0.768636 -0.333942
O22   O     O_2   0.123552 0.887203 0.643164 -0.278612
O23   O     O_3   0.054622 0.858013 0.273286 -0.607289
O24   O     O_3   0.002443 0.949970 0.790402 -0.546901
O25   O     O_2   0.361830 0.564780 0.722310 -0.477528
O26   O     O_3   0.089430 0.561130 0.608830 -0.464858
O27   O     O_3   0.564130 0.365960 0.666760 -0.486591
O28   O     O_3   0.267886 0.733502 0.715557 -0.613884
O29   O     O_3   0.601940 0.368240 0.453770 -0.484496
O30   O     O_3   0.133170 0.309040 0.621000 -0.477024
P1    P     P_3+3 0.998730 0.403530 0.291970 1.060780
P2    P     P_3+3 0.687380 0.751030 0.571310 1.042093
P3    P     P_3+3 0.096167 0.828041 0.383505 1.036899
P4    P     P_3+3 0.190990 0.596560 0.708040 1.001636
P5    P     P_3+3 0.088041 0.173689 0.632275 1.141410
P6    P     P_3+3 0.586526 0.620841 0.215500 0.938857
P7    P     P_3+3 0.509349 0.230083 0.427176 1.020346
P8    P     P_3+3 0.604747 0.376324 0.784243 0.941968
S1    S     S_3+6 0.895002 0.160911 0.422760 -0.100126
S2    S     S_3+6 0.166022 0.913097 0.745104 -0.076022

loop_
_geom_bond_atom_site_label_1
_geom_bond_atom_site_label_2
_ccdc_geom_bond_type
C41   H29   S    
C37   H7    S    
C32   H12   S    
O28   P4    S    
O18   S1    D    
C2    C6    A    
C34   H15   S    
C40   O9    S    
Ba1   O5    S    
O6    P7    D    
C5    C6    A    
Ba2   O29   S    
C8    H35   S    
C4    H28   S    
C16   H42   S    
C38   H19   S    
C20   C30   A    
H46   O24   S    
C26   C27   A    
C33   C35   S    
O8    P8    D    
C34   H14   S    
C36   C37   S    
C25   P2    S    
O22   S2    D    
C13   C14   A    
C1    H4    S    
C15   C18   A    
C38   H18   S    
Ba1   Ba2   S    
C21   C24   A    
C2    C11   A    
C22   C27   A    
C29   P7    S    
Ba1   O15   S    
O4    P1    S    
C12   H8    S    
C28   O28   S    
C8    C18   A    
C14   C15   A    
C28   S2    S    
O30   P5    S    
C21   C25   A    
O5    P2    S    
O9    P8    S    
C4    O23   S    
O14   P6    S    
O24   S2    S    
O16   P3    S    
C1    H16   S    
C12   O14   S    
Ba2   O6    S    
O10   P6    S    
C40   H24   S    
C30   P5    S    
C12   H1    S    
C4    C16   S    
C16   H41   S    
C21   H40   S    
C28   C32   S    
C20   S1    S    
Ba1   P2    S    
O13   P1    S    
C34   H13   S    
C20   C29   A    
C18   P6    S    
C38   O3    S    
C3    C5    A    
Ba2   O26   S    
C11   C17   A    
C39   H21   S    
C2    C42   A    
C9    C19   A    
C6    H31   S    
C7    P1    S    
Ba1   O26   S    
C36   O12   S    
C22   H37   S    
Ba1   O29   S    
C3    C7    A    
Ba1   O16   S    
C19   C42   A    
O1    P1    D    
C10   C13   A    
Ba1   O1    S    
C35   H49   S    
C23   H10   S    
O23   P3    S    
Ba1   O10   S    
C36   H3    S    
O11   P6    D    
C1    C12   S    
O7    P7    S    
C38   C39   S    
C37   H5    S    
Ba2   O5    S    
C41   H26   S    
O17   P3    D    
C40   C41   S    
O27   P8    S    
C33   H45   S    
C7    C8    A    
Ba2   O27   S    
C41   H27   S    
C4    H39   S    
C35   H48   S    
O29   P7    S    
C14   H32   S    
C23   H11   S    
C22   C24   A    
Ba1   O4    S    
C26   C31   A    
Ba2   O25   S    
O26   P4    S    
C16   H17   S    
C39   H22   S    
C3    C17   A    
O21   S2    D    
Ba2   O30   S    
C42   P8    S    
O12   P2    S    
Ba1   P1    S    
C30   C31   A    
C9    P4    S    
O3    P5    S    
C27   C29   A    
C5    H30   S    
O25   P4    D    
C1    H9    S    
C23   O7    S    
C13   H33   S    
C19   H36   S    
C15   C17   A    
O20   S1    S    
C35   H50   S    
C24   P3    S    
C40   H25   S    
H44   O20   S    
C31   H38   S    
C36   H2    S    
C33   O13   S    
C23   C34   S    
C32   H23   S    
O15   P2    D    
C37   H6    S    
C10   C11   A    
Ba2   O4    S    
C25   C26   A    
O19   S1    D    
C39   H20   S    
C28   H43   S    
C32   H34   S    
C9    C10   A    
C33   H47   S    
O2    P5    D    
Ba2   P4    S    
