data_mof_unit_42070.cif
_audit_creation_date              2013-03-05T15:51:50-0500
_audit_creation_method            fapswitch 2.2
_symmetry_space_group_name_H-M    P1
_symmetry_Int_Tables_number       1
_space_group_crystal_system       triclinic
_cell_length_a                    10.921851
_cell_length_b                    11.014138
_cell_length_c                    18.824566
_cell_angle_alpha                 90.066926
_cell_angle_beta                  89.962191
_cell_angle_gamma                 60.400426
_cell_volume                      1968.97356653

loop_
_atom_site_label
_atom_site_type_symbol
_atom_site_description
_atom_site_fract_x
_atom_site_fract_y
_atom_site_fract_z
_atom_type_partial_charge
O1    O     O_R   0.507380 0.255700 0.581440 -0.519270
O2    O     O_R   0.280320 0.527350 0.578930 -0.488034
C1    C     C_R   0.237314 0.645813 0.609416 0.549655
O3    O     O_R   0.260510 0.739590 0.584590 -0.489463
O4    O     O_R   0.532300 0.695080 0.573820 -0.454861
C2    C     C_R   0.655837 0.623634 0.599889 0.565697
O5    O     O_R   0.744840 0.503500 0.576370 -0.461502
O6    O     O_R   0.699120 0.276560 0.571960 -0.506808
C3    C     C_R   0.631415 0.222940 0.601079 0.533869
O7    O     O_R   0.498940 0.256500 0.419860 -0.521342
O8    O     O_R   0.272500 0.528080 0.429150 -0.507938
C4    C     C_R   0.223153 0.648742 0.400981 0.541799
O9    O     O_R   0.252060 0.740380 0.423010 -0.518865
O10   O     O_R   0.524480 0.695810 0.424040 -0.507594
C5    C     C_R   0.644724 0.624466 0.393556 0.540732
O11   O     O_R   0.736390 0.504290 0.414790 -0.519764
O12   O     O_R   0.691300 0.277290 0.422170 -0.513504
C6    C     C_R   0.618106 0.226388 0.395977 0.542682
Cr1   Cr    Cr6+3 0.392960 0.397920 0.502240 1.046895
Cr2   Cr    Cr6+3 0.398340 0.708480 0.501250 1.063667
Cr3   Cr    Cr6+3 0.708670 0.393570 0.496460 1.043666
O13   O     O_3   0.499990 0.499990 0.499980 -0.271989
C7    C     C_3   0.620898 0.822516 0.775339 -0.207104
H1    H     H_    0.690220 0.869168 0.778991 0.097196
H2    H     H_    0.520944 0.891941 0.803904 0.189110
C8    C     C_3   0.592239 0.808832 0.695937 0.064811
H3    H     H_    0.632320 0.865281 0.662835 0.121957
H4    H     H_    0.908032 0.647012 0.789372 0.114741
H5    H     H_    0.860585 0.675134 0.672883 0.125640
C9    C     C_3   0.846414 0.595593 0.775124 -0.201883
C10   C     C_3   0.617122 0.600812 0.800614 -0.224418
C11   C     C_3   0.700554 0.676942 0.811607 -0.031851
H6    H     H_    0.667205 0.500459 0.829973 0.159612
H7    H     H_    0.508538 0.665332 0.822114 0.182574
C12   C     C_3   0.673461 0.650414 0.675188 0.059949
C13   C     C_3   0.832319 0.598009 0.694470 0.064720
C14   C     C_3   0.610596 0.575357 0.720907 -0.185702
H8    H     H_    0.499009 0.612549 0.706066 0.181165
H9    H     H_    0.665767 0.462382 0.710828 0.128315
H10   H     H_    0.903322 0.486042 0.795016 0.183108
C15   C     C_R   0.698610 0.125228 0.816934 0.063269
C16   C     C_R   0.815483 0.105075 0.776699 -0.008458
C17   C     C_R   0.807469 0.113992 0.702557 -0.017888
C18   C     C_R   0.583000 0.125997 0.705964 -0.187844
C19   C     C_R   0.585127 0.128678 0.779212 -0.124564
C20   C     C_3   0.898630 0.179734 0.779117 -0.255694
C21   C     C_3   0.897399 0.179827 0.698410 -0.226196
C22   C     C_R   0.682378 0.142819 0.667164 0.005647
H11   H     H_    0.491155 0.131554 0.680902 0.180879
H12   H     H_    0.496688 0.129872 0.805872 0.167715
H13   H     H_    0.005420 0.116888 0.801641 0.145152
H14   H     H_    0.838451 0.285387 0.802565 0.144803
H15   H     H_    0.843577 0.283091 0.673598 0.219671
H16   H     H_    0.001858 0.109408 0.674607 0.173346
C23   C     C_R   0.153836 0.687437 0.830036 0.051927
C24   C     C_R   0.162258 0.573165 0.793839 0.002562
C25   C     C_R   0.181400 0.561138 0.720943 0.005864
C26   C     C_R   0.152751 0.791646 0.716588 -0.139170
C27   C     C_R   0.145619 0.798633 0.790142 -0.145863
C28   C     C_3   0.260357 0.422441 0.806106 0.083746
C29   C     C_3   0.289997 0.410552 0.726457 -0.220570
C30   C     C_R   0.180187 0.668529 0.681043 0.010642
H17   H     H_    0.150088 0.878067 0.688354 0.192151
H18   H     H_    0.134907 0.890862 0.815841 0.150777
H19   H     H_    0.205021 0.366273 0.824552 0.123891
H20   H     H_    0.395192 0.394672 0.711463 0.172500
H21   H     H_    0.257911 0.341551 0.698925 0.182676
C31   C     C_R   0.679258 0.686969 0.176141 0.018629
C32   C     C_R   0.788632 0.577761 0.212943 0.032949
C33   C     C_R   0.786834 0.567608 0.285140 0.022378
C34   C     C_R   0.574950 0.790556 0.290630 -0.154952
C35   C     C_R   0.577898 0.800657 0.216045 -0.156908
C36   C     C_3   0.855120 0.424372 0.201210 -0.278409
C37   C     C_3   0.852582 0.411888 0.280984 -0.269489
C38   C     C_R   0.672435 0.666285 0.324696 0.019781
H22   H     H_    0.493491 0.875350 0.320891 0.119351
H23   H     H_    0.500205 0.894328 0.189804 0.127693
H24   H     H_    0.963361 0.378450 0.179112 0.138173
H25   H     H_    0.784249 0.394666 0.173104 0.143908
H26   H     H_    0.778476 0.376839 0.298713 0.169920
H27   H     H_    0.959242 0.356911 0.305222 0.133220
C39   C     C_R   0.662608 0.136865 0.180089 0.020768
C40   C     C_R   0.560857 0.123939 0.218402 0.028978
C41   C     C_R   0.556537 0.132930 0.291186 0.027070
C42   C     C_R   0.774163 0.138845 0.291582 -0.173094
C43   C     C_R   0.775348 0.134809 0.217540 -0.162865
C44   C     C_3   0.404813 0.203555 0.210702 -0.279659
C45   C     C_3   0.398521 0.213125 0.290864 -0.266475
C46   C     C_R   0.655755 0.154551 0.328287 0.021475
H28   H     H_    0.857585 0.145388 0.319163 0.118796
H29   H     H_    0.861963 0.134460 0.189634 0.124809
H30   H     H_    0.361026 0.139251 0.188912 0.132018
H31   H     H_    0.367357 0.305941 0.184069 0.151067
H32   H     H_    0.355387 0.321606 0.310174 0.174829
H33   H     H_    0.351824 0.153595 0.315508 0.128316
C47   C     C_R   0.157318 0.664124 0.180712 0.020512
C48   C     C_R   0.220939 0.733064 0.212916 0.022491
C49   C     C_R   0.230627 0.733079 0.285041 0.045096
C50   C     C_R   0.137902 0.575954 0.295891 -0.175378
C51   C     C_R   0.126134 0.576076 0.222037 -0.169721
C52   C     C_3   0.191123 0.881690 0.208826 -0.268056
C53   C     C_3   0.197672 0.881288 0.288814 -0.265865
C54   C     C_R   0.182118 0.662668 0.327837 0.023293
H34   H     H_    0.109921 0.511385 0.327723 0.129527
H35   H     H_    0.081355 0.517374 0.198273 0.140941
H36   H     H_    0.084911 0.957455 0.189388 0.161668
H37   H     H_    0.278242 0.889785 0.183011 0.131516
H38   H     H_    0.285605 0.892655 0.309964 0.144694
H39   H     H_    0.094285 0.949984 0.314406 0.134800
O14   O     O_R   0.089400 0.825690 0.930570 -0.532848
O15   O     O_R   0.818460 0.054440 0.929850 -0.508192
C55   C     C_R   0.705572 0.094047 0.893370 0.592893
O16   O     O_R   0.606060 0.077150 0.915510 -0.490462
O17   O     O_R   0.646550 0.806680 0.917570 -0.513348
C56   C     C_R   0.723355 0.688761 0.888147 0.541797
O18   O     O_R   0.837170 0.593410 0.915250 -0.524847
O19   O     O_R   0.065200 0.635530 0.931570 -0.486298
C57   C     C_R   0.112231 0.710591 0.904135 0.582564
O20   O     O_R   0.068260 0.828890 0.091840 -0.526728
O21   O     O_R   0.798870 0.057410 0.079340 -0.511991
C58   C     C_R   0.676949 0.103018 0.105332 0.562393
O22   O     O_R   0.584930 0.080350 0.076780 -0.501912
O23   O     O_R   0.626960 0.809650 0.067060 -0.507127
C59   C     C_R   0.701168 0.694675 0.100412 0.551971
O24   O     O_R   0.816040 0.596610 0.076510 -0.516822
O25   O     O_R   0.045610 0.638500 0.081060 -0.503753
C60   C     C_R   0.093237 0.709283 0.112269 0.563976
Cr4   Cr    Cr6+3 0.937650 0.938540 0.007610 1.017470
Cr5   Cr    Cr6+3 0.625330 0.937370 0.994520 1.041920
Cr6   Cr    Cr6+3 0.937940 0.625230 0.001190 1.037109
O26   O     O_3   0.833640 0.833710 0.001100 -0.275208
Cl1   Cl    Cl    0.969184 0.434372 0.660407 -0.670870
N1    N     N_R   0.378267 0.399817 0.851563 0.067233
O27   O     O_R   0.465461 0.441754 0.832102 -0.406658
O28   O     O_R   0.381659 0.359430 0.916756 -0.326672
Cl2   Cl    Cl    0.404913 0.896327 0.681977 -0.664021

loop_
_geom_bond_atom_site_label_1
_geom_bond_atom_site_label_2
_geom_bond_distance
_ccdc_geom_bond_type
C18   H11   1.082870 S    
C26   C30   1.404465 A    
C50   C54   1.400623 A    
C23   C24   1.392982 A    
C52   H37   1.110288 S    
O11   Cr3   2.076271 S    
C23   C27   1.402021 A    
C15   C16   1.403825 A    
C44   H31   1.111870 S    
C5    C38   1.456941 S    
O15   C55   1.285508 A    
C44   C45   1.511732 S    
C31   C59   1.454850 S    
C48   C49   1.361913 A    
C39   C43   1.409743 A    
O23   C59   1.281920 A    
O4    Cr2   1.954082 S    
C42   C43   1.394315 A    
O21   C58   1.265971 A    
H5    C13   1.114334 S    
O8    Cr1   1.955242 S    
C51   H35   1.081357 S    
C52   C53   1.507387 S    
O16   Cr5   2.076617 S    
C40   C41   1.372692 A    
C12   C14   1.567523 S    
C43   H29   1.080107 S    
C13   Cl1   1.796827 S    
C16   C20   1.496863 S    
C34   H22   1.079600 S    
O25   Cr6   1.958676 S    
C5    O11   1.267584 A    
C20   H14   1.106265 S    
C26   H17   1.078511 S    
C2    C12   1.479430 S    
C36   C37   1.509639 S    
C7    C8    1.549693 S    
C25   C29   1.491863 S    
C35   H23   1.079531 S    
O24   Cr6   2.072539 S    
C12   C13   1.577101 S    
O6    C3    1.275815 A    
C15   C55   1.472952 S    
C33   C37   1.498777 S    
C7    H1    1.107370 S    
C10   H6    1.109463 S    
C32   C36   1.489064 S    
C17   C22   1.408704 A    
O22   Cr5   2.092734 S    
C21   H15   1.094729 S    
O20   Cr4   2.076805 S    
C50   H34   1.083365 S    
C45   H33   1.111745 S    
C37   H26   1.106386 S    
C44   H30   1.110298 S    
O23   Cr5   1.955418 S    
O14   C57   1.266099 A    
C29   H20   1.109608 S    
C55   O16   1.260554 A    
O6    Cr3   1.956690 S    
C36   H25   1.111944 S    
C45   H32   1.106514 S    
O1    Cr1   2.076614 S    
O10   Cr2   1.958814 S    
C25   C30   1.396421 A    
Cr1   O13   1.982527 S    
O1    C3    1.272856 A    
C4    C54   1.433047 S    
C42   C46   1.399040 A    
C31   C32   1.391891 A    
C26   C27   1.386667 A    
C49   C53   1.489489 S    
C36   H24   1.111131 S    
C20   H13   1.105915 S    
O12   Cr3   1.966765 S    
C10   C14   1.534256 S    
C47   C60   1.433888 S    
C28   C29   1.525465 S    
O18   Cr6   2.081688 S    
C14   H8    1.112981 S    
C29   H21   1.109693 S    
C10   C11   1.526738 S    
O7    Cr1   2.093269 S    
C31   C35   1.408924 A    
C47   C48   1.395562 A    
O12   C6    1.280285 A    
C8    H3    1.111706 S    
C10   H7    1.114181 S    
C9    H10   1.114876 S    
C53   H38   1.102588 S    
O19   Cr6   1.953465 S    
C58   O22   1.268686 A    
C21   H16   1.108297 S    
Cr2   O13   1.996910 S    
C28   H19   1.112708 S    
N1    O27   1.299592 A    
O17   Cr5   1.972085 S    
C16   C17   1.399023 A    
C37   H27   1.111930 S    
C1    O3    1.268419 A    
Cr4   O26   1.983474 S    
O15   Cr4   1.957588 S    
C18   C19   1.379602 A    
C1    C30   1.453900 S    
C52   H36   1.104953 S    
C24   C25   1.384240 A    
C20   C21   1.519357 S    
C39   C58   1.443847 S    
O9    Cr2   2.072429 S    
O2    Cr1   1.972357 S    
C6    C46   1.447185 S    
C41   C45   1.500941 S    
C40   C44   1.489570 S    
C42   H28   1.081805 S    
O21   Cr4   1.966628 S    
O17   C56   1.272283 A    
C2    O5    1.272468 A    
C50   C51   1.396219 A    
C9    C13   1.525084 S    
C7    C11   1.555367 S    
H4    C9    1.105428 S    
O2    C1    1.282518 A    
C34   C35   1.410167 A    
C14   H9    1.098193 S    
C18   C22   1.394210 A    
O5    Cr3   2.086607 S    
O19   C57   1.278358 A    
C9    C11   1.548993 S    
C56   O18   1.273153 A    
O4    C2    1.278069 A    
C19   H12   1.082520 S    
O7    C6    1.256393 A    
O25   C60   1.274158 A    
C47   C51   1.410430 A    
Cr6   O26   1.996576 S    
C7    H2    1.113215 S    
C11   C56   1.478852 S    
C32   C33   1.364722 A    
C8    Cl2   1.799227 S    
O3    Cr2   2.081067 S    
C27   H18   1.077503 S    
C8    C12   1.566158 S    
C24   C28   1.483682 S    
C4    O9    1.266629 A    
C3    C22   1.467771 S    
C39   C40   1.389570 A    
C41   C46   1.405097 A    
C33   C38   1.397217 A    
N1    O28   1.300164 A    
C15   C19   1.413014 A    
O10   C5    1.284514 A    
C53   H39   1.110883 S    
Cr3   O13   1.983290 S    
C17   C21   1.483315 S    
C28   N1    1.462080 S    
C23   C57   1.449515 S    
C48   C52   1.505124 S    
C49   C54   1.392095 A    
O8    C4    1.277621 A    
O14   Cr4   2.086295 S    
C59   O24   1.265928 A    
Cr5   O26   1.982356 S    
C34   C38   1.407686 A    
O20   C60   1.266524 A    
