data_mof_unit_63886.cif
_audit_creation_date              2012-12-10T18:15:21-0500
_audit_creation_method            fapswitch 2.2
_symmetry_space_group_name_H-M    P1
_symmetry_Int_Tables_number       1
_space_group_crystal_system       triclinic
_cell_length_a                    22.523782
_cell_length_b                    22.47188
_cell_length_c                    14.665002
_cell_angle_alpha                 90.054223
_cell_angle_beta                  90.003827
_cell_angle_gamma                 90.001324
_cell_volume                      7422.71273526

loop_
_atom_site_label
_atom_site_type_symbol
_atom_type_description
_atom_site_fract_x
_atom_site_fract_y
_atom_site_fract_z
_atom_type_partial_charge
C1    C     C_R   0.080133 0.419961 0.499979 0.835681
C2    C     C_R   0.080140 0.580033 0.500024 0.835721
C3    C     C_R   0.580138 0.919966 0.499980 0.835778
C4    C     C_R   0.580138 0.080036 0.500024 0.835661
C5    C     C_1   0.163380 0.661488 0.499937 0.062188
C6    C     C_1   0.163348 0.338482 0.500066 0.061981
C7    C     C_1   0.663366 0.161503 0.499937 0.062148
C8    C     C_1   0.663381 0.838515 0.500076 0.062253
C9    C     C_1   0.838153 0.336737 0.499835 -0.044700
C10   C     C_1   0.838153 0.663266 0.500162 -0.044562
C11   C     C_1   0.338148 0.836740 0.499823 -0.044559
C12   C     C_1   0.338149 0.163263 0.500139 -0.044687
C13   C     C_1   0.875555 0.374730 0.499889 -0.150996
C14   C     C_1   0.875552 0.625272 0.500104 -0.150884
C15   C     C_1   0.375551 0.874733 0.499883 -0.150866
C16   C     C_1   0.375551 0.125272 0.500093 -0.151033
C17   C     C_3   0.971358 0.554999 0.053158 -0.389637
C18   C     C_3   0.970818 0.554659 0.947014 -0.388977
C19   C     C_3   0.973606 0.443867 0.946838 -0.389620
C20   C     C_3   0.973053 0.444184 0.052983 -0.388899
C21   C     C_3   0.473576 0.056106 0.053155 -0.389301
C22   C     C_3   0.473207 0.055896 0.947008 -0.389171
C23   C     C_3   0.471204 0.945087 0.946834 -0.389395
C24   C     C_3   0.470842 0.945313 0.052980 -0.389171
C25   C     C_3   0.004899 0.500101 0.092015 0.066818
C26   C     C_3   0.004901 0.500084 0.907992 0.066615
C27   C     C_3   0.504897 0.999904 0.092011 0.066622
C28   C     C_3   0.504898 0.999895 0.907987 0.066845
C29   C     C_3   0.070824 0.501701 0.944707 0.223026
C30   C     C_3   0.070834 0.501166 0.055329 0.222577
C31   C     C_3   0.570830 0.998663 0.944690 0.222563
C32   C     C_3   0.570822 0.998306 0.055313 0.222967
C33   C     C_1   0.001756 0.500028 0.804802 0.183331
C34   C     C_1   0.001754 0.500033 0.195199 0.183354
C35   C     C_1   0.501755 0.999966 0.804801 0.183312
C36   C     C_1   0.501753 0.999967 0.195199 0.183353
C37   C     C_R   0.919990 0.419766 0.499968 0.819002
C38   C     C_R   0.919990 0.580234 0.500028 0.819046
C39   C     C_R   0.419989 0.919767 0.499968 0.819063
C40   C     C_R   0.419991 0.080235 0.500027 0.818978
C41   C     C_3   0.785387 0.264441 0.596980 -0.447991
C42   C     C_3   0.810425 0.239431 0.434312 -0.457254
C43   C     C_3   0.784700 0.734886 0.402720 -0.447865
C44   C     C_3   0.810893 0.761029 0.564557 -0.457261
C45   C     C_3   0.284406 0.765429 0.597402 -0.448027
C46   C     C_3   0.311081 0.738778 0.435957 -0.457093
C47   C     C_3   0.286241 0.236438 0.403420 -0.447913
C48   C     C_3   0.309817 0.259966 0.567129 -0.457271
C49   C     C_3   0.262256 0.689742 0.433749 -0.190343
C50   C     C_3   0.234519 0.717618 0.599022 -0.206433
C51   C     C_3   0.260995 0.309005 0.569213 -0.190145
C52   C     C_3   0.236283 0.284172 0.401668 -0.206772
C53   C     C_3   0.761580 0.190414 0.432118 -0.190414
C54   C     C_3   0.735494 0.216637 0.598653 -0.206530
C55   C     C_3   0.762060 0.810056 0.566784 -0.190379
C56   C     C_3   0.734825 0.782710 0.401094 -0.206541
C57   C     C_1   0.125269 0.624257 0.500042 -0.036709
C58   C     C_1   0.125247 0.375720 0.499965 -0.037039
C59   C     C_1   0.625260 0.124267 0.500043 -0.036986
C60   C     C_1   0.625268 0.875741 0.499969 -0.036642
C61   C     C_3   0.792477 0.290410 0.499829 0.227603
C62   C     C_3   0.792480 0.709597 0.500173 0.227543
C63   C     C_3   0.292476 0.790411 0.499822 0.227485
C64   C     C_3   0.292468 0.209585 0.500153 0.227635
C65   C     C_3   0.209949 0.707187 0.499856 0.084440
C66   C     C_3   0.209921 0.292787 0.500151 0.084734
C67   C     C_3   0.709939 0.207198 0.499843 0.084802
C68   C     C_3   0.709956 0.792821 0.500158 0.084541
C69   C     C_3   0.183226 0.768020 0.465310 0.247573
C70   C     C_3   0.182616 0.231340 0.530880 0.247717
C71   C     C_3   0.682891 0.268371 0.467365 0.247678
C72   C     C_3   0.683129 0.731876 0.534051 0.247534
C73   C     C_3   0.732326 0.316877 0.468369 -0.386234
C74   C     C_3   0.732556 0.683364 0.533061 -0.386410
C75   C     C_3   0.232649 0.816539 0.466308 -0.386433
C76   C     C_3   0.232048 0.182834 0.529768 -0.386222
Cu1   Cu    Cu3+1 0.999990 0.500000 0.589920 1.033035
Cu2   Cu    Cu3+1 0.999990 0.500000 0.410080 1.032917
Cu3   Cu    Cu3+1 0.499990 0.000000 0.589920 1.032912
Cu4   Cu    Cu3+1 0.499990 0.000000 0.410080 1.033017
H1    H     H_    0.828651 0.245594 0.619773 0.175234
H2    H     H_    0.854165 0.221135 0.455845 0.176400
H3    H     H_    0.827804 0.753542 0.378874 0.175215
H4    H     H_    0.854466 0.779181 0.541988 0.176453
H5    H     H_    0.327439 0.746845 0.621685 0.175164
H6    H     H_    0.354589 0.720701 0.458973 0.176495
H7    H     H_    0.329677 0.255573 0.382014 0.175370
H8    H     H_    0.353774 0.278413 0.547008 0.176351
H9    H     H_    0.816746 0.257486 0.364285 0.194381
H10   H     H_    0.774084 0.300749 0.645716 0.191903
H11   H     H_    0.817730 0.743463 0.634763 0.194503
H12   H     H_    0.773028 0.698249 0.354769 0.191982
H13   H     H_    0.318121 0.756124 0.365671 0.194560
H14   H     H_    0.272597 0.802220 0.644991 0.191972
H15   H     H_    0.315442 0.241286 0.636911 0.194299
H16   H     H_    0.275468 0.200572 0.353639 0.191892
H17   H     H_    0.245006 0.687915 0.362882 0.206308
H18   H     H_    0.198017 0.735490 0.641980 0.208156
H19   H     H_    0.242448 0.309621 0.639350 0.206071
H20   H     H_    0.200609 0.266990 0.356455 0.208294
H21   H     H_    0.743626 0.189280 0.361634 0.206054
H22   H     H_    0.699430 0.234095 0.642862 0.208074
H23   H     H_    0.744598 0.811648 0.637540 0.206219
H24   H     H_    0.698453 0.764982 0.357725 0.208222
H25   H     H_    0.719838 0.354061 0.514612 0.190137
H26   H     H_    0.737709 0.336694 0.399425 0.189738
H27   H     H_    0.719742 0.645846 0.487669 0.190122
H28   H     H_    0.738422 0.664045 0.602246 0.189687
H29   H     H_    0.219701 0.854193 0.511342 0.190132
H30   H     H_    0.238724 0.835643 0.397027 0.189700
H31   H     H_    0.219952 0.146114 0.482419 0.190111
H32   H     H_    0.236828 0.162331 0.598346 0.189759
H33   H     H_    0.923975 0.553570 0.922850 0.183159
H34   H     H_    0.924757 0.554941 0.078443 0.182471
H35   H     H_    0.926205 0.443364 0.077135 0.183164
H36   H     H_    0.927042 0.442031 0.921541 0.182529
H37   H     H_    0.426404 0.056936 0.922656 0.183061
H38   H     H_    0.426963 0.057825 0.078254 0.182589
H39   H     H_    0.424037 0.946282 0.077323 0.183096
H40   H     H_    0.424561 0.945368 0.921725 0.182524
H41   H     H_    0.993909 0.402721 0.078816 0.201727
H42   H     H_    0.995551 0.402673 0.922020 0.203965
H43   H     H_    0.989977 0.596938 0.921185 0.201531
H44   H     H_    0.991620 0.597053 0.077980 0.203880
H45   H     H_    0.490136 0.903047 0.078625 0.201667
H46   H     H_    0.491237 0.902972 0.921825 0.203747
H47   H     H_    0.494292 0.097295 0.921366 0.201838
H48   H     H_    0.495388 0.097325 0.078167 0.203898
N1    N     N_1   0.000150 0.500000 0.724970 -0.135036
N2    N     N_1   0.000150 0.500000 0.275030 -0.135045
N3    N     N_1   0.500150 0.000000 0.724970 -0.135056
N4    N     N_1   0.500150 0.000000 0.275030 -0.135035
O1    O     O_R   0.060270 0.439640 0.575970 -0.554145
O2    O     O_R   0.060270 0.439640 0.424030 -0.554061
O3    O     O_R   0.060270 0.560360 0.424030 -0.553969
O4    O     O_R   0.060270 0.560360 0.575970 -0.553544
O5    O     O_R   0.560270 0.939640 0.575970 -0.553924
O6    O     O_R   0.560270 0.939640 0.424030 -0.553635
O7    O     O_R   0.560270 0.060360 0.424030 -0.554181
O8    O     O_R   0.560270 0.060360 0.575970 -0.554038
O9    O     O_R   0.939710 0.439640 0.575970 -0.575529
O10   O     O_R   0.939710 0.439640 0.424030 -0.575970
O11   O     O_R   0.939710 0.560360 0.424030 -0.575328
O12   O     O_R   0.939710 0.560360 0.575970 -0.575861
O13   O     O_R   0.439710 0.939640 0.575970 -0.575332
O14   O     O_R   0.439710 0.939640 0.424030 -0.575846
O15   O     O_R   0.439710 0.060360 0.424030 -0.575474
O16   O     O_R   0.439710 0.060360 0.575970 -0.576023
C77   C     C_2   0.254997 0.661528 0.646564 0.432329
H49   H     H_    0.298876 0.643508 0.634164 0.072336
O17   O     O_2   0.222553 0.636378 0.700963 -0.476581
C78   C     C_2   0.288050 0.628524 0.450521 0.396850
H50   H     H_    0.329810 0.623098 0.486423 0.077657
O18   O     O_2   0.261856 0.584170 0.424096 -0.488334
C79   C     C_2   0.257449 0.341120 0.357331 0.432579
H51   H     H_    0.300979 0.359094 0.372499 0.072669
O19   O     O_2   0.226003 0.367037 0.302391 -0.476641
C80   C     C_2   0.287118 0.370463 0.556086 0.396565
H52   H     H_    0.329561 0.376455 0.522357 0.077726
O20   O     O_2   0.260432 0.414379 0.583049 -0.487851
C81   C     C_2   0.756412 0.160074 0.644393 0.432449
H53   H     H_    0.800107 0.142100 0.630409 0.072564
O21   O     O_2   0.724552 0.134471 0.699111 -0.477018
C82   C     C_2   0.787534 0.129038 0.446862 0.396775
H54   H     H_    0.829718 0.123272 0.481446 0.077785
O22   O     O_2   0.760993 0.084934 0.420274 -0.487955
C83   C     C_2   0.755460 0.838950 0.354131 0.432637
H55   H     H_    0.799266 0.856980 0.367115 0.072421
O23   O     O_2   0.723242 0.864207 0.299528 -0.476529
C84   C     C_2   0.787900 0.871332 0.550686 0.396672
H56   H     H_    0.829843 0.876877 0.515345 0.077824
O24   O     O_2   0.761540 0.915604 0.577036 -0.488130
I1    I     I_    0.108377 0.798151 0.546350 -0.336433
I2    I     I_    0.145455 0.761745 0.329463 -0.299922
I3    I     I_    0.109208 0.202783 0.445494 -0.335935
I4    I     I_    0.142499 0.235061 0.665335 -0.304932
I5    I     I_    0.608847 0.297676 0.550830 -0.336756
I6    I     I_    0.643792 0.263466 0.332282 -0.303567
I7    I     I_    0.608533 0.701997 0.452231 -0.336181
I8    I     I_    0.644943 0.737712 0.669662 -0.300353
I9    I     I_    0.117615 0.575543 0.119051 -0.198346
I10   I     I_    0.116300 0.577474 0.882939 -0.170480
I11   I     I_    0.120575 0.429291 0.881008 -0.197330
I12   I     I_    0.119340 0.427307 0.117127 -0.171003
I13   I     I_    0.620451 0.070902 0.118765 -0.197589
I14   I     I_    0.619623 0.072236 0.882638 -0.169628
I15   I     I_    0.617313 0.924005 0.881234 -0.199195
I16   I     I_    0.616426 0.922710 0.117360 -0.170606

loop_
_geom_bond_atom_site_label_1
_geom_bond_atom_site_label_2
_ccdc_geom_bond_type
C22   H37   S    
C19   H42   S    
Cu4   N4    S    
C48   H15   S    
C79   O19   D    
C72   C74   S    
C43   H3    S    
C38   O11   A    
C6    C58   T    
C19   C20   S    
C42   H2    S    
C24   C27   S    
C41   C61   S    
C81   H53   S    
C73   H26   S    
C2    C57   S    
C77   H49   S    
C83   O23   D    
Cu1   Cu2   S    
C52   C79   S    
C46   C49   S    
C21   H38   S    
C49   C65   S    
C32   I13   S    
C9    C61   S    
C19   H36   S    
C71   I6    S    
C82   H54   S    
C11   C63   S    
C36   N4    T    
C42   C53   S    
C12   C64   S    
C65   C69   S    
C48   C64   S    
C14   C38   S    
C20   C25   S    
C55   H23   S    
C39   O14   A    
C19   C26   S    
C9    C13   T    
C26   C33   S    
C74   H27   S    
C11   C15   T    
Cu4   O15   S    
C12   C16   T    
C28   C35   S    
C53   H21   S    
C75   H30   S    
C18   C26   S    
C23   C24   S    
C48   H8    S    
C3    O5    A    
Cu1   O4    S    
C74   H28   S    
C70   I3    S    
C55   C84   S    
C13   C37   S    
C49   C78   S    
C68   C72   S    
C25   C34   S    
C3    C60   S    
Cu4   O14   S    
Cu3   O8    S    
C21   C27   S    
Cu3   N3    S    
C83   H55   S    
C22   C28   S    
C21   C22   S    
C80   O20   D    
C77   O17   D    
C10   C62   S    
Cu1   O1    S    
C1    O1    A    
C45   H14   S    
C18   H33   S    
C7    C59   T    
C81   O21   D    
C17   H34   S    
C55   C68   S    
C48   C51   S    
C51   H19   S    
C75   H29   S    
C50   H18   S    
C37   O10   A    
C32   I16   S    
C56   H24   S    
Cu3   O13   S    
C29   I10   S    
C47   H16   S    
C23   H40   S    
C71   C73   S    
C40   O16   A    
C54   C67   S    
C44   C62   S    
C56   C68   S    
C49   H17   S    
C45   C63   S    
C69   I1    S    
C2    O4    A    
C51   C66   S    
C47   H7    S    
C45   H5    S    
C29   C30   S    
C4    O8    A    
C4    C59   S    
C17   H44   S    
C73   H25   S    
C31   C32   S    
C76   H32   S    
C41   H1    S    
C39   O13   A    
C17   C18   S    
C64   C76   S    
C3    O6    A    
Cu1   N1    S    
C23   C28   S    
C21   H48   S    
Cu2   O2    S    
C42   C61   S    
C15   C39   S    
C20   H41   S    
C47   C52   S    
C44   H11   S    
C37   O9    A    
C16   C40   S    
C23   H46   S    
C5    C65   S    
Cu3   O5    S    
C78   O18   D    
C8    C68   S    
C10   C14   T    
C80   H52   S    
C30   I9    S    
C69   I2    S    
C72   I8    S    
C1    O2    A    
C35   N3    T    
C47   C64   S    
C52   C66   S    
Cu2   O3    S    
C33   N1    T    
C25   C30   S    
C24   H39   S    
C29   I11   S    
C40   O15   A    
C27   C32   S    
C30   I12   S    
C54   H22   S    
C28   C31   S    
C43   H12   S    
C44   H4    S    
C20   H35   S    
C53   C82   S    
Cu3   O16   S    
C27   C36   S    
Cu4   O7    S    
C31   I14   S    
C18   H43   S    
C51   C80   S    
C2    O3    A    
C5    C57   T    
C46   C63   S    
C42   H9    S    
C61   C73   S    
C71   I5    S    
Cu2   O10   S    
C38   O12   A    
Cu1   O12   S    
C17   C25   S    
Cu2   O11   S    
C8    C60   T    
C4    O7    A    
C70   C76   S    
C50   C77   S    
C22   H47   S    
C66   C70   S    
C46   H13   S    
C63   C75   S    
C45   C50   S    
C76   H31   S    
Cu4   O6    S    
C56   C83   S    
C82   O22   D    
C52   H20   S    
C69   C75   S    
C44   C55   S    
C67   C71   S    
C54   C81   S    
Cu2   N2    S    
C53   C67   S    
C50   C65   S    
Cu1   O9    S    
C41   C54   S    
C7    C67   S    
Cu3   Cu4   S    
C43   C56   S    
C6    C66   S    
C78   H50   S    
C34   N2    T    
C26   C29   S    
C84   H56   S    
C31   I15   S    
C79   H51   S    
C62   C74   S    
C84   O24   D    
C72   I7    S    
C24   H45   S    
C1    C58   S    
C70   I4    S    
C43   C62   S    
C41   H10   S    
C46   H6    S    
