data_mof_unit_65541.cif
_audit_creation_date              2012-12-10T16:44:45-0500
_audit_creation_method            fapswitch 2.2
_symmetry_space_group_name_H-M    P1
_symmetry_Int_Tables_number       1
_space_group_crystal_system       triclinic
_cell_length_a                    18.464437
_cell_length_b                    18.484693
_cell_length_c                    18.47026
_cell_angle_alpha                 120.148604
_cell_angle_beta                  119.78502
_cell_angle_gamma                 90.067177
_cell_volume                      4459.46508835

loop_
_atom_site_label
_atom_site_type_symbol
_atom_type_description
_atom_site_fract_x
_atom_site_fract_y
_atom_site_fract_z
_atom_type_partial_charge
C1    C     C_R   0.138422 0.361355 0.999596 0.852557
C2    C     C_R   0.705127 0.425525 0.178128 0.000551
C3    C     C_R   0.788926 0.471820 0.215190 -0.195960
C4    C     C_R   0.863215 0.640321 0.001999 0.816500
C5    C     C_R   0.829150 0.430834 0.165791 -0.141394
C6    C     C_2   0.726786 0.781996 0.946812 -0.136127
C7    C     C_2   0.683915 0.796707 0.990906 -0.249972
C8    C     C_2   0.772742 0.716905 0.939684 -0.223338
C9    C     C_2   0.822272 0.708854 0.016908 0.050352
C10   C     C_2   0.729930 0.277215 0.444717 -0.220879
C11   C     C_2   0.677532 0.192703 0.386477 0.054977
C12   C     C_R   0.670469 0.068611 0.833765 -0.118817
C13   C     C_2   0.776004 0.335393 0.555836 -0.138118
C14   C     C_2   0.816015 0.305121 0.612761 -0.256677
C15   C     C_2   0.337181 0.281149 0.057849 -0.147065
C16   C     C_R   0.138499 0.636719 0.277054 0.813073
C17   C     C_2   0.304712 0.192417 0.001660 -0.293265
C18   C     C_2   0.280877 0.337276 0.060335 -0.143921
C19   C     C_2   0.192295 0.304447 0.995478 -0.293001
C20   C     C_2   0.218314 0.775893 0.938402 -0.162062
C21   C     C_2   0.306388 0.810500 0.006063 -0.277280
C22   C     C_2   0.162465 0.723954 0.942333 -0.157346
C23   C     C_R   0.712876 0.157718 0.921755 0.076410
C24   C     C_2   0.195596 0.689535 0.995949 -0.281537
C25   C     C_2   0.220429 0.775398 0.555844 -0.135410
C26   C     C_2   0.307662 0.815990 0.612823 -0.253871
C27   C     C_2   0.167410 0.729368 0.444821 -0.225043
C28   C     C_R   0.862872 0.361392 0.723025 0.857107
C29   C     C_2   0.193745 0.677375 0.386316 0.049948
C30   C     C_R   0.636769 0.138494 0.277047 0.811220
C31   C     C_R   0.361684 0.862831 0.723005 0.850424
C32   C     C_R   0.637240 0.860173 0.998601 0.855529
C33   C     C_R   0.361499 0.138462 0.000328 0.855923
C34   C     C_R   0.788475 0.209303 0.946445 0.076514
C35   C     C_R   0.360456 0.860972 0.000628 0.861544
C36   C     C_R   0.633606 0.140090 0.993320 0.805764
C37   C     C_R   0.139636 0.638999 0.999440 0.859333
C38   C     C_R   0.866343 0.359837 0.006582 0.811845
C39   C     C_R   0.832645 0.164458 0.901952 -0.116972
C40   C     C_R   0.793917 0.074555 0.821757 -0.136884
C41   C     C_R   0.710937 0.027696 0.784633 -0.136257
C42   C     C_2   0.658670 0.470375 0.225383 0.917207
C43   C     C_R   0.681372 0.196653 0.984141 -0.202233
C44   C     C_R   0.711103 0.290533 0.052935 0.054789
C45   C     C_R   0.786680 0.342011 0.077698 0.084339
C46   C     C_R   0.818293 0.303167 0.015402 -0.209177
C47   C     C_R   0.666565 0.335242 0.096896 -0.177916
H1    H     H_    0.822877 0.540387 0.281274 0.184343
H2    H     H_    0.898576 0.197190 0.930477 0.161427
H3    H     H_    0.156483 0.234416 0.935851 0.151028
H4    H     H_    0.185300 0.786853 0.878848 0.180973
H5    H     H_    0.341185 0.804499 0.069196 0.158931
H6    H     H_    0.091885 0.712808 0.898212 0.181431
H7    H     H_    0.264800 0.695711 0.036895 0.155309
H8    H     H_    0.186278 0.780627 0.591218 0.180652
H9    H     H_    0.340530 0.816497 0.577930 0.180304
H10   H     H_    0.104295 0.739408 0.410146 0.174068
H11   H     H_    0.827619 0.041733 0.787086 0.148327
H12   H     H_    0.681581 0.759945 0.021077 0.183827
H13   H     H_    0.678557 0.959018 0.718900 0.152059
H14   H     H_    0.604553 0.030385 0.799632 0.164518
H15   H     H_    0.600195 0.301116 0.065961 0.200507
H16   H     H_    0.895194 0.468866 0.200030 0.173696
H17   H     H_    0.723584 0.813618 0.909623 0.181497
H18   H     H_    0.551311 0.460265 0.228128 0.344252
H19   H     H_    0.764745 0.673426 0.867255 0.168101
H20   H     H_    0.740259 0.305253 0.409732 0.168421
H21   H     H_    0.781734 0.404995 0.591276 0.182485
H22   H     H_    0.816012 0.237215 0.577736 0.183289
H23   H     H_    0.408064 0.314820 0.105343 0.207355
H24   H     H_    0.234914 0.156437 0.955805 0.152571
H25   H     H_    0.314371 0.408414 0.117233 0.187475
I1    I     I_    0.863738 0.802738 0.171489 -0.338127
I2    I     I_    0.631767 0.134484 0.437904 -0.329584
I3    I     I_    0.303572 0.632038 0.436923 -0.351956
O1    O     O_3   0.000000 0.500000 0.000000 -0.495778
O2    O     O_R   0.325040 0.054120 0.939900 -0.645809
O3    O     O_R   0.444330 0.884140 0.060080 -0.633422
O4    O     O_R   0.054210 0.325030 0.939940 -0.654575
O5    O     O_R   0.615830 0.175840 0.060080 -0.641298
O6    O     O_R   0.324160 0.884140 0.939910 -0.646114
O7    O     O_R   0.615850 0.055700 0.939930 -0.650489
O8    O     O_R   0.614980 0.885710 0.939940 -0.640384
O9    O     O_R   0.445830 0.174930 0.060060 -0.630155
O10   O     O_R   0.614300 0.054120 0.229160 -0.609025
O11   O     O_R   0.325070 0.885060 0.770830 -0.644153
O12   O     O_R   0.054160 0.614240 0.229150 -0.654284
O13   O     O_R   0.885070 0.614240 0.060060 -0.610255
O14   O     O_R   0.174980 0.614900 0.229170 -0.612262
O15   O     O_R   0.885740 0.445830 0.770840 -0.645591
O16   O     O_R   0.175880 0.615810 0.060090 -0.640007
O17   O     O_R   0.884210 0.324110 0.939920 -0.643954
O18   O     O_R   0.055710 0.615810 0.939920 -0.644688
O19   O     O_R   0.884190 0.444260 0.060070 -0.644297
O20   O     O_2   0.692256 0.549426 0.295569 -0.619078
O21   O     O_R   0.576180 0.422351 0.189819 -0.823874
O22   O     O_R   0.885120 0.325030 0.770840 -0.630094
O23   O     O_R   0.175010 0.445830 0.060100 -0.632570
O24   O     O_R   0.885710 0.614900 0.939900 -0.652707
O25   O     O_3   0.500040 0.999960 0.000000 -0.498115
O26   O     O_R   0.614930 0.174930 0.229160 -0.645297
O27   O     O_R   0.445880 0.885710 0.770850 -0.643506
O28   O     O_R   0.614330 0.885060 0.060100 -0.628268
Zn1   Zn    Zn3+2 0.956610 0.542450 0.085830 0.991507
Zn2   Zn    Zn3+2 0.129220 0.543380 0.085850 0.997681
Zn3   Zn    Zn3+2 0.957530 0.543380 0.914160 0.975678
Zn4   Zn    Zn3+2 0.956640 0.370790 0.914170 0.976743
Zn5   Zn    Zn3+2 0.543440 0.957510 0.914170 0.971180
Zn6   Zn    Zn3+2 0.542510 0.956570 0.085840 1.015846
Zn7   Zn    Zn3+2 0.370820 0.956570 0.914150 0.970642
Zn8   Zn    Zn3+2 0.543410 0.129170 0.085830 0.988206

loop_
_geom_bond_atom_site_label_1
_geom_bond_atom_site_label_2
_ccdc_geom_bond_type
C28   O22   A    
O1    Zn1   S    
C15   C18   S    
C8    H19   S    
O1    Zn2   S    
C27   C29   D    
O16   Zn2   S    
C47   H15   S    
C35   O6    A    
C10   H20   S    
O25   Zn7   S    
C12   C23   A    
O23   Zn2   S    
C9    I1    S    
C42   O21   S    
O11   Zn7   S    
C20   H4    S    
O10   Zn6   S    
C24   H7    S    
C38   O17   A    
C3    H1    S    
C23   C43   A    
O8    Zn5   S    
C5    H16   S    
C18   C19   D    
C6    H17   S    
C32   O8    A    
H18   O21   S    
C11   C30   S    
C36   O7    A    
C8    C9    D    
C16   O12   A    
O27   Zn5   S    
C34   C46   A    
O7    Zn5   S    
C44   C47   A    
O19   Zn1   S    
C16   O14   A    
C31   O11   A    
C13   C14   D    
C17   C33   S    
C7    H12   S    
O13   Zn1   S    
C22   H6    S    
C18   H25   S    
O25   Zn5   S    
O9    Zn8   S    
C40   H11   S    
C37   O16   A    
O4    Zn4   S    
C42   O20   D    
C15   H23   S    
C31   O27   A    
O15   Zn3   S    
C36   O5    A    
C39   C40   A    
C6    C8    S    
C16   C29   S    
C45   C46   A    
C1    C19   S    
C5    C45   A    
C10   C13   S    
C34   C39   A    
C43   C44   A    
C12   C41   A    
O18   Zn3   S    
O17   Zn4   S    
C23   C34   A    
C38   O19   A    
C24   C37   S    
C32   O28   A    
C37   O18   A    
O6    Zn7   S    
C30   O10   A    
C29   I3    S    
C40   C41   A    
C39   H2    S    
C20   C22   S    
C17   H24   S    
O1    Zn4   S    
C27   H10   S    
C1    O4    A    
C14   H22   S    
C22   C24   D    
O26   Zn8   S    
C44   C45   A    
C15   C17   D    
O24   Zn3   S    
O1    Zn3   S    
C7    C32   S    
C26   C31   S    
C25   H8    S    
C41   H13   S    
C3    C5    A    
C11   I2    S    
C26   H9    S    
C1    O23   A    
C6    C7    D    
C4    O13   A    
C2    C47   A    
C25   C27   S    
C35   O3    A    
O28   Zn6   S    
C21   C35   S    
C25   C26   D    
C12   H14   S    
C19   H3    S    
C33   O2    A    
C2    C42   S    
O5    Zn8   S    
C30   O26   A    
C2    C3    A    
O3    Zn6   S    
O2    Zn7   S    
C33   O9    A    
C38   C46   S    
C10   C11   D    
O12   Zn1   S    
O22   Zn4   S    
O25   Zn6   S    
C20   C21   D    
O25   Zn8   S    
C4    O24   A    
O14   Zn2   S    
C36   C43   S    
C28   O15   A    
C14   C28   S    
C4    C9    S    
C21   H5    S    
C13   H21   S    
