data_mof_unit_34694.cif
_audit_creation_date              2012-12-10T20:28:47-0500
_audit_creation_method            fapswitch 2.2
_symmetry_space_group_name_H-M    P1
_symmetry_Int_Tables_number       1
_space_group_crystal_system       triclinic
_cell_length_a                    10.617346
_cell_length_b                    10.67088
_cell_length_c                    9.880831
_cell_angle_alpha                 90.190733
_cell_angle_beta                  89.853213
_cell_angle_gamma                 89.921537
_cell_volume                      1119.45188984

loop_
_atom_site_label
_atom_site_type_symbol
_atom_type_description
_atom_site_fract_x
_atom_site_fract_y
_atom_site_fract_z
_atom_type_partial_charge
C1    C     C_R   0.503345 0.260064 0.499926 0.880009
C2    C     C_R   0.066363 0.612641 0.436611 0.049974
C3    C     C_R   0.128423 0.512416 0.501054 -0.057527
C4    C     C_R   0.064205 0.417954 0.568653 -0.184966
C5    C     C_R   0.935623 0.417979 0.568156 -0.195857
C6    C     C_R   0.871783 0.512412 0.499989 -0.078583
C7    C     C_R   0.510562 0.064456 0.622971 0.125330
C8    C     C_R   0.521306 0.128542 0.501101 -0.119632
C9    C     C_R   0.554554 0.064279 0.382265 -0.184304
C10   C     C_R   0.554747 0.934665 0.382508 -0.201471
C11   C     C_R   0.521260 0.871407 0.501458 -0.085090
C12   C     C_R   0.260584 0.503351 0.500225 0.877933
C13   C     C_R   0.509914 0.936562 0.623024 0.063112
C14   C     C_3   0.409415 0.929319 0.729174 -0.436293
C15   C     C_3   0.409736 0.071910 0.729094 -0.112559
C16   C     C_R   0.404544 0.443720 0.071498 0.159982
C17   C     C_R   0.599770 0.545062 0.071768 -0.107981
C18   C     C_R   0.599981 0.544604 0.927965 -0.092870
C19   C     C_R   0.403172 0.446396 0.929245 0.161986
C20   C     C_3   0.266973 0.483534 0.927927 0.078661
C21   C     C_3   0.268376 0.476042 0.081383 -0.497005
C22   C     C_R   0.503208 0.739943 0.500168 0.862189
C23   C     C_R   0.739467 0.503927 0.499840 0.857754
C24   C     C_R   0.132042 0.713853 0.377093 -0.233748
C25   C     C_R   0.066800 0.812018 0.315996 0.348630
C26   C     C_R   0.935598 0.811668 0.314674 -0.164473
C27   C     C_R   0.869500 0.713391 0.374557 -0.253875
C28   C     C_R   0.934410 0.612512 0.435686 0.103523
H1    H     H_    0.113989 0.342647 0.619183 0.141440
H2    H     H_    0.444379 0.886064 0.824205 0.229037
H3    H     H_    0.320725 0.115483 0.692893 0.170250
H4    H     H_    0.678938 0.584581 0.125678 0.150926
H5    H     H_    0.679447 0.583509 0.873934 0.153663
H6    H     H_    0.206115 0.411520 0.879710 0.132230
H7    H     H_    0.251757 0.567044 0.133636 0.253392
H8    H     H_    0.211843 0.396772 0.121537 0.191398
H9    H     H_    0.233680 0.719040 0.379161 0.173370
H10   H     H_    0.884539 0.888264 0.268546 0.165042
H11   H     H_    0.767841 0.718457 0.374150 0.156408
H12   H     H_    0.885547 0.342730 0.618467 0.154330
H13   H     H_    0.572583 0.113150 0.288272 0.173627
H14   H     H_    0.573124 0.884998 0.288684 0.171363
H15   H     H_    0.320261 0.888800 0.689712 0.224940
N1    N     N_R   0.499160 0.499140 0.142800 -0.096840
N2    N     N_R   0.499160 0.499180 0.857150 -0.088624
O1    O     O_R   0.500020 0.316790 0.614690 -0.607582
O2    O     O_R   0.500000 0.316760 0.385350 -0.612088
O3    O     O_R   0.316770 0.500020 0.614690 -0.585738
O4    O     O_R   0.316760 0.499980 0.385350 -0.627985
O5    O     O_R   0.500000 0.683240 0.614650 -0.591413
O6    O     O_R   0.499980 0.683210 0.385310 -0.631266
O7    O     O_R   0.683240 0.500020 0.614650 -0.623843
O8    O     O_R   0.683230 0.499980 0.385310 -0.628745
Zn1   Zn    Zn3+2 0.500010 0.500020 0.653130 0.985327
Zn2   Zn    Zn3+2 0.499990 0.499980 0.346870 0.953041
N3    N     N_3   0.455926 0.127407 0.855299 -0.431452
H16   H     H_    0.538658 0.082482 0.886236 0.200988
H17   H     H_    0.388035 0.111794 0.930179 0.214344
Br1   Br    Br    0.237303 0.654342 0.866722 -0.491677
Br2   Br    Br    0.157686 0.947791 0.236622 -0.540711

loop_
_geom_bond_atom_site_label_1
_geom_bond_atom_site_label_2
_ccdc_geom_bond_type
C17   C18   A    
C19   N2    A    
C12   O4    A    
C16   C21   S    
C21   H7    S    
C25   Br2   S    
C10   H14   S    
C1    C8    S    
C9    C10   A    
C16   N1    A    
C11   C22   S    
C9    H13   S    
C19   C20   S    
C12   O3    A    
C22   O5    A    
C14   H15   S    
C20   H6    S    
C15   N3    S    
O1    Zn1   S    
C7    C15   S    
C24   H9    S    
C23   O7    A    
C17   N1    A    
C7    C8    A    
C21   H8    S    
C13   C14   S    
C24   C25   A    
C20   Br1   S    
O3    Zn1   S    
C4    C5    A    
C11   C13   A    
N1    Zn2   S    
C26   C27   A    
O5    Zn1   S    
C14   H2    S    
C16   C19   A    
C6    C23   S    
C1    O2    A    
C25   C26   A    
N3    H17   S    
N2    Zn1   S    
C23   O8    A    
C2    C3    A    
O8    Zn2   S    
C2    C24   A    
C5    C6    A    
C18   H5    S    
C1    O1    A    
C22   O6    A    
C10   C11   A    
C3    C4    A    
C18   N2    A    
C7    C13   A    
N3    H16   S    
O2    Zn2   S    
C5    H12   S    
C27   H11   S    
C27   C28   A    
C17   H4    S    
C14   C15   S    
C26   H10   S    
C2    C28   A    
C3    C12   S    
O6    Zn2   S    
C20   C21   S    
O4    Zn2   S    
C15   H3    S    
C6    C28   A    
C4    H1    S    
O7    Zn1   S    
C8    C9    A    
