data_mof_unit_41181.cif
_audit_creation_date              2012-12-10T19:42:13-0500
_audit_creation_method            fapswitch 2.2
_symmetry_space_group_name_H-M    P1
_symmetry_Int_Tables_number       1
_space_group_crystal_system       triclinic
_cell_length_a                    10.958949
_cell_length_b                    10.893168
_cell_length_c                    9.866413
_cell_angle_alpha                 89.351877
_cell_angle_beta                  90.660205
_cell_angle_gamma                 90.494264
_cell_volume                      1177.63336172

loop_
_atom_site_label
_atom_site_type_symbol
_atom_type_description
_atom_site_fract_x
_atom_site_fract_y
_atom_site_fract_z
_atom_type_partial_charge
C1    C     C_R   0.497283 0.265853 0.500245 0.927196
C2    C     C_R   0.215912 0.533426 0.990344 -0.308300
C3    C     C_R   0.932321 0.453139 0.386342 0.334708
C4    C     C_R   0.871065 0.478820 0.505554 -0.183421
C5    C     C_R   0.940167 0.480256 0.627145 -0.114777
C6    C     C_R   0.067100 0.466243 0.622041 0.364849
C7    C     C_R   0.127500 0.484370 0.498692 -0.126898
C8    C     C_R   0.057018 0.477952 0.378000 -0.023871
C9    C     C_R   0.888170 0.600212 0.827643 -0.201751
C10   C     C_R   0.843293 0.610152 0.958115 0.338681
C11   C     C_R   0.796057 0.506862 0.023843 -0.197781
C12   C     C_R   0.262343 0.496080 0.499138 0.858101
C13   C     C_R   0.790890 0.392627 0.960082 0.431509
C14   C     C_R   0.834827 0.381494 0.827132 0.339332
C15   C     C_R   0.884154 0.487174 0.761523 -0.071122
C16   C     C_2   0.444823 0.936185 0.393626 0.413563
C17   C     C_2   0.477435 0.866498 0.501591 -0.434513
C18   C     C_2   0.429056 0.069318 0.409029 0.350596
C19   C     C_2   0.497379 0.133117 0.498888 -0.382146
C20   C     C_2   0.500112 0.401066 0.924453 0.573236
C21   C     C_2   0.480389 0.404473 0.076779 0.090273
C22   C     C_R   0.494208 0.734246 0.499318 0.898839
C23   C     C_R   0.737098 0.493073 0.501529 0.854318
C24   C     C_R   0.181187 0.636059 0.065340 0.385344
C25   C     C_R   0.128277 0.618045 0.192588 0.432005
C26   C     C_R   0.108970 0.498039 0.242911 -0.079603
C27   C     C_R   0.142402 0.396865 0.166422 -0.191331
C28   C     C_R   0.196788 0.413853 0.039965 0.372634
Cu1   Cu    Cu3+1 0.500020 0.500020 0.638630 1.053381
Cu2   Cu    Cu3+1 0.499980 0.499980 0.361370 1.060985
H1    H     H_    0.258736 0.546925 0.893359 0.210094
H2    H     H_    0.762766 0.515849 0.125604 0.246972
H3    H     H_    0.484408 0.907178 0.601335 0.149731
H4    H     H_    0.562350 0.088703 0.566672 0.147729
H5    H     H_    0.468881 0.579290 0.887162 0.227348
H6    H     H_    0.453550 0.319272 0.126080 0.152295
H7    H     H_    0.127617 0.305097 0.206483 0.238318
H8    H     H_    0.926774 0.680413 0.777613 0.206535
N1    N     N_2   0.498640 0.498660 0.846910 -0.293049
N2    N     N_2   0.498610 0.498630 0.153040 -0.061640
O1    O     O_R   0.500020 0.321960 0.617040 -0.502273
O2    O     O_R   0.499980 0.321920 0.382900 -0.557464
O3    O     O_R   0.319660 0.500030 0.617070 -0.533360
O4    O     O_R   0.319620 0.499990 0.382930 -0.591193
O5    O     O_R   0.500020 0.678080 0.617100 -0.591894
O6    O     O_R   0.499980 0.678040 0.382960 -0.546022
O7    O     O_R   0.680380 0.500010 0.617070 -0.577412
O8    O     O_R   0.680340 0.499970 0.382930 -0.558009
O9    O     O_3   0.740903 0.294522 0.030549 -0.658418
H9    H     H_    0.748117 0.218447 0.977496 0.396395
O10   O     O_3   0.828928 0.267603 0.766315 -0.707734
H10   H     H_    0.862042 0.272036 0.673679 0.348425
Cl1   Cl    Cl    0.414620 0.875154 0.230806 -0.420578
Cl2   Cl    Cl    0.317140 0.141690 0.305609 -0.556646
O11   O     O_3   0.517047 0.288464 0.865588 -0.654241
H11   H     H_    0.512428 0.223383 0.936387 0.333444
O12   O     O_3   0.198838 0.754240 0.017110 -0.587039
H12   H     H_    0.237045 0.750839 0.926608 0.332673
O13   O     O_3   0.551954 0.596403 0.093994 -0.660270
H13   H     H_    0.581795 0.648504 0.168534 0.413021
Cl3   Cl    Cl    0.088959 0.746741 0.289479 -0.443268
O14   O     O_3   0.234842 0.315739 0.964462 -0.686652
H14   H     H_    0.215213 0.238340 0.013725 0.369376
Cl4   Cl    Cl    0.870009 0.340313 0.280150 -0.560989
O15   O     O_3   0.132373 0.428733 0.734527 -0.680905
H15   H     H_    0.079319 0.375310 0.790715 0.364209
Cl5   Cl    Cl    0.845806 0.752432 0.039540 -0.471544

loop_
_geom_bond_atom_site_label_1
_geom_bond_atom_site_label_2
_ccdc_geom_bond_type
H5    N1    S    
O11   H11   S    
O14   H14   S    
C17   C22   S    
C3    Cl4   S    
Cu1   Cu2   S    
C8    C26   S    
C9    C10   A    
C14   O10   S    
C20   C21   S    
Cu1   N1    S    
O12   H12   S    
Cu2   N2    S    
C7    C8    A    
C12   O4    A    
N2    O13   S    
C25   Cl3   S    
C10   Cl5   S    
Cu1   O3    S    
C21   H6    S    
C11   C13   A    
Cu2   O4    S    
C26   C27   A    
C6    C7    A    
C21   N2    D    
C17   H3    S    
Cu1   O7    S    
C20   O11   S    
C13   O9    S    
C1    O1    A    
C9    H8    S    
C22   O6    A    
C27   H7    S    
C11   H2    S    
C18   C19   D    
C12   O3    A    
C6    O15   S    
C3    C8    A    
C2    C24   A    
C5    C6    A    
C7    C12   S    
C5    C15   S    
C1    C19   S    
C10   C11   A    
C18   Cl2   S    
O10   H10   S    
C16   C17   D    
C1    O2    A    
O13   H13   S    
C22   O5    A    
C23   O7    A    
C24   C25   A    
C16   C18   S    
O15   H15   S    
C24   O12   S    
Cu2   O8    S    
C27   C28   A    
O9    H9    S    
C20   N1    D    
C14   C15   A    
C2    H1    S    
C2    C28   A    
C23   O8    A    
Cu1   O1    S    
C25   C26   A    
C13   C14   A    
Cu2   O6    S    
C4    C23   S    
Cu2   O2    S    
C3    C4    A    
C9    C15   A    
Cu1   O5    S    
C4    C5    A    
C16   Cl1   S    
C19   H4    S    
C28   O14   S    
