data_mof_unit_10759.cif
_audit_creation_date              2013-03-05T16:36:13-0500
_audit_creation_method            fapswitch 2.2
_symmetry_space_group_name_H-M    P1
_symmetry_Int_Tables_number       1
_space_group_crystal_system       triclinic
_cell_length_a                    27.870241
_cell_length_b                    9.087526
_cell_length_c                    7.777691
_cell_angle_alpha                 89.999019
_cell_angle_beta                  89.997952
_cell_angle_gamma                 90.001664
_cell_volume                      1969.86777261

loop_
_atom_site_label
_atom_site_type_symbol
_atom_site_description
_atom_site_fract_x
_atom_site_fract_y
_atom_site_fract_z
_atom_type_partial_charge
O1    O     O_R   0.500000 0.288390 0.642760 -0.578378
O2    O     O_R   0.500000 0.711610 0.357240 -0.578364
O3    O     O_R   0.500000 0.711610 0.642760 -0.578375
O4    O     O_R   0.500000 0.288390 0.357240 -0.578363
C1    C     C_R   0.500000 0.220002 0.500001 0.842920
C2    C     C_R   0.500000 0.779998 0.499999 0.842931
O5    O     O_R   0.430260 0.500000 0.642770 -0.564197
O6    O     O_R   0.569740 0.500000 0.357230 -0.564229
O7    O     O_R   0.569740 0.500000 0.642770 -0.564180
O8    O     O_R   0.430260 0.500000 0.357230 -0.564221
C3    C     C_R   0.407168 0.499991 0.500001 0.875100
C4    C     C_R   0.592832 0.500007 0.499995 0.875094
Cu1   Cu    Cu3+1 0.500000 0.500000 0.669080 1.028408
Cu2   Cu    Cu3+1 0.500000 0.500000 0.330920 1.028395
C5    C     C_R   0.177266 0.370521 0.525061 0.589249
C6    C     C_R   0.822732 0.629337 0.524990 0.589220
C7    C     C_R   0.177256 0.629544 0.474719 0.589318
C8    C     C_R   0.822744 0.370316 0.474645 0.589349
O9    O     O_2   0.201968 0.245157 0.553804 -0.529788
O10   O     O_2   0.798029 0.754701 0.553728 -0.529799
O11   O     O_2   0.201947 0.754936 0.445998 -0.529756
O12   O     O_2   0.798054 0.244926 0.445917 -0.529739
N1    N     N_R   0.201369 0.500046 0.499897 -0.428288
N2    N     N_R   0.798631 0.499814 0.499816 -0.428290
C9    C     C_R   0.278021 0.569337 0.634026 0.101206
C10   C     C_R   0.721974 0.430536 0.633949 0.101193
C11   C     C_R   0.278030 0.430779 0.365813 0.101226
C12   C     C_R   0.721974 0.569109 0.365741 0.101244
C13   C     C_R   0.328616 0.570761 0.633760 0.017859
C14   C     C_R   0.671380 0.429170 0.633717 0.017850
C15   C     C_R   0.328623 0.429267 0.366174 0.017894
C16   C     C_R   0.671380 0.570675 0.366134 0.017899
C17   C     C_R   0.253001 0.500066 0.499905 0.327316
C18   C     C_R   0.746999 0.499798 0.499822 0.327309
C19   C     C_R   0.101458 0.499988 0.499860 -0.047282
C20   C     C_R   0.898541 0.499869 0.499816 -0.047283
C21   C     C_R   0.126938 0.367483 0.521266 -0.031368
C22   C     C_R   0.873061 0.632374 0.521213 -0.031359
C23   C     C_R   0.126926 0.632523 0.478475 -0.031392
C24   C     C_R   0.873074 0.367335 0.478419 -0.031403
C25   C     C_R   0.101730 0.235412 0.539869 -0.140136
C26   C     C_R   0.898267 0.764444 0.539828 -0.140136
C27   C     C_R   0.101706 0.764564 0.459850 -0.140148
C28   C     C_R   0.898295 0.235294 0.459806 -0.140147
C29   C     C_R   0.354056 0.499989 0.499993 -0.081450
C30   C     C_R   0.645944 0.499980 0.499972 -0.081453
H1    H     H_    0.120452 0.132354 0.559720 0.183229
H2    H     H_    0.879544 0.867502 0.559672 0.183232
H3    H     H_    0.120419 0.867644 0.440012 0.183200
H4    H     H_    0.879583 0.132216 0.439960 0.183198
C31   C     C_R   0.974643 0.364399 0.492320 0.044239
C32   C     C_R   0.025357 0.635458 0.492332 0.044240
C33   C     C_R   0.974629 0.635428 0.507327 0.044236
C34   C     C_R   0.025370 0.364428 0.507337 0.044236
C35   C     C_R   0.949442 0.499899 0.499820 0.073197
C36   C     C_R   0.050558 0.499958 0.499842 0.073197
C37   C     C_R   0.948127 0.233455 0.467924 -0.204176
C38   C     C_R   0.051873 0.766402 0.467947 -0.204179
C39   C     C_R   0.948099 0.766341 0.531716 -0.204196
C40   C     C_R   0.051899 0.233514 0.531736 -0.204192
H5    H     H_    0.965113 0.128208 0.448690 0.129833
H6    H     H_    0.034888 0.871650 0.448705 0.129834
H7    H     H_    0.965074 0.871609 0.550953 0.129850
H8    H     H_    0.034924 0.128246 0.550964 0.129849
C41   C     C_1   0.500000 0.065378 0.500001 -0.164973
C42   C     C_1   0.500000 0.934622 0.499999 -0.164968
N3    N     N_1   0.500000 0.500000 0.076820 -0.037559
N4    N     N_1   0.500000 0.500000 0.923180 -0.037555
N5    N     N_3   0.354394 0.352951 0.233494 -0.560513
H9    H     H_    0.344256 0.242241 0.234724 0.225181
H10   H     H_    0.345306 0.398440 0.114496 0.221657
N6    N     N_3   0.645614 0.647005 0.233457 -0.560523
H11   H     H_    0.654684 0.601469 0.114468 0.221691
H12   H     H_    0.655772 0.757695 0.234630 0.225187
N7    N     N_3   0.354380 0.647086 0.766445 -0.560490
H13   H     H_    0.344314 0.757866 0.764938 0.225161
H14   H     H_    0.345208 0.601822 0.885497 0.221568
N8    N     N_3   0.645611 0.352839 0.766395 -0.560474
H15   H     H_    0.655636 0.242018 0.764737 0.225145
H16   H     H_    0.654822 0.397974 0.885478 0.221550
N9    N     N_3   0.251344 0.362240 0.229902 -0.557542
H17   H     H_    0.261301 0.410003 0.113150 0.210383
H18   H     H_    0.259984 0.250390 0.226385 0.249528
N10   N     N_3   0.748663 0.637622 0.229812 -0.557558
H19   H     H_    0.738694 0.589879 0.113066 0.210378
H20   H     H_    0.740038 0.749483 0.226306 0.249538
N11   N     N_3   0.251327 0.637940 0.769875 -0.557463
H21   H     H_    0.261233 0.590109 0.886643 0.210411
H22   H     H_    0.260012 0.749760 0.773456 0.249498
N12   N     N_3   0.748664 0.361894 0.769778 -0.557441
H23   H     H_    0.738778 0.409758 0.886550 0.210413
H24   H     H_    0.739955 0.250093 0.773391 0.249483

loop_
_geom_bond_atom_site_label_1
_geom_bond_atom_site_label_2
_geom_bond_distance
_ccdc_geom_bond_type
C38   H6    1.077633 S    
N11   H21   1.044017 S    
C12   N10   1.434765 S    
N6    H12   1.045007 S    
O3    C2    1.272435 A    
N9    H17   1.044002 S    
C33   C39   1.413522 A    
C16   N6    1.435878 S    
C34   C40   1.413524 A    
C11   C17   1.403831 A    
C5    O9    1.349771 S    
C7    N1    1.369279 A    
C2    C42   1.405151 S    
O1    C1    1.272441 A    
C19   C21   1.407840 A    
N10   H20   1.044937 S    
C22   C26   1.398186 A    
N8    H16   1.044982 S    
C9    N11   1.434766 S    
C7    C23   1.403260 A    
N5    H10   1.044823 S    
C8    C24   1.403266 A    
C5    C21   1.403247 A    
C20   C24   1.407850 A    
O7    Cu1   1.954403 S    
C27   C38   1.390372 A    
C10   C18   1.403838 A    
N1    C17   1.438988 S    
Cu2   N3    1.976311 S    
C31   C37   1.413529 A    
O3    Cu1   1.933873 S    
C6    O10   1.349772 S    
N6    H11   1.044802 S    
C5    N1    1.369286 A    
C12   C18   1.403834 A    
C6    N2    1.369286 A    
Cu1   Cu2   2.630105 S    
C21   C25   1.398189 A    
O2    C2    1.272442 A    
N9    H18   1.044942 S    
O5    C3    1.283459 A    
C33   C35   1.418809 A    
C9    C13   1.410141 A    
C34   C36   1.418811 A    
C11   C15   1.410123 A    
N3    N4    1.194965 T    
C12   C16   1.410120 A    
N10   H19   1.044000 S    
C1    C41   1.405151 S    
O8    Cu2   1.954406 S    
N8    H15   1.045211 S    
C27   H3    1.083162 S    
C11   N9    1.434765 S    
C23   C27   1.398185 A    
N2    C18   1.438991 S    
C13   C29   1.413778 A    
C19   C23   1.407849 A    
N7    H13   1.045145 S    
C15   N5    1.435876 S    
N12   H24   1.044956 S    
C24   C28   1.398186 A    
C28   C37   1.390376 A    
O6    C4    1.283437 A    
C25   H1    1.083164 S    
C26   H2    1.083163 S    
N7    H14   1.044930 S    
C32   C38   1.413527 A    
C4    C30   1.480236 S    
C10   C14   1.410136 A    
N11   H22   1.044959 S    
C8    N2    1.369278 A    
C3    C29   1.480239 S    
O1    Cu1   1.933881 S    
C32   C33   1.418611 A    
C28   H4    1.083163 S    
O6    Cu2   1.954417 S    
C19   C36   1.418604 A    
C8    O12   1.349767 S    
C16   C30   1.413785 A    
C14   C30   1.413774 A    
C25   C40   1.390367 A    
O4    C1    1.272435 A    
C26   C39   1.390366 A    
C37   H5    1.077633 S    
C13   N7    1.435873 S    
C10   N12   1.434764 S    
C39   H7    1.077631 S    
C40   H8    1.077632 S    
C31   C34   1.418614 A    
C20   C22   1.407837 A    
C20   C35   1.418606 A    
N12   H23   1.044018 S    
C31   C35   1.418802 A    
O4    Cu2   1.933874 S    
N5    H9    1.045030 S    
O2    Cu2   1.933880 S    
O7    C4    1.283458 A    
C7    O11   1.349768 S    
O8    C3    1.283436 A    
C14   N8    1.435871 S    
O5    Cu1   1.954420 S    
C41   C42   1.188240 T    
C15   C29   1.413789 A    
C9    C17   1.403838 A    
C32   C36   1.418802 A    
C6    C22   1.403242 A    
Cu1   N4    1.976311 S    
