data_mof_unit_60464.cif
_audit_creation_date              2012-12-10T18:05:47-0500
_audit_creation_method            fapswitch 2.2
_symmetry_space_group_name_H-M    P1
_symmetry_Int_Tables_number       1
_space_group_crystal_system       triclinic
_cell_length_a                    21.695467
_cell_length_b                    21.688369
_cell_length_c                    30.251535
_cell_angle_alpha                 90.001702
_cell_angle_beta                  90.003223
_cell_angle_gamma                 82.861201
_cell_volume                      14124.1899288

loop_
_atom_site_label
_atom_site_type_symbol
_atom_type_description
_atom_site_fract_x
_atom_site_fract_y
_atom_site_fract_z
_atom_type_partial_charge
C1    C     C_R   0.120828 0.495867 0.500930 0.847629
C2    C     C_R   0.504184 0.879110 0.498737 0.850041
C3    C     C_R   0.879171 0.504134 0.500934 0.847640
C4    C     C_R   0.495815 0.120891 0.498734 0.850145
C5    C     C_R   0.620832 0.995862 0.000946 0.847769
C6    C     C_R   0.004181 0.379113 0.998758 0.849879
C7    C     C_R   0.379167 0.004138 0.000947 0.847789
C8    C     C_R   0.995818 0.620887 0.998757 0.849879
C9    C     C_R   0.501208 0.379365 0.499966 0.861737
C10   C     C_R   0.379424 0.500784 0.499969 0.861484
C11   C     C_R   0.498788 0.620635 0.499968 0.861739
C12   C     C_R   0.620577 0.499209 0.499972 0.861459
C13   C     C_R   0.001187 0.879369 0.999971 0.861773
C14   C     C_R   0.879421 0.000807 0.999973 0.861457
C15   C     C_R   0.998813 0.120631 0.999972 0.861773
C16   C     C_R   0.120579 0.999193 0.999976 0.861454
C17   C     C_R   0.313540 0.495428 0.500531 -0.149675
C18   C     C_R   0.504267 0.686495 0.499043 -0.147553
C19   C     C_R   0.686461 0.504570 0.500546 -0.149642
C20   C     C_R   0.495724 0.313507 0.499034 -0.147567
C21   C     C_R   0.813539 0.995434 0.000562 -0.149590
C22   C     C_R   0.004286 0.186491 0.999069 -0.147674
C23   C     C_R   0.186460 0.004568 0.000569 -0.149585
C24   C     C_R   0.995711 0.813510 0.999064 -0.147671
C25   C     C_R   0.275189 0.539466 0.525853 0.078655
C26   C     C_R   0.556937 0.709147 0.518641 0.053112
C27   C     C_R   0.724818 0.460525 0.525863 0.078659
C28   C     C_R   0.443042 0.290858 0.518612 0.053115
C29   C     C_R   0.290416 0.444420 0.478913 0.052191
C30   C     C_R   0.540779 0.274938 0.474612 0.077823
C31   C     C_R   0.709575 0.555596 0.478949 0.052202
C32   C     C_R   0.459215 0.725063 0.474615 0.077857
C33   C     C_R   0.775176 0.039522 0.025841 0.078585
C34   C     C_R   0.056870 0.209166 0.018776 0.053063
C35   C     C_R   0.224828 0.960477 0.025844 0.078585
C36   C     C_R   0.943125 0.790837 0.018766 0.053062
C37   C     C_R   0.790446 0.944324 0.979062 0.052279
C38   C     C_R   0.040715 0.774950 0.974601 0.077880
C39   C     C_R   0.209549 0.055683 0.979075 0.052280
C40   C     C_R   0.959282 0.225049 0.974603 0.077880
C41   C     C_R   0.999997 0.500000 0.414021 0.917031
C42   C     C_R   0.499998 0.000002 0.414065 0.900551
C43   C     C_R   0.999998 0.500001 0.585963 0.903078
C44   C     C_R   0.500001 0.000002 0.585963 0.921168
C45   C     C_R   0.500000 0.999999 0.914021 0.917317
C46   C     C_R   0.999998 0.500001 0.914064 0.900781
C47   C     C_R   0.500000 0.000001 0.085964 0.902981
C48   C     C_R   0.000001 0.500001 0.085963 0.920851
C49   C     C_R   0.188202 0.486145 0.506625 -0.190978
C50   C     C_R   0.514002 0.811717 0.492115 -0.197622
C51   C     C_R   0.811798 0.513858 0.506645 -0.191060
C52   C     C_R   0.485992 0.188283 0.492100 -0.197696
C53   C     C_R   0.688208 0.986127 0.006698 -0.191419
C54   C     C_R   0.013993 0.311721 0.992191 -0.197282
C55   C     C_R   0.311792 0.013874 0.006704 -0.191450
C56   C     C_R   0.986005 0.688279 0.992187 -0.197293
C57   C     C_R   0.214092 0.528995 0.533976 0.063656
C58   C     C_R   0.562893 0.773501 0.514711 0.041101
C59   C     C_R   0.785919 0.470995 0.533987 0.063655
C60   C     C_R   0.437081 0.226506 0.514671 0.041056
C61   C     C_R   0.225888 0.438974 0.482052 0.040142
C62   C     C_R   0.530399 0.213863 0.465993 0.065982
C63   C     C_R   0.774101 0.561049 0.482097 0.040156
C64   C     C_R   0.469602 0.786134 0.465997 0.065916
C65   C     C_R   0.714081 0.029055 0.033988 0.063775
C66   C     C_R   0.062793 0.273533 0.014900 0.041064
C67   C     C_R   0.285926 0.970943 0.033990 0.063778
C68   C     C_R   0.937203 0.726469 0.014889 0.041073
C69   C     C_R   0.725928 0.938845 0.982247 0.040274
C70   C     C_R   0.030325 0.713876 0.966007 0.065796
C71   C     C_R   0.274067 0.061161 0.982261 0.040275
C72   C     C_R   0.969672 0.286121 0.966009 0.065794
C73   C     C_R   0.056155 0.504418 0.297165 0.418845
C74   C     C_R   0.521490 0.944878 0.297669 0.414419
C75   C     C_R   0.943844 0.495574 0.297159 0.418838
C76   C     C_R   0.478498 0.055118 0.297669 0.414451
C77   C     C_R   0.054468 0.476442 0.702428 0.414828
C78   C     C_R   0.499968 0.056879 0.702796 0.418757
C79   C     C_R   0.945504 0.523573 0.702419 0.414790
C80   C     C_R   0.500076 0.943081 0.702785 0.418654
C81   C     C_R   0.556208 0.004223 0.797167 0.418774
C82   C     C_R   0.021525 0.444899 0.797667 0.414531
C83   C     C_R   0.443827 0.995725 0.797155 0.418883
C84   C     C_R   0.978438 0.555111 0.797671 0.414486
C85   C     C_R   0.554484 0.976445 0.202429 0.414801
C86   C     C_R   0.000088 0.556877 0.202792 0.418782
C87   C     C_R   0.445512 0.023554 0.202425 0.414805
C88   C     C_R   0.999919 0.443115 0.202788 0.418683
C89   C     C_R   0.055810 0.505645 0.343402 0.006100
C90   C     C_R   0.528459 0.947265 0.343492 -0.013677
C91   C     C_R   0.944185 0.494362 0.343396 0.006125
C92   C     C_R   0.471523 0.052731 0.343490 -0.013633
C93   C     C_R   0.051775 0.469539 0.656610 -0.011305
C94   C     C_R   0.501124 0.056647 0.656554 0.007296
C95   C     C_R   0.948202 0.530465 0.656600 -0.011334
C96   C     C_R   0.498887 0.943331 0.656543 0.007313
C97   C     C_R   0.555869 0.005415 0.843405 0.006244
C98   C     C_R   0.028528 0.447303 0.843486 -0.013537
C99   C     C_R   0.444151 0.994563 0.843394 0.006238
C100  C     C_R   0.971447 0.552703 0.843490 -0.013529
C101  C     C_R   0.551804 0.969574 0.156607 -0.011334
C102  C     C_R   0.001313 0.556628 0.156552 0.007194
C103  C     C_R   0.448195 0.030431 0.156603 -0.011336
C104  C     C_R   0.998694 0.443368 0.156547 0.007208
C105  C     C_R   0.999998 0.500000 0.366198 -0.244621
C106  C     C_R   0.499993 0.999999 0.366382 -0.244714
C107  C     C_R   0.999991 0.500002 0.633696 -0.249954
C108  C     C_R   0.500004 0.999993 0.633761 -0.242995
C109  C     C_R   0.500006 0.999995 0.866198 -0.244580
C110  C     C_R   0.999992 0.500003 0.866380 -0.245039
C111  C     C_R   0.500000 0.000003 0.133696 -0.249865
C112  C     C_R   0.000004 0.499999 0.133762 -0.243026
C113  C     C_R   0.000000 0.499993 0.274146 -0.200800
C114  C     C_R   0.499995 0.999998 0.274367 -0.193044
C115  C     C_R   0.999984 0.500009 0.725720 -0.193529
C116  C     C_R   0.500026 0.999976 0.725807 -0.201241
C117  C     C_R   0.500022 0.999969 0.774145 -0.200857
C118  C     C_R   0.999981 0.500006 0.774366 -0.193089
C119  C     C_R   0.499997 0.999999 0.225722 -0.193527
C120  C     C_R   0.000002 0.499995 0.225806 -0.201198
O1    O     O_R   0.091600 0.448290 0.500030 -0.642079
O2    O     O_R   0.448290 0.908400 0.500030 -0.616534
O3    O     O_R   0.908400 0.551710 0.500030 -0.642092
O4    O     O_R   0.551710 0.091600 0.500030 -0.616513
O5    O     O_R   0.091600 0.551710 0.499970 -0.617586
O6    O     O_R   0.448290 0.091600 0.499970 -0.642894
O7    O     O_R   0.908400 0.448290 0.499970 -0.617573
O8    O     O_R   0.551710 0.908400 0.499970 -0.642875
O9    O     O_R   0.591600 0.948290 0.000030 -0.642135
O10   O     O_R   0.948290 0.408400 0.000030 -0.616582
O11   O     O_R   0.408400 0.051710 0.000030 -0.642138
O12   O     O_R   0.051710 0.591600 0.000030 -0.616579
O13   O     O_R   0.591600 0.051710 0.999970 -0.617494
O14   O     O_R   0.948290 0.591600 0.999970 -0.642826
O15   O     O_R   0.408400 0.948290 0.999970 -0.617492
O16   O     O_R   0.051710 0.408400 0.999970 -0.642820
O17   O     O_R   0.999980 0.448290 0.434550 -0.619153
O18   O     O_R   0.448290 0.000020 0.434550 -0.628557
O19   O     O_R   0.000020 0.551710 0.434550 -0.619134
O20   O     O_R   0.551710 0.999980 0.434550 -0.628549
O21   O     O_R   0.999980 0.551710 0.565450 -0.628080
O22   O     O_R   0.448290 0.999980 0.565450 -0.619392
O23   O     O_R   0.000020 0.448290 0.565450 -0.628081
O24   O     O_R   0.551710 0.000020 0.565450 -0.619448
O25   O     O_R   0.499980 0.948290 0.934550 -0.619179
O26   O     O_R   0.948290 0.500020 0.934550 -0.628551
O27   O     O_R   0.500020 0.051710 0.934550 -0.619173
O28   O     O_R   0.051710 0.499980 0.934550 -0.628553
O29   O     O_R   0.499980 0.051710 0.065450 -0.628112
O30   O     O_R   0.948290 0.499980 0.065450 -0.619352
O31   O     O_R   0.500020 0.948290 0.065450 -0.628110
O32   O     O_R   0.051710 0.500020 0.065450 -0.619355
O33   O     O_R   0.499980 0.408290 0.536960 -0.635679
O34   O     O_R   0.408290 0.500020 0.536960 -0.634013
O35   O     O_R   0.500020 0.591710 0.536960 -0.635690
O36   O     O_R   0.591710 0.499980 0.536960 -0.634002
O37   O     O_R   0.499980 0.591710 0.463040 -0.633888
O38   O     O_R   0.408290 0.499980 0.463040 -0.637633
O39   O     O_R   0.500020 0.408290 0.463040 -0.633874
O40   O     O_R   0.591710 0.500020 0.463040 -0.637598
O41   O     O_R   0.999980 0.908290 0.036960 -0.635802
O42   O     O_R   0.908290 0.000020 0.036960 -0.633988
O43   O     O_R   0.000020 0.091710 0.036960 -0.635808
O44   O     O_R   0.091710 0.999980 0.036960 -0.633985
O45   O     O_R   0.999980 0.091710 0.963040 -0.633907
O46   O     O_R   0.908290 0.999980 0.963040 -0.637493
O47   O     O_R   0.000020 0.908290 0.963040 -0.633904
O48   O     O_R   0.091710 0.000020 0.963040 -0.637487
Zn1   Zn    Zn3+2 1.000000 0.430950 0.500000 0.917696
Zn2   Zn    Zn3+2 0.430950 0.000000 0.500000 0.918184
Zn3   Zn    Zn3+2 1.000000 0.569050 0.500000 0.917715
Zn4   Zn    Zn3+2 0.569050 0.000000 0.500000 0.918167
Zn5   Zn    Zn3+2 0.500000 0.930950 0.000000 0.917736
Zn6   Zn    Zn3+2 0.930950 0.500000 0.000000 0.918185
Zn7   Zn    Zn3+2 0.500000 0.069050 0.000000 0.917740
Zn8   Zn    Zn3+2 0.069050 0.500000 0.000000 0.918185
Zn9   Zn    Zn3+2 0.500000 0.500000 0.549370 0.892448
Zn10  Zn    Zn3+2 0.500000 0.500000 0.450630 0.891057
Zn11  Zn    Zn3+2 0.000000 0.000000 0.049370 0.892316
Zn12  Zn    Zn3+2 0.000000 0.000000 0.950630 0.891169
O49   O     O_3   0.112258 0.507744 0.275881 -0.775421
H1    H     H_    0.108969 0.499028 0.243981 0.345449
O50   O     O_3   0.537349 0.888532 0.276593 -0.750187
H2    H     H_    0.512191 0.887534 0.249353 0.337726
O51   O     O_3   0.887742 0.492241 0.275870 -0.775420
H3    H     H_    0.891040 0.500918 0.243966 0.345457
O52   O     O_3   0.462641 0.111463 0.276593 -0.750194
H4    H     H_    0.487804 0.112462 0.249358 0.337713
O53   O     O_3   0.110383 0.458463 0.723532 -0.751420
H5    H     H_    0.112396 0.483547 0.750722 0.337192
O54   O     O_3   0.498979 0.113622 0.724091 -0.774778
H6    H     H_    0.490873 0.109602 0.756021 0.345403
O55   O     O_3   0.889585 0.541557 0.723515 -0.751396
H7    H     H_    0.887569 0.516479 0.750706 0.337208
O56   O     O_3   0.501084 0.886331 0.724070 -0.774818
H8    H     H_    0.509232 0.890339 0.755996 0.345399
O57   O     O_3   0.612342 0.007408 0.775888 -0.775490
H9    H     H_    0.608985 0.998931 0.743958 0.345510
O58   O     O_3   0.037410 0.388558 0.776592 -0.750167
H10   H     H_    0.012221 0.387534 0.749369 0.337686
O59   O     O_3   0.387699 0.992531 0.775866 -0.775503
H11   H     H_    0.391070 0.000964 0.743932 0.345512
O60   O     O_3   0.962546 0.611453 0.776601 -0.750175
H12   H     H_    0.987729 0.612481 0.749377 0.337697
O61   O     O_3   0.610396 0.958451 0.223535 -0.751507
H13   H     H_    0.612400 0.983505 0.250740 0.337201
O62   O     O_3   0.999189 0.613608 0.224086 -0.774747
H14   H     H_    0.990805 0.609642 0.255982 0.345337
O63   O     O_3   0.389599 0.041545 0.223525 -0.751484
H15   H     H_    0.387592 0.016487 0.250727 0.337200
O64   O     O_3   0.000820 0.386382 0.224077 -0.774755
H16   H     H_    0.009200 0.390346 0.255974 0.345340
C121  C     C_3   0.116145 0.511788 0.367819 -0.333572
C122  C     C_3   0.129863 0.579380 0.368108 -0.289692
C123  C     C_3   0.189091 0.586157 0.393885 -0.906834
H17   H     H_    0.184267 0.571996 0.428860 0.272084
H18   H     H_    0.229475 0.557160 0.378807 0.262074
H19   H     H_    0.197652 0.635513 0.393172 0.254743
H20   H     H_    0.135329 0.595814 0.333704 0.256324
H21   H     H_    0.090480 0.609333 0.383687 0.226076
H22   H     H_    0.114437 0.495628 0.402413 0.163778
H23   H     H_    0.155196 0.481433 0.352169 0.225782
C124  C     C_3   0.564291 0.892093 0.367166 -0.327945
C125  C     C_3   0.634055 0.897292 0.366833 -0.302365
C126  C     C_3   0.670531 0.842373 0.390660 -0.900954
H24   H     H_    0.655070 0.840507 0.425556 0.260607
H25   H     H_    0.663838 0.798075 0.373949 0.265011
H26   H     H_    0.720742 0.847741 0.390256 0.248772
H27   H     H_    0.650823 0.898454 0.332143 0.247878
H28   H     H_    0.643029 0.941030 0.383409 0.228451
H29   H     H_    0.548367 0.888017 0.401718 0.179529
H30   H     H_    0.556379 0.848101 0.350712 0.240164
C127  C     C_3   0.883843 0.488253 0.367809 -0.333589
C128  C     C_3   0.870119 0.420663 0.368132 -0.289747
C129  C     C_3   0.810865 0.413927 0.393884 -0.906768
H31   H     H_    0.815652 0.428147 0.428851 0.272050
H32   H     H_    0.770495 0.442895 0.378764 0.262075
H33   H     H_    0.802307 0.364568 0.393204 0.254721
H34   H     H_    0.864683 0.404184 0.333735 0.256289
H35   H     H_    0.909485 0.390729 0.383747 0.226107
H36   H     H_    0.885542 0.504460 0.402394 0.163737
H37   H     H_    0.844797 0.518591 0.352137 0.225825
C130  C     C_3   0.435677 0.107897 0.367162 -0.327930
C131  C     C_3   0.365919 0.102665 0.366844 -0.302428
C132  C     C_3   0.329426 0.157600 0.390642 -0.900959
H38   H     H_    0.344901 0.159522 0.425532 0.260585
H39   H     H_    0.336086 0.201882 0.373900 0.265024
H40   H     H_    0.279219 0.152207 0.390254 0.248794
H41   H     H_    0.349142 0.101453 0.332157 0.247827
H42   H     H_    0.356970 0.058940 0.383446 0.228486
H43   H     H_    0.451619 0.111994 0.401709 0.179495
H44   H     H_    0.443555 0.151889 0.350698 0.240203
C133  C     C_3   0.105661 0.431706 0.632867 -0.326392
C134  C     C_3   0.096311 0.362880 0.631453 -0.302697
C135  C     C_3   0.148264 0.325032 0.605522 -0.903289
H45   H     H_    0.149013 0.341898 0.570881 0.263068
H46   H     H_    0.194003 0.328643 0.621179 0.264461
H47   H     H_    0.140263 0.275472 0.605140 0.247885
H48   H     H_    0.095735 0.344376 0.665712 0.244365
H49   H     H_    0.051117 0.357272 0.615654 0.231431
H50   H     H_    0.111528 0.449027 0.598847 0.181476
H51   H     H_    0.150038 0.435907 0.650087 0.239355
C136  C     C_3   0.502744 0.117861 0.632149 -0.336617
C137  C     C_3   0.568665 0.136304 0.631624 -0.294763
C138  C     C_3   0.570762 0.197717 0.607415 -0.902281
H52   H     H_    0.556012 0.193834 0.572519 0.269647
H53   H     H_    0.539995 0.235613 0.623905 0.261127
H54   H     H_    0.619026 0.209556 0.607811 0.253861
H55   H     H_    0.585497 0.141115 0.665998 0.256835
H56   H     H_    0.600489 0.099512 0.614779 0.225895
H57   H     H_    0.486415 0.115165 0.597628 0.163475
H58   H     H_    0.470210 0.155005 0.648030 0.228019
C139  C     C_3   0.894307 0.568277 0.632848 -0.326353
C140  C     C_3   0.903615 0.637114 0.631459 -0.302669
C141  C     C_3   0.851629 0.674954 0.605552 -0.903260
H59   H     H_    0.850863 0.658106 0.570906 0.263033
H60   H     H_    0.805905 0.671314 0.621219 0.264472
H61   H     H_    0.859607 0.724521 0.605181 0.247882
H62   H     H_    0.904200 0.655596 0.665725 0.244418
H63   H     H_    0.948794 0.642758 0.615654 0.231380
H64   H     H_    0.888470 0.550971 0.598819 0.181446
H65   H     H_    0.849928 0.564032 0.650049 0.239327
C142  C     C_3   0.497224 0.882129 0.632127 -0.336570
C143  C     C_3   0.431309 0.863666 0.631673 -0.294714
C144  C     C_3   0.429147 0.802326 0.607379 -0.902292
H66   H     H_    0.443737 0.806340 0.572458 0.269698
H67   H     H_    0.460010 0.764394 0.623751 0.261105
H68   H     H_    0.380897 0.790450 0.607852 0.253836
H69   H     H_    0.414595 0.858741 0.666065 0.256912
H70   H     H_    0.399417 0.900501 0.614927 0.225833
H71   H     H_    0.513459 0.884853 0.597588 0.163550
H72   H     H_    0.529807 0.844983 0.647963 0.227892
C145  C     C_3   0.616252 0.011317 0.867828 -0.333673
C146  C     C_3   0.630181 0.078841 0.868183 -0.290047
C147  C     C_3   0.689517 0.085374 0.893896 -0.906509
H73   H     H_    0.684744 0.071136 0.928858 0.271956
H74   H     H_    0.729796 0.056321 0.878733 0.262027
H75   H     H_    0.698214 0.134690 0.893236 0.254655
H76   H     H_    0.635610 0.095342 0.833792 0.256267
H77   H     H_    0.590912 0.108859 0.883841 0.226138
H78   H     H_    0.614505 0.995083 0.902404 0.163681
H79   H     H_    0.655219 0.980888 0.852143 0.225932
C148  C     C_3   0.064483 0.392204 0.867160 -0.327839
C149  C     C_3   0.134188 0.397704 0.866977 -0.302650
C150  C     C_3   0.170762 0.342984 0.890953 -0.900964
H80   H     H_    0.155168 0.341173 0.925822 0.260750
H81   H     H_    0.164321 0.298582 0.874292 0.264959
H82   H     H_    0.220927 0.348558 0.890638 0.248675
H83   H     H_    0.151096 0.398836 0.832321 0.247510
H84   H     H_    0.142910 0.441549 0.883514 0.228760
H85   H     H_    0.048431 0.387995 0.901669 0.179616
H86   H     H_    0.056849 0.348181 0.850635 0.240204
C151  C     C_3   0.383757 0.988688 0.867806 -0.333682
C152  C     C_3   0.369820 0.921167 0.868181 -0.290067
C153  C     C_3   0.310469 0.914664 0.893881 -0.906500
H87   H     H_    0.315230 0.928925 0.928840 0.271943
H88   H     H_    0.270202 0.943712 0.878699 0.262024
H89   H     H_    0.301762 0.865350 0.893233 0.254655
H90   H     H_    0.364404 0.904637 0.833795 0.256254
H91   H     H_    0.409078 0.891157 0.883861 0.226151
H92   H     H_    0.385493 0.004952 0.902377 0.163662
H93   H     H_    0.344798 0.019107 0.852102 0.225952
C154  C     C_3   0.935492 0.607798 0.867168 -0.327834
C155  C     C_3   0.865786 0.602299 0.866976 -0.302641
C156  C     C_3   0.829211 0.657020 0.890952 -0.900960
H94   H     H_    0.844800 0.658826 0.925824 0.260742
H95   H     H_    0.835656 0.701422 0.874297 0.264961
H96   H     H_    0.779046 0.651447 0.890629 0.248679
H97   H     H_    0.848881 0.601170 0.832318 0.247515
H98   H     H_    0.857062 0.558454 0.883509 0.228743
H99   H     H_    0.951542 0.612001 0.901680 0.179620
H100  H     H_    0.943127 0.651823 0.850650 0.240193
C157  C     C_3   0.605731 0.931811 0.132859 -0.326374
C158  C     C_3   0.596514 0.862950 0.131492 -0.302631
C159  C     C_3   0.648569 0.825142 0.105632 -0.903238
H101  H     H_    0.649369 0.841978 0.070986 0.262960
H102  H     H_    0.694260 0.828835 0.121335 0.264470
H103  H     H_    0.640641 0.775562 0.105257 0.247882
H104  H     H_    0.595912 0.844496 0.165764 0.244519
H105  H     H_    0.551367 0.857238 0.115660 0.231331
H106  H     H_    0.611536 0.949100 0.098823 0.181389
H107  H     H_    0.650101 0.936133 0.150054 0.239326
C160  C     C_3   0.003176 0.617804 0.132145 -0.336491
C161  C     C_3   0.069156 0.636095 0.131754 -0.294449
C162  C     C_3   0.071540 0.697314 0.107353 -0.902495
H108  H     H_    0.057053 0.693196 0.072415 0.269812
H109  H     H_    0.040700 0.735374 0.123607 0.261124
H110  H     H_    0.119832 0.709070 0.107881 0.253873
H111  H     H_    0.085779 0.641107 0.166161 0.256970
H112  H     H_    0.101019 0.599130 0.115116 0.225798
H113  H     H_    0.987004 0.615112 0.097589 0.163568
H114  H     H_    0.970646 0.655024 0.147948 0.227730
C163  C     C_3   0.394271 0.068198 0.132853 -0.326369
C164  C     C_3   0.403495 0.137057 0.131489 -0.302643
C165  C     C_3   0.351439 0.174868 0.105629 -0.903237
H115  H     H_    0.350629 0.158029 0.070984 0.262956
H116  H     H_    0.305750 0.171182 0.121335 0.264474
H117  H     H_    0.359374 0.224446 0.105253 0.247882
H118  H     H_    0.404104 0.155511 0.165761 0.244510
H119  H     H_    0.448641 0.142764 0.115656 0.231334
H120  H     H_    0.388463 0.050908 0.098816 0.181380
H121  H     H_    0.349900 0.063882 0.150044 0.239317
C166  C     C_3   0.996827 0.382194 0.132135 -0.336465
C167  C     C_3   0.930849 0.363897 0.131750 -0.294436
C168  C     C_3   0.928463 0.302675 0.107350 -0.902508
H122  H     H_    0.942942 0.306789 0.072412 0.269815
H123  H     H_    0.959309 0.264618 0.123605 0.261130
H124  H     H_    0.880173 0.290917 0.107882 0.253870
H125  H     H_    0.914236 0.358886 0.166158 0.256985
H126  H     H_    0.898979 0.400858 0.115113 0.225787
H127  H     H_    0.012983 0.384892 0.097578 0.163565
H128  H     H_    0.029367 0.344976 0.147932 0.227717
C169  C     C_3   0.175847 0.563984 0.571126 -0.372562
C170  C     C_3   0.205446 0.551755 0.616852 -0.373472
C171  C     C_3   0.164761 0.584117 0.653294 -0.873231
H129  H     H_    0.161773 0.635335 0.649443 0.255184
H130  H     H_    0.117205 0.570543 0.652043 0.266968
H131  H     H_    0.185339 0.571021 0.686092 0.263207
H132  H     H_    0.213575 0.501077 0.623165 0.217838
H133  H     H_    0.250671 0.569213 0.618667 0.248863
H134  H     H_    0.167403 0.614535 0.564313 0.198317
H135  H     H_    0.129251 0.548714 0.573994 0.210353
C172  C     C_3   0.617516 0.806083 0.532896 -0.362081
C173  C     C_3   0.679303 0.772939 0.550669 -0.409877
C174  C     C_3   0.723917 0.819916 0.562095 -0.886433
H136  H     H_    0.734653 0.846422 0.532226 0.259111
H137  H     H_    0.703350 0.852832 0.587806 0.266886
H138  H     H_    0.768021 0.795074 0.575056 0.256317
H139  H     H_    0.672456 0.747494 0.581544 0.251773
H140  H     H_    0.702471 0.741882 0.525000 0.220516
H141  H     H_    0.633434 0.832115 0.504394 0.231078
H142  H     H_    0.598658 0.839222 0.558909 0.206916
C175  C     C_3   0.824192 0.435975 0.571114 -0.372565
C176  C     C_3   0.794604 0.448102 0.616851 -0.373526
C177  C     C_3   0.835347 0.415746 0.653267 -0.873281
H143  H     H_    0.838422 0.364528 0.649372 0.255206
H144  H     H_    0.882868 0.429407 0.652029 0.266967
H145  H     H_    0.814761 0.428757 0.686075 0.263162
H146  H     H_    0.786404 0.498769 0.623202 0.217894
H147  H     H_    0.749419 0.430564 0.618657 0.248909
H148  H     H_    0.832676 0.385437 0.564255 0.198305
H149  H     H_    0.870771 0.451283 0.573997 0.210382
C178  C     C_3   0.382435 0.193937 0.532824 -0.362076
C179  C     C_3   0.320607 0.227113 0.550503 -0.409815
C180  C     C_3   0.275926 0.180168 0.561850 -0.886525
H150  H     H_    0.265263 0.153664 0.531960 0.259103
H151  H     H_    0.296397 0.147247 0.587589 0.266896
H152  H     H_    0.231794 0.205036 0.574741 0.256326
H153  H     H_    0.327379 0.252556 0.581394 0.251745
H154  H     H_    0.297536 0.258178 0.524801 0.220505
H155  H     H_    0.366572 0.167868 0.504320 0.231139
H156  H     H_    0.401243 0.160833 0.558874 0.206865
C181  C     C_3   0.192372 0.386421 0.461512 -0.363520
C182  C     C_3   0.223647 0.327829 0.438007 -0.411204
C183  C     C_3   0.175041 0.287309 0.422320 -0.880553
H157  H     H_    0.148336 0.272188 0.450832 0.259349
H158  H     H_    0.142466 0.313278 0.398551 0.266348
H159  H     H_    0.198470 0.245326 0.405474 0.254966
H160  H     H_    0.249034 0.339527 0.408195 0.252675
H161  H     H_    0.254354 0.298978 0.461221 0.221238
H162  H     H_    0.168368 0.366559 0.489567 0.228302
H163  H     H_    0.157345 0.408666 0.437928 0.208030
C184  C     C_3   0.567234 0.175020 0.429912 -0.371457
C185  C     C_3   0.559460 0.204839 0.383928 -0.377742
C186  C     C_3   0.591258 0.162183 0.348317 -0.874259
H164  H     H_    0.642248 0.155126 0.353928 0.256239
H165  H     H_    0.573724 0.116333 0.348654 0.267889
H166  H     H_    0.581963 0.183636 0.315277 0.262040
H167  H     H_    0.509430 0.216342 0.376126 0.220147
H168  H     H_    0.580506 0.248208 0.382763 0.250272
H169  H     H_    0.617086 0.165145 0.438723 0.197612
H170  H     H_    0.550725 0.129080 0.426156 0.212065
C187  C     C_3   0.807603 0.613623 0.461581 -0.363512
C188  C     C_3   0.776300 0.672266 0.438154 -0.411185
C189  C     C_3   0.824886 0.712840 0.422522 -0.880611
H171  H     H_    0.851593 0.727903 0.451056 0.259338
H172  H     H_    0.857463 0.686937 0.398725 0.266353
H173  H     H_    0.801441 0.754857 0.405726 0.254956
H174  H     H_    0.750907 0.660633 0.408324 0.252667
H175  H     H_    0.745594 0.701045 0.461406 0.221223
H176  H     H_    0.831642 0.633436 0.489642 0.228358
H177  H     H_    0.842596 0.591413 0.437960 0.208001
C190  C     C_3   0.432765 0.824982 0.429916 -0.371457
C191  C     C_3   0.440486 0.795148 0.383934 -0.377794
C192  C     C_3   0.408691 0.837815 0.348328 -0.874314
H178  H     H_    0.357712 0.844961 0.353978 0.256259
H179  H     H_    0.426306 0.883626 0.348626 0.267921
H180  H     H_    0.417896 0.816321 0.315291 0.262007
H181  H     H_    0.490507 0.783605 0.376117 0.220181
H182  H     H_    0.419399 0.751803 0.382782 0.250296
H183  H     H_    0.382921 0.834888 0.438742 0.197614
H184  H     H_    0.449298 0.870908 0.426149 0.212062
C193  C     C_3   0.675813 0.064115 0.071097 -0.372484
C194  C     C_3   0.705414 0.052032 0.116836 -0.373610
C195  C     C_3   0.664646 0.084361 0.153248 -0.873358
H185  H     H_    0.661535 0.135581 0.149355 0.255258
H186  H     H_    0.617140 0.070661 0.152006 0.266966
H187  H     H_    0.685239 0.071365 0.186058 0.263144
H188  H     H_    0.713660 0.001368 0.123195 0.217915
H189  H     H_    0.750576 0.069622 0.118639 0.248890
H190  H     H_    0.667323 0.114646 0.064215 0.198273
H191  H     H_    0.629237 0.048803 0.073990 0.210421
C196  C     C_3   0.117296 0.306172 0.033224 -0.362081
C197  C     C_3   0.178912 0.273143 0.051366 -0.410056
C198  C     C_3   0.223274 0.320232 0.063092 -0.886108
H192  H     H_    0.234310 0.346750 0.033302 0.259142
H193  H     H_    0.202332 0.353129 0.088689 0.266842
H194  H     H_    0.267256 0.295484 0.076320 0.256288
H195  H     H_    0.171753 0.247690 0.082180 0.251830
H196  H     H_    0.202464 0.242118 0.025828 0.220565
H197  H     H_    0.133458 0.332072 0.004737 0.230848
H198  H     H_    0.098221 0.339437 0.059094 0.207034
C199  C     C_3   0.324205 0.935874 0.071092 -0.372487
C200  C     C_3   0.294617 0.947936 0.116835 -0.373602
C201  C     C_3   0.335395 0.915588 0.153236 -0.873351
H199  H     H_    0.338539 0.864370 0.149312 0.255259
H200  H     H_    0.382888 0.929322 0.152013 0.266970
H201  H     H_    0.314791 0.928535 0.186050 0.263116
H202  H     H_    0.286372 0.998596 0.123208 0.217924
H203  H     H_    0.249455 0.930346 0.118634 0.248891
H204  H     H_    0.332698 0.885346 0.064198 0.198278
H205  H     H_    0.370779 0.951190 0.073988 0.210441
C202  C     C_3   0.882696 0.693834 0.033208 -0.362085
C203  C     C_3   0.821071 0.726869 0.051328 -0.410040
C204  C     C_3   0.776700 0.679785 0.063040 -0.886112
H206  H     H_    0.765677 0.653261 0.033247 0.259134
H207  H     H_    0.797627 0.646892 0.088645 0.266844
H208  H     H_    0.732712 0.704537 0.076253 0.256281
H209  H     H_    0.828215 0.752328 0.082144 0.251822
H210  H     H_    0.797535 0.757890 0.025781 0.220562
H211  H     H_    0.866545 0.667922 0.004721 0.230862
H212  H     H_    0.901766 0.660581 0.059086 0.207023
C205  C     C_3   0.692470 0.886158 0.961854 -0.363445
C206  C     C_3   0.723874 0.827322 0.938720 -0.411126
C207  C     C_3   0.675372 0.786513 0.923298 -0.880837
H213  H     H_    0.648688 0.771666 0.951912 0.259300
H214  H     H_    0.642767 0.812146 0.899392 0.266398
H215  H     H_    0.698890 0.744372 0.906695 0.255031
H216  H     H_    0.749265 0.838708 0.908826 0.252619
H217  H     H_    0.754605 0.798830 0.962118 0.221167
H218  H     H_    0.668335 0.866552 0.989948 0.228479
H219  H     H_    0.657566 0.908200 0.938101 0.207942
C208  C     C_3   0.067066 0.675063 0.929868 -0.371531
C209  C     C_3   0.059069 0.704878 0.883894 -0.377496
C210  C     C_3   0.090915 0.662324 0.848245 -0.874127
H220  H     H_    0.141927 0.655498 0.853766 0.256153
H221  H     H_    0.073601 0.616369 0.848636 0.267856
H222  H     H_    0.081414 0.683732 0.815212 0.262123
H223  H     H_    0.008999 0.716200 0.876161 0.220045
H224  H     H_    0.079927 0.748352 0.882696 0.250192
H225  H     H_    0.116957 0.665255 0.938579 0.197650
H226  H     H_    0.050618 0.629090 0.926155 0.211971
C211  C     C_3   0.307519 0.113851 0.961872 -0.363431
C212  C     C_3   0.276107 0.172699 0.938759 -0.411128
C213  C     C_3   0.324603 0.213519 0.923350 -0.880863
H227  H     H_    0.351293 0.228351 0.951968 0.259300
H228  H     H_    0.357203 0.187901 0.899435 0.266402
H229  H     H_    0.301079 0.255668 0.906761 0.255033
H230  H     H_    0.250708 0.161330 0.908861 0.252618
H231  H     H_    0.245381 0.201175 0.962168 0.221166
H232  H     H_    0.331668 0.133445 0.989967 0.228493
H233  H     H_    0.342410 0.091816 0.938110 0.207932
C214  C     C_3   0.932928 0.324931 0.929868 -0.371525
C215  C     C_3   0.940921 0.295116 0.883894 -0.377513
C216  C     C_3   0.909072 0.337670 0.848245 -0.874139
H234  H     H_    0.858060 0.344494 0.853763 0.256155
H235  H     H_    0.926383 0.383627 0.848641 0.267858
H236  H     H_    0.918574 0.316264 0.815211 0.262130
H237  H     H_    0.990991 0.283794 0.876162 0.220048
H238  H     H_    0.920061 0.251643 0.882693 0.250194
H239  H     H_    0.883037 0.334739 0.938578 0.197649
H240  H     H_    0.949373 0.370905 0.926157 0.211972
C217  C     C_3   0.293724 0.604413 0.533530 -0.431352
C218  C     C_3   0.340626 0.610064 0.571209 -0.298712
C219  C     C_3   0.325029 0.670039 0.597564 -0.943288
H241  H     H_    0.323857 0.710818 0.575243 0.261469
H242  H     H_    0.279181 0.671077 0.614009 0.271575
H243  H     H_    0.361039 0.673241 0.623265 0.260267
H244  H     H_    0.344093 0.569615 0.593898 0.226638
H245  H     H_    0.387305 0.611307 0.556842 0.242809
H246  H     H_    0.313431 0.619042 0.502184 0.169465
H247  H     H_    0.252401 0.639306 0.537755 0.212930
C220  C     C_3   0.601204 0.665271 0.546959 -0.382636
C221  C     C_3   0.584465 0.671646 0.596231 -0.307272
C222  C     C_3   0.631275 0.630689 0.624572 -0.887253
H248  H     H_    0.631961 0.581090 0.615128 0.270447
H249  H     H_    0.678588 0.644368 0.620335 0.253623
H250  H     H_    0.617979 0.636016 0.659931 0.253037
H251  H     H_    0.582480 0.720708 0.607194 0.214722
H252  H     H_    0.537581 0.657493 0.601729 0.237435
H253  H     H_    0.601102 0.616382 0.537673 0.211222
H254  H     H_    0.650129 0.668624 0.540027 0.178655
C223  C     C_3   0.706285 0.395577 0.533534 -0.431488
C224  C     C_3   0.659367 0.389928 0.571200 -0.298833
C225  C     C_3   0.674899 0.329909 0.597514 -0.943348
H255  H     H_    0.676020 0.289165 0.575163 0.261468
H256  H     H_    0.720755 0.328791 0.613962 0.271544
H257  H     H_    0.638884 0.326716 0.623208 0.260301
H258  H     H_    0.655945 0.430347 0.593916 0.226627
H259  H     H_    0.612684 0.388750 0.556823 0.242927
H260  H     H_    0.686596 0.380938 0.502181 0.169514
H261  H     H_    0.747608 0.360691 0.537779 0.212995
C226  C     C_3   0.398772 0.334732 0.546929 -0.382695
C227  C     C_3   0.415465 0.328299 0.596206 -0.307283
C228  C     C_3   0.368662 0.369268 0.624543 -0.887301
H262  H     H_    0.368030 0.418871 0.615128 0.270434
H263  H     H_    0.321335 0.355639 0.620269 0.253621
H264  H     H_    0.381923 0.363895 0.659907 0.253050
H265  H     H_    0.417394 0.279231 0.607143 0.214789
H266  H     H_    0.462362 0.342406 0.601736 0.237406
H267  H     H_    0.398910 0.383626 0.537675 0.211270
H268  H     H_    0.349847 0.331418 0.539965 0.178635
C229  C     C_3   0.334212 0.401290 0.449835 -0.378933
C230  C     C_3   0.330769 0.422357 0.401247 -0.303177
C231  C     C_3   0.370834 0.376247 0.371850 -0.887681
H269  H     H_    0.420180 0.372275 0.382525 0.270818
H270  H     H_    0.354611 0.329706 0.373520 0.254164
H271  H     H_    0.367688 0.392632 0.337060 0.252055
H272  H     H_    0.282106 0.427980 0.389119 0.211249
H273  H     H_    0.347343 0.468556 0.398091 0.239718
H274  H     H_    0.382785 0.398763 0.460741 0.209564
H275  H     H_    0.328526 0.352300 0.454282 0.178964
C232  C     C_3   0.605945 0.293422 0.468006 -0.436446
C233  C     C_3   0.612231 0.341203 0.431024 -0.305088
C234  C     C_3   0.674242 0.328394 0.406761 -0.946842
H276  H     H_    0.713218 0.328489 0.430534 0.263976
H277  H     H_    0.678393 0.282684 0.389815 0.270165
H278  H     H_    0.677705 0.365141 0.381647 0.261334
H279  H     H_    0.573487 0.343211 0.406919 0.227311
H280  H     H_    0.610639 0.387873 0.445839 0.245656
H281  H     H_    0.620195 0.312106 0.499864 0.170851
H282  H     H_    0.640680 0.252114 0.463218 0.215425
C235  C     C_3   0.665778 0.598731 0.449872 -0.378987
C236  C     C_3   0.669266 0.577703 0.401277 -0.303210
C237  C     C_3   0.629181 0.623805 0.371885 -0.887660
H283  H     H_    0.579830 0.627725 0.382540 0.270825
H284  H     H_    0.645359 0.670365 0.373585 0.254147
H285  H     H_    0.632363 0.607449 0.337089 0.252063
H286  H     H_    0.717935 0.572135 0.389166 0.211296
H287  H     H_    0.652734 0.531487 0.398095 0.239687
H288  H     H_    0.617200 0.601227 0.460753 0.209618
H289  H     H_    0.671431 0.647724 0.454347 0.178954
C238  C     C_3   0.394047 0.706585 0.468002 -0.436534
C239  C     C_3   0.387763 0.658780 0.431032 -0.305161
C240  C     C_3   0.325735 0.671547 0.406782 -0.946907
H290  H     H_    0.286773 0.671494 0.430567 0.264012
H291  H     H_    0.321574 0.717225 0.389794 0.270153
H292  H     H_    0.322255 0.634755 0.381702 0.261340
H293  H     H_    0.426491 0.656780 0.406918 0.227329
H294  H     H_    0.389382 0.612116 0.445858 0.245711
H295  H     H_    0.379780 0.687928 0.499863 0.170873
H296  H     H_    0.359321 0.747893 0.463189 0.215468
C241  C     C_3   0.793706 0.104479 0.033468 -0.431517
C242  C     C_3   0.840643 0.110156 0.071120 -0.298954
C243  C     C_3   0.825152 0.170215 0.097394 -0.943469
H297  H     H_    0.824012 0.210923 0.075010 0.261575
H298  H     H_    0.779316 0.171363 0.113871 0.271527
H299  H     H_    0.861200 0.173440 0.123064 0.260324
H300  H     H_    0.844051 0.069771 0.093866 0.226646
H301  H     H_    0.887323 0.111286 0.056733 0.242902
H302  H     H_    0.813368 0.119095 0.002099 0.169485
H303  H     H_    0.752383 0.139364 0.037716 0.213033
C244  C     C_3   0.101079 0.165284 0.047125 -0.382383
C245  C     C_3   0.084077 0.171447 0.096366 -0.307034
C246  C     C_3   0.130853 0.130525 0.124754 -0.887330
H304  H     H_    0.131743 0.080943 0.115208 0.270482
H305  H     H_    0.178125 0.144373 0.120681 0.253660
H306  H     H_    0.117365 0.135690 0.160086 0.252954
H307  H     H_    0.081871 0.220484 0.107425 0.214490
H308  H     H_    0.037229 0.157137 0.101716 0.237596
H309  H     H_    0.101134 0.116415 0.037720 0.211052
H310  H     H_    0.150015 0.168788 0.040340 0.178690
C247  C     C_3   0.206298 0.895520 0.033468 -0.431531
C248  C     C_3   0.159364 0.889845 0.071118 -0.298970
C249  C     C_3   0.174858 0.829787 0.097393 -0.943471
H311  H     H_    0.176036 0.789076 0.075005 0.261583
H312  H     H_    0.220678 0.828658 0.113893 0.271525
H313  H     H_    0.138793 0.826544 0.123043 0.260323
H314  H     H_    0.155961 0.930230 0.093865 0.226656
H315  H     H_    0.112683 0.888713 0.056730 0.242901
H316  H     H_    0.186631 0.880907 0.002097 0.169484
H317  H     H_    0.247620 0.860634 0.037715 0.213046
C250  C     C_3   0.898915 0.834721 0.047110 -0.382388
C251  C     C_3   0.915909 0.828556 0.096353 -0.307022
C252  C     C_3   0.869135 0.869487 0.124735 -0.887341
H318  H     H_    0.868253 0.919068 0.115190 0.270487
H319  H     H_    0.821860 0.855646 0.120655 0.253655
H320  H     H_    0.882618 0.864322 0.160069 0.252951
H321  H     H_    0.918103 0.779520 0.107410 0.214493
H322  H     H_    0.962760 0.842857 0.101711 0.237589
H323  H     H_    0.898865 0.883589 0.037708 0.211058
H324  H     H_    0.849979 0.831221 0.040316 0.178688
C253  C     C_3   0.834241 0.901142 0.950013 -0.379267
C254  C     C_3   0.830582 0.921974 0.901382 -0.303439
C255  C     C_3   0.870721 0.875860 0.872033 -0.887521
H325  H     H_    0.920091 0.872129 0.882627 0.270788
H326  H     H_    0.854693 0.829241 0.873855 0.254120
H327  H     H_    0.867409 0.892075 0.837206 0.252128
H328  H     H_    0.781884 0.927337 0.889328 0.211495
H329  H     H_    0.846972 0.968245 0.898095 0.239547
H330  H     H_    0.882842 0.898786 0.960811 0.209713
H331  H     H_    0.828718 0.852140 0.954607 0.178945
C256  C     C_3   0.105873 0.793429 0.967950 -0.436215
C257  C     C_3   0.112136 0.841180 0.930943 -0.304779
C258  C     C_3   0.174059 0.828238 0.906583 -0.946691
H332  H     H_    0.213116 0.828233 0.930299 0.263836
H333  H     H_    0.178044 0.782536 0.889633 0.270238
H334  H     H_    0.177535 0.864974 0.881462 0.261327
H335  H     H_    0.073312 0.843267 0.906900 0.227284
H336  H     H_    0.110679 0.887849 0.945746 0.245514
H337  H     H_    0.120147 0.812147 0.999790 0.170766
H338  H     H_    0.140609 0.752118 0.963182 0.215324
C259  C     C_3   0.165749 0.098867 0.950029 -0.379260
C260  C     C_3   0.169410 0.078046 0.901395 -0.303442
C261  C     C_3   0.129262 0.124161 0.872050 -0.887536
H339  H     H_    0.079893 0.127880 0.882641 0.270796
H340  H     H_    0.145281 0.170784 0.873881 0.254118
H341  H     H_    0.132576 0.107953 0.837221 0.252125
H342  H     H_    0.218107 0.072696 0.889344 0.211500
H343  H     H_    0.153028 0.031772 0.898100 0.239547
H344  H     H_    0.117149 0.101215 0.960823 0.209720
H345  H     H_    0.171266 0.147869 0.954632 0.178940
C262  C     C_3   0.894124 0.206569 0.967949 -0.436202
C263  C     C_3   0.887860 0.158818 0.930939 -0.304787
C264  C     C_3   0.825934 0.171756 0.906581 -0.946700
H346  H     H_    0.786881 0.171764 0.930297 0.263847
H347  H     H_    0.821945 0.217456 0.889629 0.270242
H348  H     H_    0.822455 0.135017 0.881461 0.261328
H349  H     H_    0.926680 0.156735 0.906897 0.227280
H350  H     H_    0.889323 0.112149 0.945740 0.245524
H351  H     H_    0.879854 0.187850 0.999787 0.170756
H352  H     H_    0.859388 0.247880 0.963182 0.215321

loop_
_geom_bond_atom_site_label_1
_geom_bond_atom_site_label_2
_ccdc_geom_bond_type
C229  H275  S    
C255  H327  S    
C135  H46   S    
C137  H55   S    
C61   C181  S    
C234  H276  S    
C223  H261  S    
C193  H190  S    
C207  H213  S    
C7    C55   S    
C53   C69   A    
C8    C56   S    
C231  H270  S    
C259  C260  S    
C75   O51   S    
C157  C158  S    
O10   Zn6   S    
C149  H84   S    
C214  H239  S    
C181  C182  S    
C41   C105  S    
O15   Zn5   S    
C14   C21   S    
C15   O43   A    
C143  C144  S    
C172  H141  S    
C174  H136  S    
C37   C69   A    
C189  H173  S    
C245  H307  S    
C45   C109  S    
C249  H312  S    
C21   C33   A    
C253  H330  S    
C74   C114  A    
C206  H217  S    
C222  H250  S    
C131  C132  S    
C140  C141  S    
C223  C224  S    
C219  H243  S    
O7    Zn1   S    
C245  C246  S    
C77   C115  A    
C43   O23   A    
C158  H104  S    
C46   O28   A    
C80   C116  A    
C155  C156  S    
O2    Zn2   S    
C215  H237  S    
C239  H293  S    
O19   Zn3   S    
O34   Zn9   S    
C203  H210  S    
O22   Zn2   S    
C44   C108  S    
O47   Zn12  S    
C96   C108  A    
C143  H70   S    
C26   C220  S    
C132  H38   S    
C82   C98   A    
C10   O34   A    
C179  H154  S    
C6    C54   S    
C3    O3    A    
C163  C164  S    
C29   C61   A    
C246  H304  S    
C185  H167  S    
C257  H336  S    
C78   O54   S    
O54   H6    S    
C84   C100  A    
C200  H202  S    
C261  H341  S    
C159  H102  S    
C20   C28   A    
C152  C153  S    
O48   Zn12  S    
C42   O20   A    
C236  H287  S    
O29   Zn7   S    
O50   H2    S    
C230  C231  S    
C254  H329  S    
C201  H200  S    
C113  C120  S    
C73   O49   S    
C121  H23   S    
C148  C149  S    
O4    Zn4   S    
C115  C118  S    
C160  H114  S    
C196  H197  S    
C68   C202  S    
C258  H334  S    
C178  H156  S    
C42   C106  S    
O40   Zn10  S    
C247  C248  S    
O44   Zn11  S    
C87   C103  A    
C235  H289  S    
C92   C106  A    
C218  H244  S    
C46   C110  S    
C252  H318  S    
C234  H278  S    
C65   C193  S    
C168  H124  S    
C82   C118  A    
C172  C173  S    
C102  C160  S    
C184  C185  S    
C209  C210  S    
C11   O37   A    
C148  H85   S    
C175  C176  S    
C133  H50   S    
C161  H111  S    
C197  H196  S    
O14   Zn6   S    
C190  H183  S    
C122  C123  S    
C212  H231  S    
C211  H233  S    
C247  H316  S    
C233  C234  S    
C218  H245  S    
C86   O62   S    
C171  H129  S    
C36   C68   A    
C60   C178  S    
C142  H72   S    
C202  H211  S    
C217  H247  S    
C31   C235  S    
C17   C25   A    
C221  C222  S    
C74   C90   A    
O38   Zn10  S    
C58   C172  S    
C144  H67   S    
C122  H21   S    
C125  H27   S    
C83   C117  A    
C200  C201  S    
C46   O26   A    
C134  H48   S    
C78   C94   A    
C47   C111  S    
O26   Zn6   S    
C190  C191  S    
C92   C130  S    
C243  H299  S    
C93   C133  S    
C170  H132  S    
C192  H178  S    
O5    Zn3   S    
C176  C177  S    
C159  H101  S    
C90   C124  S    
C237  H285  S    
C25   C217  S    
C236  C237  S    
C100  C154  S    
C194  H188  S    
C195  H186  S    
C39   C71   A    
C218  C219  S    
C244  H310  S    
C180  H150  S    
C251  H322  S    
C55   C71   A    
C130  C131  S    
C184  H170  S    
C189  H172  S    
C208  H225  S    
O16   Zn8   S    
C11   C18   S    
C240  H290  S    
C79   C115  A    
C91   C105  A    
C261  H339  S    
C6    O10   A    
C213  H229  S    
C126  H26   S    
O51   H3    S    
C85   O61   S    
C147  H74   S    
C20   C30   A    
C228  H262  S    
C16   O44   A    
C5    O13   A    
C204  H206  S    
C37   C253  S    
C230  H272  S    
C45   O25   A    
C139  H65   S    
C126  H25   S    
C133  C134  S    
C209  H224  S    
O21   Zn3   S    
C49   C57   A    
C167  C168  S    
C4    O4    A    
C57   C169  S    
O11   Zn7   S    
C226  C227  S    
C156  H95   S    
C170  C171  S    
C239  C240  S    
C233  H280  S    
C52   C60   A    
C237  H283  S    
C137  C138  S    
C150  H81   S    
C252  H320  S    
C183  H158  S    
C242  H301  S    
C194  C195  S    
C75   C113  A    
C221  H252  S    
C182  H161  S    
O41   Zn11  S    
C53   C65   A    
C127  C128  S    
C10   O38   A    
C114  C119  S    
C75   C91   A    
C163  H120  S    
C136  H57   S    
C9    O33   A    
C154  C155  S    
C216  H234  S    
C262  H351  S    
C156  H94   S    
C25   C57   A    
C12   O36   A    
C232  H282  S    
C88   C104  A    
C253  H331  S    
C222  H248  S    
C264  H347  S    
C22   C34   A    
O33   Zn9   S    
C210  H221  S    
C212  H230  S    
C130  H43   S    
C131  H41   S    
C8    O14   A    
C140  H62   S    
C31   C63   A    
C175  H149  S    
C141  H61   S    
C179  C180  S    
C32   C64   A    
C227  H265  S    
C180  H152  S    
C104  C112  A    
C158  C159  S    
C197  C198  S    
C128  H35   S    
C155  H97   S    
C56   C68   A    
C69   C205  S    
C187  H177  S    
O56   H8    S    
C191  C192  S    
C256  H337  S    
C167  H125  S    
C192  H180  S    
C87   C119  A    
C145  C146  S    
O6    Zn2   S    
C103  C163  S    
C97   C109  A    
C220  C221  S    
C35   C67   A    
C129  H31   S    
O63   H15   S    
C205  H218  S    
C243  H298  S    
C224  H259  S    
C138  H53   S    
C186  H165  S    
C201  H199  S    
C260  H343  S    
C259  H345  S    
C185  C186  S    
C48   C112  S    
C157  H107  S    
O55   H7    S    
C240  H292  S    
O43   Zn11  S    
C129  H33   S    
C132  H40   S    
C88   C120  A    
O39   Zn10  S    
C145  H78   S    
C213  H227  S    
C86   C102  A    
C263  C264  S    
C169  H135  S    
C228  H264  S    
C229  H274  S    
C152  H90   S    
C255  H326  S    
C149  C150  S    
C153  H89   S    
C137  H56   S    
C40   C72   A    
C165  H116  S    
C45   O27   A    
C41   O17   A    
C254  H328  S    
C78   C116  A    
C181  H163  S    
C214  C215  S    
C54   C66   A    
C16   C23   S    
C91   C127  S    
C79   O55   S    
C4    O6    A    
C70   C208  S    
C77   O53   S    
C62   C184  S    
C146  H76   S    
C52   C62   A    
C173  H139  S    
C245  H308  S    
C71   C211  S    
C101  C157  S    
C198  H193  S    
C207  H215  S    
O37   Zn10  S    
C219  H242  S    
O57   H9    S    
C225  H257  S    
C188  H175  S    
C231  H271  S    
C146  H77   S    
C153  H87   S    
C231  H269  S    
C158  H105  S    
C127  H37   S    
O58   H10   S    
C51   C59   A    
C161  C162  S    
C84   C118  A    
C164  C165  S    
C216  H236  S    
C89   C105  A    
C142  C143  S    
C15   O45   A    
C86   C120  A    
C226  H268  S    
C241  H303  S    
C246  H305  S    
C217  C218  S    
C40   C262  S    
C174  H137  S    
C263  H349  S    
C133  H51   S    
C38   C70   A    
C100  C110  A    
C241  C242  S    
C98   C110  A    
C48   O30   A    
C42   O18   A    
C168  H123  S    
C17   C29   A    
C102  C112  A    
C141  H59   S    
C18   C26   A    
C151  H93   S    
C160  C161  S    
O9    Zn5   S    
C125  C126  S    
C188  C189  S    
C136  C137  S    
C121  C122  S    
C185  H168  S    
C97   C145  S    
C261  H340  S    
C126  H24   S    
C204  H208  S    
C176  H146  S    
C81   O57   S    
C146  C147  S    
C177  H145  S    
O27   Zn7   S    
C171  H131  S    
C32   C238  S    
C241  H302  S    
C236  H286  S    
C99   C109  A    
C123  H19   S    
C73   C113  A    
C220  H254  S    
C103  C111  A    
O12   Zn8   S    
C250  H324  S    
C121  H22   S    
C15   C22   S    
C244  C245  S    
C160  H113  S    
C256  C257  S    
C238  H296  S    
C258  H333  S    
C178  H155  S    
C19   C31   A    
C7    O11   A    
C63   C187  S    
C83   O59   S    
C199  H205  S    
C235  H288  S    
C5    O9    A    
C94   C136  S    
C135  H47   S    
C195  H185  S    
C248  C249  S    
C186  H164  S    
C83   C99   A    
C205  C206  S    
C34   C244  S    
C234  H277  S    
C34   C66   A    
C193  H191  S    
C193  C194  S    
C223  H260  S    
C124  H29   S    
C235  C236  S    
C161  H112  S    
C2    O2    A    
C149  H83   S    
C29   C229  S    
C214  H240  S    
C64   C190  S    
C49   C61   A    
C171  H130  S    
C239  H294  S    
O62   H14   S    
C96   C142  S    
C99   C151  S    
C51   C63   A    
C172  H142  S    
C90   C106  A    
C124  C125  S    
C36   C250  S    
C147  H73   S    
C3    C51   S    
C249  H313  S    
C142  H71   S    
C39   C259  S    
O61   H13   S    
C217  H246  S    
C206  H216  S    
C166  C167  S    
C196  C197  S    
C50   C58   A    
C14   O42   A    
C225  H255  S    
C79   C95   A    
C134  C135  S    
C125  H28   S    
O36   Zn9   S    
C27   C223  S    
C9    C20   S    
O64   H16   S    
C134  H49   S    
C208  C209  S    
C211  H232  S    
C24   C36   A    
C12   O40   A    
C200  H203  S    
C98   C148  S    
C26   C58   A    
C203  H209  S    
C76   O52   S    
C95   C107  A    
C84   O60   S    
C237  H284  S    
C47   O31   A    
C143  H69   S    
C23   C35   A    
C30   C62   A    
C194  H189  S    
C182  C183  S    
C140  H63   S    
C43   O21   A    
C18   C32   A    
C224  C225  S    
O28   Zn8   S    
C38   C256  S    
C184  H169  S    
C260  C261  S    
C175  H148  S    
C80   O56   S    
C257  H335  S    
C213  H228  S    
C159  H103  S    
C168  H122  S    
C177  H143  S    
C101  C111  A    
O24   Zn4   S    
C95   C139  S    
C230  H273  S    
C139  H64   S    
C123  H18   S    
C251  H321  S    
O46   Zn12  S    
C73   C89   A    
O52   H4    S    
O13   Zn7   S    
C201  H201  S    
C151  C152  S    
C12   C19   S    
C77   C93   A    
C196  H198  S    
C212  C213  S    
C248  H315  S    
O53   H5    S    
C166  H128  S    
C41   O19   A    
C82   O58   S    
C21   C37   A    
C44   O22   A    
C150  H80   S    
C243  H297  S    
C252  H319  S    
C254  C255  S    
C27   C59   A    
C253  C254  S    
O3    Zn3   S    
O35   Zn9   S    
C148  H86   S    
C2    O8    A    
C255  H325  S    
O1    Zn1   S    
C262  C263  S    
C197  H195  S    
O31   Zn5   S    
C190  H184  S    
O18   Zn2   S    
C50   C64   A    
O59   H11   S    
C89   C121  S    
C178  C179  S    
C22   C40   A    
C247  H317  S    
C123  H17   S    
C173  C174  S    
C232  H281  S    
C30   C232  S    
C33   C65   A    
C249  H311  S    
C264  H346  S    
C202  H212  S    
C94   C108  A    
C210  H220  S    
C144  H66   S    
C131  H42   S    
C4    C52   S    
C202  C203  S    
C33   C241  S    
C72   C214  S    
C5    C53   S    
C141  H60   S    
C1    O5    A    
C170  H133  S    
C144  H68   S    
C122  H20   S    
C180  H151  S    
C28   C226  S    
C3    O7    A    
C13   O47   A    
C9    O39   A    
C10   C17   S    
C155  H98   S    
C164  H118  S    
O49   H1    S    
C248  H314  S    
C187  H176  S    
C116  C117  S    
C85   C119  A    
C211  C212  S    
C179  H153  S    
C167  H126  S    
C192  H179  S    
C6    O16   A    
C222  H249  S    
C165  H115  S    
C251  C252  S    
C88   O64   S    
C8    O12   A    
C195  H187  S    
C76   C114  A    
C219  H241  S    
C80   C96   A    
C19   C27   A    
C138  H52   S    
O17   Zn1   S    
C188  H174  S    
C224  H258  S    
C246  H306  S    
C259  H344  S    
C208  H226  S    
C157  H106  S    
O20   Zn4   S    
C66   C196  S    
C129  H32   S    
C229  C230  S    
C147  H75   S    
C1    O1    A    
C228  H263  S    
C152  H91   S    
C153  H88   S    
C47   O29   A    
C35   C247  S    
O23   Zn1   S    
C181  H162  S    
C238  C239  S    
C209  H223  S    
C43   C107  S    
C74   O50   S    
C199  C200  S    
C104  C166  S    
C260  H342  S    
C13   C24   S    
C162  H110  S    
C169  H134  S    
C156  H96   S    
C7    O15   A    
C233  H279  S    
C173  H140  S    
C24   C38   A    
C183  H157  S    
C44   O24   A    
C150  H82   S    
C166  H127  S    
C198  H192  S    
C183  H159  S    
C242  H300  S    
C207  H214  S    
C221  H251  S    
C215  C216  S    
C225  H256  S    
O42   Zn11  S    
C28   C60   A    
C227  H266  S    
C182  H160  S    
C76   C92   A    
C163  H121  S    
C81   C117  A    
C127  H36   S    
C136  H58   S    
O30   Zn6   S    
O25   Zn5   S    
C191  H181  S    
O8    Zn4   S    
C56   C70   A    
C216  H235  S    
C2    C50   S    
C262  H352  S    
C14   O46   A    
C215  H238  S    
C135  H45   S    
C85   C101  A    
C227  C228  S    
C264  H348  S    
C263  H350  S    
C206  C207  S    
C210  H222  S    
C130  H44   S    
C151  H92   S    
C226  H267  S    
C55   C67   A    
C13   O41   A    
C154  H100  S    
C11   O35   A    
C198  H194  S    
C244  H309  S    
C256  H338  S    
C174  H138  S    
C48   O32   A    
C145  H79   S    
C203  C204  S    
C232  C233  S    
C204  H207  S    
C176  H147  S    
C169  C170  S    
C93   C107  A    
C177  H144  S    
C162  H109  S    
C87   O63   S    
C81   C97   A    
C16   O48   A    
C23   C39   A    
C186  H166  S    
C132  H39   S    
C220  H253  S    
C205  H219  S    
C154  H99   S    
C128  H34   S    
C164  H119  S    
C242  C243  S    
C138  H54   S    
C250  H323  S    
C191  H182  S    
C189  H171  S    
O32   Zn8   S    
C124  H30   S    
C67   C199  S    
C165  H117  S    
C54   C72   A    
C257  C258  S    
C240  H291  S    
C187  C188  S    
C128  C129  S    
C258  H332  S    
O45   Zn12  S    
C59   C175  S    
O60   H12   S    
C238  H295  S    
C162  H108  S    
C1    C49   S    
C250  C251  S    
C199  H204  S    
C139  C140  S    
