data_mof_unit_20097.cif
_audit_creation_date              2012-12-10T17:32:18-0500
_audit_creation_method            fapswitch 2.2
_symmetry_space_group_name_H-M    P1
_symmetry_Int_Tables_number       1
_space_group_crystal_system       triclinic
_cell_length_a                    12.379892
_cell_length_b                    13.333824
_cell_length_c                    15.060329
_cell_angle_alpha                 76.627496
_cell_angle_beta                  101.930124
_cell_angle_gamma                 117.250974
_cell_volume                      2135.52211338

loop_
_atom_site_label
_atom_site_type_symbol
_atom_type_description
_atom_site_fract_x
_atom_site_fract_y
_atom_site_fract_z
_atom_type_partial_charge
C1    C     C_R   0.854873 0.286776 0.509122 0.796991
C2    C     C_R   0.946984 0.562942 0.071507 0.109457
C3    C     C_R   0.090679 0.365683 0.089779 -0.214999
C4    C     C_R   0.088553 0.363957 0.997238 -0.210918
C5    C     C_R   0.041562 0.429660 0.928997 0.112940
C6    C     C_R   0.994855 0.496722 0.953616 0.060465
C7    C     C_R   0.947324 0.562948 0.885189 0.104592
C8    C     C_R   0.899541 0.628089 0.910456 -0.210342
C9    C     C_R   0.899030 0.627811 0.003116 -0.211806
C10   C     C_R   0.040547 0.429415 0.836451 -0.252652
C11   C     C_R   0.997116 0.497611 0.768221 -0.064833
C12   C     C_R   0.999259 0.498891 0.671254 0.790874
C13   C     C_R   0.949088 0.563180 0.792730 -0.242004
C14   C     C_R   0.293404 0.984041 0.585331 -0.194309
C15   C     C_R   0.228732 0.830422 0.499520 -0.040402
C16   C     C_R   0.808056 0.112147 0.446520 0.155330
C17   C     C_R   0.722880 0.007733 0.420160 -0.198615
C18   C     C_R   0.602999 0.959521 0.440450 -0.210427
C19   C     C_R   0.566009 0.011833 0.492433 0.084150
C20   C     C_R   0.656043 0.111697 0.527467 0.037383
C21   C     C_R   0.442887 0.968813 0.511044 0.089083
C22   C     C_R   0.414453 0.022092 0.568514 0.160612
C23   C     C_R   0.145270 0.712644 0.489652 0.790597
C24   C     C_R   0.507641 0.109715 0.611891 -0.212750
C25   C     C_R   0.626934 0.153823 0.592027 -0.196045
C26   C     C_R   0.347182 0.873054 0.476400 -0.241621
C27   C     C_R   0.200648 0.888626 0.550636 -0.195343
C28   C     C_R   0.774269 0.166432 0.498711 -0.093674
C29   C     C_R   0.357268 0.339303 0.651266 -0.270381
C30   C     C_R   0.758419 0.642645 0.372954 0.080962
C31   C     C_R   0.661714 0.673559 0.343899 -0.266191
C32   C     C_R   0.558592 0.620425 0.390902 -0.191584
C33   C     C_R   0.551714 0.535973 0.468289 0.013749
C34   C     C_R   0.999743 0.500202 0.328923 0.815814
C35   C     C_R   0.654148 0.508222 0.495743 0.287360
C36   C     C_R   0.448199 0.477952 0.519976 -0.034593
C37   C     C_R   0.453868 0.398157 0.598856 0.122849
C38   C     C_R   0.556633 0.377427 0.626546 -0.278427
C39   C     C_R   0.651748 0.427237 0.573690 -0.169746
C40   C     C_R   0.339756 0.495627 0.498660 -0.011426
C41   C     C_R   0.255035 0.360588 0.628920 0.361240
C42   C     C_R   0.947725 0.562725 0.164310 -0.245904
C43   C     C_R   0.998183 0.499334 0.232089 -0.068071
C44   C     C_R   0.046664 0.434514 0.207351 -0.250812
C45   C     C_R   0.044597 0.432140 0.114997 0.105704
C46   C     C_R   0.995422 0.497248 0.046733 0.062477
Cu1   Cu    Cu3+1 0.098270 0.475420 0.521130 0.942097
Cu2   Cu    Cu3+1 0.901730 0.524580 0.478870 0.928572
H1    H     H_    0.910799 0.613176 0.183819 0.144434
H2    H     H_    0.487580 0.142668 0.662374 0.135984
H3    H     H_    0.271435 0.025283 0.628534 0.138273
H4    H     H_    0.362347 0.825721 0.435033 0.126803
H5    H     H_    0.542276 0.880750 0.415014 0.135575
H6    H     H_    0.748571 0.965795 0.380185 0.142552
H7    H     H_    0.697360 0.219393 0.629272 0.123181
H8    H     H_    0.563283 0.320817 0.689663 0.142507
H9    H     H_    0.362659 0.278963 0.712315 0.147278
H10   H     H_    0.084413 0.384665 0.260014 0.159332
H11   H     H_    0.329001 0.555769 0.440060 0.127702
H12   H     H_    0.837567 0.684090 0.335622 0.122479
H13   H     H_    0.486220 0.647249 0.365943 0.130471
H14   H     H_    0.666667 0.738783 0.284616 0.140287
H15   H     H_    0.722001 0.399628 0.596219 0.199408
H16   H     H_    0.128177 0.315013 0.141592 0.145540
H17   H     H_    0.124532 0.312018 0.979002 0.146309
H18   H     H_    0.070977 0.374042 0.818029 0.138137
H19   H     H_    0.914205 0.615144 0.739913 0.155655
H20   H     H_    0.862606 0.679162 0.858600 0.146599
H21   H     H_    0.861630 0.678630 0.021309 0.143149
H22   H     H_    0.109368 0.855137 0.569896 0.149377
N1    N     N_R   0.246280 0.438190 0.553160 -0.190816
N2    N     N_R   0.754320 0.561190 0.447410 -0.208654
O1    O     O_R   0.972510 0.318130 0.526570 -0.564935
O2    O     O_R   0.806530 0.359650 0.490890 -0.591708
O3    O     O_R   0.082980 0.479210 0.647590 -0.590731
O4    O     O_R   0.917000 0.520730 0.611900 -0.608954
O5    O     O_R   0.193470 0.640350 0.509110 -0.576749
O6    O     O_R   0.027490 0.681870 0.473430 -0.591566
O7    O     O_R   0.083000 0.479270 0.388100 -0.581690
O8    O     O_R   0.917020 0.520790 0.352410 -0.587799
N3    N     N_3   0.927251 0.165354 0.416425 -0.568349
H23   H     H_    0.916712 0.177154 0.344601 0.206028
H24   H     H_    0.968243 0.109332 0.440703 0.216864
N4    N     N_3   0.168733 0.308351 0.694152 -0.619423
H25   H     H_    0.079403 0.279276 0.662602 0.258127
H26   H     H_    0.188260 0.368887 0.735098 0.223897

loop_
_geom_bond_atom_site_label_1
_geom_bond_atom_site_label_2
_ccdc_geom_bond_type
C16   C28   A    
C21   C26   A    
C40   N1    A    
Cu2   O4    S    
C19   C20   A    
Cu1   O7    S    
N3    H23   S    
C7    C8    A    
C3    H16   S    
C2    C46   A    
C5    C6    A    
C1    O2    A    
C36   C37   A    
C19   C21   A    
C9    H21   S    
C32   H13   S    
C30   C31   A    
C20   C25   A    
C33   C36   A    
C18   C19   A    
Cu2   O6    S    
C4    H17   S    
C18   H5    S    
C34   O8    A    
Cu1   Cu2   S    
C44   H10   S    
C8    C9    A    
C30   H12   S    
C1    C28   S    
C14   C27   A    
C41   N1    A    
C15   C23   S    
C40   H11   S    
C21   C22   A    
C31   H14   S    
Cu2   N2    S    
N3    H24   S    
C10   H18   S    
C24   H2    S    
Cu2   O2    S    
C36   C40   A    
C24   C25   A    
Cu1   O1    S    
C16   C17   A    
C15   C26   A    
C20   C28   A    
C45   C46   A    
C41   N4    S    
C3    C45   A    
C23   O5    A    
C35   C39   A    
C43   C44   A    
C37   C38   A    
C26   H4    S    
C34   O7    A    
C15   C27   A    
C14   H3    S    
C17   C18   A    
N4    H25   S    
Cu1   N1    S    
C27   H22   S    
C29   H9    S    
C35   N2    A    
C8    H20   S    
C12   O4    A    
C22   C24   A    
C42   C43   A    
Cu1   O5    S    
C3    C4    A    
C44   C45   A    
C13   H19   S    
C6    C46   A    
C29   C41   A    
C31   C32   A    
C34   C43   S    
C25   H7    S    
N4    H26   S    
C4    C5    A    
C30   N2    A    
C11   C12   S    
C6    C7    A    
C39   H15   S    
C1    O1    A    
C32   C33   A    
Cu2   O8    S    
Cu1   O3    S    
C5    C10   A    
C11   C13   A    
C14   C22   A    
C38   C39   A    
C2    C42   A    
C16   N3    S    
C33   C35   A    
C23   O6    A    
C10   C11   A    
C42   H1    S    
C7    C13   A    
C38   H8    S    
C12   O3    A    
C29   C37   A    
C2    C9    A    
C17   H6    S    
