data_mof_unit_10395.cif
_audit_creation_date              2013-03-05T16:49:18-0500
_audit_creation_method            fapswitch 2.2
_symmetry_space_group_name_H-M    P1
_symmetry_Int_Tables_number       1
_space_group_crystal_system       triclinic
_cell_length_a                    8.103352
_cell_length_b                    8.937377
_cell_length_c                    16.677071
_cell_angle_alpha                 89.548145
_cell_angle_beta                  94.293543
_cell_angle_gamma                 90.014371
_cell_volume                      1204.37158887

loop_
_atom_site_label
_atom_site_type_symbol
_atom_site_description
_atom_site_fract_x
_atom_site_fract_y
_atom_site_fract_z
_atom_type_partial_charge
O1    O     O_R   0.636850 0.285340 0.500000 -0.614046
O2    O     O_R   0.363150 0.714660 0.500000 -0.614045
O3    O     O_R   0.363100 0.285350 0.500000 -0.610259
O4    O     O_R   0.636900 0.714650 0.500000 -0.610257
C1    C     C_R   0.499966 0.217966 0.500025 0.941118
C2    C     C_R   0.500034 0.782033 0.499975 0.941119
O5    O     O_R   0.652140 0.498630 0.616140 -0.618177
O6    O     O_R   0.347860 0.501370 0.383860 -0.618189
O7    O     O_R   0.378390 0.498650 0.616130 -0.619430
O8    O     O_R   0.621610 0.501350 0.383870 -0.619429
C3    C     C_R   0.521010 0.502519 0.654192 0.900698
C4    C     C_R   0.478989 0.497482 0.345808 0.900708
Zn1   Zn    Zn3+2 0.682780 0.499990 0.500010 1.006196
Zn2   Zn    Zn3+2 0.317220 0.500010 0.499990 1.006191
N1    N     N_1   0.073640 0.500030 0.499990 -0.026419
N2    N     N_1   0.926360 0.499970 0.500010 -0.026418
C5    C     C_R   0.532724 0.523879 0.740729 -0.114293
C6    C     C_R   0.467264 0.476100 0.259272 -0.114288
C7    C     C_R   0.393900 0.575678 0.777558 -0.274208
C8    C     C_R   0.606083 0.424301 0.222439 -0.274201
C9    C     C_R   0.401306 0.597479 0.860327 0.310364
C10   C     C_R   0.598631 0.402431 0.139675 0.310405
C11   C     C_R   0.549468 0.560672 0.906331 0.214599
C12   C     C_R   0.450450 0.439187 0.093677 0.214622
C13   C     C_R   0.690660 0.518529 0.869010 -0.109764
C14   C     C_R   0.309271 0.481346 0.131002 -0.109686
C15   C     C_R   0.682722 0.500192 0.786296 -0.183496
C16   C     C_R   0.317243 0.499740 0.213714 -0.183556
N3    N     N_2   0.552852 0.545716 0.990074 -0.110166
N4    N     N_2   0.447060 0.454124 0.009932 -0.110133
C17   C     C_1   0.499968 0.065177 0.500007 -0.173909
C18   C     C_1   0.500032 0.934823 0.499993 -0.173907
H1    H     H_    0.719793 0.398918 0.258298 0.206632
H2    H     H_    0.280213 0.601098 0.741690 0.206665
H3    H     H_    0.804124 0.491608 0.904706 0.219137
H4    H     H_    0.195792 0.508239 0.095312 0.219212
H5    H     H_    0.791942 0.463127 0.758412 0.192114
H6    H     H_    0.208028 0.536807 0.241602 0.192122
N5    N     N_R   0.740793 0.344979 0.102946 0.217224
O9    O     O_R   0.722520 0.268527 0.036771 -0.352076
O10   O     O_R   0.887980 0.356316 0.139376 -0.401959
N6    N     N_R   0.259109 0.654901 0.897046 0.217247
O11   O     O_R   0.277297 0.731053 0.963331 -0.352140
O12   O     O_R   0.111971 0.643778 0.860536 -0.401922

loop_
_geom_bond_atom_site_label_1
_geom_bond_atom_site_label_2
_geom_bond_distance
_ccdc_geom_bond_type
C2    C18   1.365537 S    
O7    Zn2   1.962958 S    
N3    N4    1.246018 D    
C13   C15   1.387122 A    
C14   C16   1.387127 A    
C17   C18   1.165031 T    
C16   H6    1.083281 S    
O6    C4    1.278417 A    
C11   C13   1.395995 A    
N5    O10   1.301663 A    
O5    C3    1.278424 A    
O7    C3    1.276809 A    
O2    C2    1.262013 A    
O3    Zn2   1.954277 S    
N6    O12   1.301701 A    
C15   H5    1.083277 S    
O1    C1    1.262014 A    
C8    H1    1.083327 S    
O8    C4    1.276816 A    
C14   H4    1.083302 S    
C7    C9    1.392400 A    
C8    C10   1.392388 A    
C6    C8    1.401878 A    
C9    C11   1.413000 A    
O2    Zn2   1.954086 S    
C10   C12   1.412973 A    
C1    C17   1.365537 S    
C12   N4    1.400159 S    
O1    Zn1   1.954084 S    
N6    O11   1.301669 A    
C10   N5    1.441122 S    
N1    N2    1.193487 T    
C5    C15   1.399640 A    
C11   N3    1.400146 S    
O5    Zn1   1.970854 S    
C6    C16   1.399664 A    
O4    C2    1.262135 A    
Zn1   N2    1.973815 S    
C4    C6    1.453293 S    
N5    O9    1.301584 A    
C13   H3    1.083303 S    
Zn2   N1    1.973815 S    
C3    C5    1.453292 S    
O6    Zn2   1.970855 S    
C9    N6    1.441183 S    
C5    C7    1.401870 A    
C7    H2    1.083315 S    
O4    Zn1   1.954277 S    
C12   C14   1.395985 A    
O3    C1    1.262134 A    
O8    Zn1   1.962958 S    
