data_mof_unit_6991.cif
_audit_creation_date              2012-12-11T15:32:32-0500
_audit_creation_method            fapswitch 2.2
_symmetry_space_group_name_H-M    P1
_symmetry_Int_Tables_number       1
_space_group_crystal_system       triclinic
_cell_length_a                    6.949934
_cell_length_b                    20.460097
_cell_length_c                    24.420055
_cell_angle_alpha                 89.507948
_cell_angle_beta                  90.243722
_cell_angle_gamma                 89.255339
_cell_volume                      3471.98764631

loop_
_atom_site_label
_atom_site_type_symbol
_atom_type_description
_atom_site_fract_x
_atom_site_fract_y
_atom_site_fract_z
_atom_type_partial_charge
O1    O     O_R   0.507320 0.423560 0.460500 -0.536137
O2    O     O_R   0.170760 0.556250 0.437010 -0.537132
O3    O     O_R   0.004030 0.576440 0.539500 -0.537513
C1    C     C_R   0.338854 0.576350 0.420983 0.722250
O4    O     O_R   0.177370 0.422820 0.454110 -0.537314
O5    O     O_R   0.010680 0.442050 0.556720 -0.534061
C2    C     C_R   0.346915 0.398945 0.443561 0.725334
O6    O     O_R   0.500680 0.557950 0.443280 -0.535624
O7    O     O_3   0.340380 0.506470 0.533650 -0.368725
V1    V     V_3+5 0.064130 0.498800 0.493760 1.429488
O8    O     O_R   0.681160 0.443750 0.562990 -0.538908
C3    C     C_R   0.850817 0.423663 0.578850 0.727141
O9    O     O_R   0.674560 0.577180 0.545890 -0.538151
C4    C     C_R   0.841986 0.601207 0.556482 0.690983
V2    V     V_3+5 0.564560 0.501200 0.506240 1.426597
O10   O     O_3   0.838180 0.493530 0.466350 -0.366485
C5    C     C_R   0.976358 0.837940 0.910898 -0.188146
C6    C     C_R   0.841926 0.662126 0.588454 -0.045337
C7    C     C_R   0.046425 0.721778 0.904811 -0.162600
C8    C     C_R   0.019811 0.777447 0.936906 -0.055126
C9    C     C_R   0.951298 0.840643 0.853009 -0.046825
C10   C     C_R   0.949836 0.781362 0.821778 0.010849
C11   C     C_R   0.015089 0.723087 0.847979 0.007046
C12   C     C_R   0.888470 0.777639 0.765486 0.004904
C13   C     C_R   0.931089 0.720811 0.733734 -0.007395
C14   C     C_R   0.019079 0.667005 0.760605 -0.239844
C15   C     C_R   0.048854 0.666261 0.817225 0.454149
C16   C     C_R   0.771053 0.826672 0.741602 -0.195773
C17   C     C_R   0.723675 0.826816 0.686068 0.429096
C18   C     C_R   0.774298 0.773043 0.653615 0.037670
C19   C     C_R   0.875846 0.718622 0.676925 0.054438
C20   C     C_R   0.715984 0.771998 0.598409 -0.124295
C21   C     C_R   0.747379 0.716982 0.566593 -0.183926
C22   C     C_R   0.909664 0.663282 0.642815 -0.182788
H1    H     H_    0.979652 0.619300 0.657677 0.094004
H2    H     H_    0.692721 0.716512 0.524965 0.110951
H3    H     H_    0.088434 0.676277 0.924780 0.196333
H4    H     H_    0.059789 0.623134 0.739350 0.133220
H5    H     H_    0.705726 0.864445 0.766129 0.157078
H6    H     H_    0.639420 0.813085 0.579930 0.159915
C23   C     C_3   0.835850 0.306501 0.768745 -0.223190
C24   C     C_3   0.028438 0.275255 0.789710 -0.221206
H7    H     H_    0.122494 0.295340 0.822151 0.112947
H8    H     H_    0.770617 0.352825 0.783633 0.123750
C25   C     C_1   0.961330 0.122032 0.875527 -0.188895
C26   C     C_1   0.863247 0.378212 0.624631 -0.192914
C27   C     C_3   0.739200 0.238539 0.771583 -0.086229
C28   C     C_3   0.931242 0.207924 0.791523 0.100121
C29   C     C_3   0.799000 0.225349 0.711424 -0.169745
C30   C     C_3   0.895204 0.292772 0.708932 0.081768
C31   C     C_3   0.991358 0.194065 0.731942 -0.184381
C32   C     C_3   0.084099 0.262054 0.729684 0.529047
C33   C     C_1   0.948711 0.160555 0.837541 -0.034384
C34   C     C_1   0.876439 0.339804 0.662675 -0.041205
H9    H     H_    0.057852 0.148010 0.716905 0.131643
H10   H     H_    0.703795 0.204960 0.679386 0.150427
H11   H     H_    0.595587 0.228552 0.789303 0.136644
C35   C     C_3   0.592092 0.743712 0.230086 -0.133488
C36   C     C_3   0.442573 0.688073 0.231446 -0.134393
H12   H     H_    0.467573 0.637480 0.216776 0.120260
H13   H     H_    0.741085 0.739376 0.214163 0.116593
H14   H     H_    0.182470 0.725683 0.175736 0.114938
C37   C     C_1   0.348872 0.621771 0.374814 -0.191952
C38   C     C_1   0.475340 0.877195 0.124395 -0.144471
C39   C     C_3   0.537473 0.762132 0.289557 -0.142779
C40   C     C_3   0.388214 0.707089 0.290347 0.162181
C41   C     C_3   0.381116 0.810265 0.267232 -0.132410
C42   C     C_3   0.435489 0.791262 0.208344 0.161837
C43   C     C_3   0.231600 0.754638 0.268588 -0.137574
C44   C     C_3   0.286216 0.736225 0.209107 -0.131714
C45   C     C_1   0.364141 0.660055 0.336614 -0.058513
C46   C     C_1   0.459824 0.838549 0.162305 -0.043381
H15   H     H_    0.082587 0.758988 0.284491 0.110719
H16   H     H_    0.356103 0.860866 0.281880 0.119609
H17   H     H_    0.641271 0.772707 0.322904 0.111673
C47   C     C_R   0.463354 0.160707 0.090173 -0.101086
C48   C     C_R   0.355772 0.338098 0.411910 -0.109730
C49   C     C_R   0.421006 0.278125 0.091426 -0.121899
C50   C     C_R   0.429959 0.219859 0.062757 -0.212249
C51   C     C_R   0.481563 0.159778 0.148130 -0.042213
C52   C     C_R   0.440479 0.218273 0.178493 -0.026128
C53   C     C_R   0.427063 0.278279 0.148933 0.031312
C54   C     C_R   0.408469 0.219665 0.236647 0.066478
C55   C     C_R   0.408619 0.280421 0.265316 0.021107
C56   C     C_R   0.420691 0.338530 0.234184 -0.265740
C57   C     C_R   0.417326 0.337901 0.176996 0.437645
C58   C     C_R   0.357139 0.163001 0.265984 -0.117678
C59   C     C_R   0.330132 0.163701 0.322186 -0.159909
C60   C     C_R   0.346108 0.221544 0.351787 0.031448
C61   C     C_R   0.384935 0.281172 0.323801 0.060654
C62   C     C_R   0.317204 0.220601 0.409032 0.464822
C63   C     C_R   0.316932 0.279077 0.438193 -0.243842
C64   C     C_R   0.392825 0.339204 0.355454 -0.222314
H18   H     H_    0.424881 0.386143 0.337635 0.108200
H19   H     H_    0.285678 0.278325 0.481644 0.129917
H20   H     H_    0.292487 0.118285 0.342344 0.169741
H21   H     H_    0.404566 0.323195 0.068190 0.159049
H22   H     H_    0.418107 0.221199 0.018488 0.110788
H23   H     H_    0.420933 0.386041 0.252754 0.138665
H24   H     H_    0.326284 0.117694 0.245699 0.139262
O11   O     O_R   0.323550 0.942140 0.056770 -0.528520
O12   O     O_R   0.647080 0.077200 0.045890 -0.543580
O13   O     O_R   0.813610 0.057920 0.943260 -0.533432
C65   C     C_R   0.477243 0.100925 0.056763 0.737135
O14   O     O_R   0.653470 0.943760 0.063000 -0.526616
O15   O     O_R   0.820050 0.923540 0.960490 -0.515599
C66   C     C_R   0.485463 0.923128 0.078621 0.783549
O16   O     O_R   0.317110 0.076520 0.039540 -0.538223
O17   O     O_3   0.483830 0.993580 0.966380 -0.370402
V3    V     V_3+5 0.760140 0.001190 0.006240 1.529928
O18   O     O_R   0.149510 0.922740 0.954070 -0.546504
C67   C     C_R   0.981687 0.898929 0.943338 0.813655
O19   O     O_R   0.143120 0.056170 0.936970 -0.544211
C68   C     C_R   0.973545 0.076477 0.921255 0.737444
V4    V     V_3+5 0.259690 0.998700 0.993700 1.506134
O20   O     O_3   0.986130 0.006420 0.033620 -0.367332
O21   O     O_3   0.128006 0.610938 0.841912 -0.553253
C69   C     C_3   0.982693 0.563959 0.847916 -0.265616
H25   H     H_    0.932325 0.546131 0.807472 0.133432
H26   H     H_    0.859153 0.583454 0.871981 0.146180
H27   H     H_    0.043358 0.521322 0.870775 0.169000
O22   O     O_3   0.265758 0.271088 0.705314 -0.555865
C70   C     C_3   0.335554 0.333351 0.718580 -0.260151
H28   H     H_    0.378314 0.335220 0.762422 0.128675
H29   H     H_    0.229605 0.372993 0.708790 0.136098
H30   H     H_    0.465822 0.342632 0.693823 0.177555
O23   O     O_3   0.418727 0.396549 0.148329 -0.555506
C71   C     C_3   0.230785 0.423417 0.148092 -0.254178
H31   H     H_    0.185141 0.437658 0.189985 0.139818
H32   H     H_    0.125487 0.389095 0.129940 0.141328
H33   H     H_    0.229647 0.468354 0.122348 0.173327
C72   C     C_2   0.570871 0.101221 0.174763 0.712588
O24   O     O_2   0.702742 0.107853 0.207499 -0.547273
O25   O     O_R   0.503804 0.038813 0.162918 -0.682154
H34   H     H_    0.575707 0.003243 0.184061 0.284639
O26   O     O_3   0.273321 0.162976 0.435966 -0.556661
C73   C     C_3   0.439251 0.140282 0.463996 -0.254079
H35   H     H_    0.481139 0.174316 0.497155 0.142466
H36   H     H_    0.561580 0.132367 0.435372 0.145252
H37   H     H_    0.406939 0.092491 0.483431 0.169756
O27   O     O_3   0.608196 0.876581 0.664705 -0.551442
C74   C     C_3   0.716982 0.934167 0.660907 -0.213515
H38   H     H_    0.629480 0.972063 0.639181 0.159997
H39   H     H_    0.850845 0.926248 0.636780 0.136697
H40   H     H_    0.752218 0.953482 0.702133 0.159145
C75   C     C_2   0.047449 0.770823 0.997381 0.733610
O28   O     O_2   0.971418 0.809620 0.028660 -0.569547
O29   O     O_R   0.158129 0.718919 0.018758 -0.664088
H41   H     H_    0.166153 0.719477 0.060226 0.292427
C76   C     C_2   0.961274 0.905589 0.825424 0.695604
O30   O     O_2   0.075686 0.914064 0.788187 -0.546184
O31   O     O_R   0.838510 0.956523 0.841427 -0.671915
H42   H     H_    0.856482 0.997634 0.818657 0.283430

loop_
_geom_bond_atom_site_label_1
_geom_bond_atom_site_label_2
_ccdc_geom_bond_type
C47   C65   S    
C54   C58   A    
O14   V3    S    
C59   H20   S    
C48   C63   A    
O11   C66   A    
C64   H18   S    
C51   C72   S    
C23   C24   S    
C4    C6    S    
C50   H22   S    
O2    C1    A    
C7    C8    A    
C47   C50   A    
C1    O6    A    
C71   H31   S    
C21   H2    S    
C52   C53   A    
C70   H28   S    
C27   C29   S    
O15   C67   A    
C56   C57   A    
C73   H36   S    
C1    C37   S    
C14   C15   A    
C30   C34   S    
C38   C66   S    
O13   V3    S    
O16   V4    S    
C16   C17   A    
C58   H24   S    
C36   C40   S    
O5    C3    A    
C18   C19   A    
C70   H29   S    
C40   C43   S    
V2    O10   S    
C5    C8    A    
H14   C44   S    
C22   H1    S    
C69   H25   S    
C7    H3    S    
O19   C68   A    
C32   O22   S    
C25   C68   S    
C28   C31   S    
C62   O26   S    
C54   C55   A    
C72   O24   D    
C29   C31   S    
C30   C32   S    
C43   H15   S    
O1    V2    S    
C11   C15   A    
C60   C62   A    
O7    V1    S    
C2    C48   S    
C8    C75   S    
C35   H13   S    
C20   H6    S    
C25   C33   T    
C36   H12   S    
O9    C4    A    
C74   H40   S    
C55   C61   A    
C52   C54   A    
C75   O29   S    
C15   O21   S    
C28   C33   S    
C73   H37   S    
C41   C42   S    
C12   C16   A    
O13   C68   A    
C12   C13   A    
C3    C26   S    
C62   C63   A    
O4    C2    A    
C49   C50   A    
C14   H4    S    
C70   H30   S    
C16   H5    S    
C39   C41   S    
C13   C14   A    
C53   C57   A    
C63   H19   S    
C5    C9    A    
C31   C32   S    
C41   C43   S    
C69   H27   S    
C7    C11   A    
C40   C45   S    
C17   C18   A    
C56   H23   S    
C76   O31   S    
C27   H11   S    
O14   C66   A    
C49   C53   A    
C35   C39   S    
C27   C28   S    
C42   C46   S    
C17   O27   S    
C26   C34   T    
C49   H21   S    
C23   C27   S    
C19   C22   A    
C41   H16   S    
C24   C28   S    
C9    C76   S    
C55   C56   A    
O12   C65   A    
C6    C22   A    
O3    C4    A    
C35   C42   S    
C37   C45   T    
C39   C40   S    
O6    V2    S    
O8    V2    S    
O9    V2    S    
O11   V4    S    
C23   H8    S    
C10   C12   A    
O12   V3    S    
C24   H7    S    
O23   C71   S    
O2    V1    S    
C5    C67   S    
V3    O20   S    
C23   C30   S    
C65   O16   A    
C74   H39   S    
C61   C64   A    
C75   O28   D    
O15   V3    S    
O18   C67   A    
C57   O23   S    
O1    C2    A    
C13   C19   A    
C47   C51   A    
C51   C52   A    
C71   H32   S    
O5    V1    S    
O8    C3    A    
O22   C70   S    
O25   H34   S    
C29   H10   S    
C73   H35   S    
O21   C69   S    
C39   H17   S    
C20   C21   A    
C35   C36   S    
O4    V1    S    
O3    V1    S    
V1    O10   S    
O27   C74   S    
C18   C20   A    
C48   C64   A    
C31   H9    S    
O29   H41   S    
C38   C46   T    
O7    V2    S    
C43   C44   S    
C6    C21   A    
C69   H26   S    
O17   V4    S    
C36   C44   S    
C59   C60   A    
C58   C59   A    
C72   O25   S    
C29   C30   S    
O17   V3    S    
C74   H38   S    
C42   C44   S    
C10   C11   A    
O26   C73   S    
O18   V4    S    
O31   H42   S    
C60   C61   A    
C9    C10   A    
C71   H33   S    
V4    O20   S    
C24   C32   S    
C76   O30   D    
O19   V4    S    
