data_mof_unit_45973.cif
_audit_creation_date              2012-12-10T17:54:27-0500
_audit_creation_method            fapswitch 2.2
_symmetry_space_group_name_H-M    P1
_symmetry_Int_Tables_number       1
_space_group_crystal_system       triclinic
_cell_length_a                    27.719656
_cell_length_b                    10.718508
_cell_length_c                    9.868837
_cell_angle_alpha                 89.373273
_cell_angle_beta                  90.221859
_cell_angle_gamma                 91.727614
_cell_volume                      2930.63669968

loop_
_atom_site_label
_atom_site_type_symbol
_atom_type_description
_atom_site_fract_x
_atom_site_fract_y
_atom_site_fract_z
_atom_type_partial_charge
C1    C     C_R   0.503092 0.259856 0.501869 0.876016
C2    C     C_R   0.973127 0.381237 0.471959 0.048435
C3    C     C_R   0.976276 0.611362 0.468191 0.063042
C4    C     C_R   0.406025 0.499329 0.499662 0.849735
C5    C     C_R   0.949457 0.496573 0.470980 0.059298
C6    C     C_R   0.944969 0.269510 0.462234 -0.213266
C7    C     C_R   0.894928 0.271193 0.460801 -0.127009
C8    C     C_R   0.871332 0.384079 0.470075 -0.025916
C9    C     C_R   0.898474 0.497138 0.475293 -0.052903
C10   C     C_R   0.874610 0.610688 0.486407 -0.024496
C11   C     C_R   0.824187 0.609091 0.491141 0.519655
C12   C     C_R   0.277166 0.488905 0.617355 -0.098975
C13   C     C_R   0.820957 0.386919 0.474195 0.515354
C14   C     C_R   0.723624 0.460347 0.608651 -0.215263
C15   C     C_R   0.673098 0.459793 0.615033 0.428600
C16   C     C_R   0.494977 0.738900 0.499800 0.888217
C17   C     C_R   0.671337 0.537177 0.381533 -0.294351
C18   C     C_R   0.721317 0.537361 0.376911 -0.097966
C19   C     C_R   0.747366 0.498867 0.490174 0.279079
C20   C     C_R   0.023955 0.381440 0.484434 0.071450
C21   C     C_R   0.050754 0.495882 0.470510 0.001512
C22   C     C_R   0.027052 0.610489 0.451235 -0.007982
C23   C     C_R   0.252837 0.495062 0.493236 0.319048
C24   C     C_R   0.048936 0.271096 0.512849 -0.209325
C25   C     C_R   0.105506 0.716348 0.419835 -0.246663
C26   C     C_R   0.951495 0.722659 0.489660 -0.131035
C27   C     C_R   0.901507 0.722467 0.496573 -0.166187
C28   C     C_R   0.594001 0.499443 0.500310 0.925259
C29   C     C_R   0.055033 0.718947 0.413866 0.422538
C30   C     C_R   0.510014 0.108213 0.761865 -0.148999
C31   C     C_R   0.494467 0.045603 0.879166 -0.141857
C32   C     C_R   0.468940 0.932592 0.869158 -0.156961
C33   C     C_R   0.463337 0.876613 0.743121 -0.147771
C34   C     C_R   0.101697 0.495492 0.475849 -0.056844
C35   C     C_R   0.483182 0.934266 0.625024 0.099217
C36   C     C_R   0.499751 0.058363 0.631709 0.093337
C37   C     C_R   0.505002 0.125878 0.507332 -0.114053
C38   C     C_R   0.504099 0.064124 0.383299 -0.211493
C39   C     C_R   0.497824 0.937202 0.380630 -0.209541
C40   C     C_R   0.176013 0.386055 0.510804 0.501563
C41   C     C_R   0.488863 0.871401 0.501046 -0.124193
C42   C     C_R   0.436333 0.336833 0.141643 -0.174384
C43   C     C_R   0.404990 0.256626 0.071685 -0.207233
C44   C     C_R   0.404992 0.256742 0.931485 -0.181120
C45   C     C_R   0.125599 0.383755 0.503405 -0.002713
C46   C     C_R   0.436419 0.336856 0.860531 -0.168590
C47   C     C_R   0.468650 0.419497 0.928119 0.149135
C48   C     C_R   0.468638 0.419524 0.072987 0.167783
C49   C     C_R   0.529874 0.577273 0.071043 -0.124610
C50   C     C_R   0.529852 0.577256 0.927625 -0.083590
C51   C     C_R   0.179233 0.604644 0.461566 0.533741
C52   C     C_R   0.278459 0.501699 0.371688 -0.104329
C53   C     C_R   0.328516 0.502769 0.373871 -0.216650
C54   C     C_R   0.327342 0.490299 0.619981 -0.225419
C55   C     C_R   0.098861 0.272582 0.522712 -0.136226
C56   C     C_R   0.128853 0.606710 0.453791 -0.068715
C57   C     C_R   0.353323 0.497592 0.498095 -0.036366
C58   C     C_R   0.646826 0.498871 0.499935 -0.093823
H1    H     H_    0.345685 0.485668 0.716936 0.164606
H2    H     H_    0.501397 0.086172 0.977613 0.146924
H3    H     H_    0.257155 0.483721 0.711370 0.139711
H4    H     H_    0.454901 0.886289 0.959386 0.141088
H5    H     H_    0.443263 0.788590 0.739070 0.161244
H6    H     H_    0.500899 0.890679 0.284221 0.169472
H7    H     H_    0.554234 0.640296 0.124706 0.147838
H8    H     H_    0.434043 0.331115 0.249043 0.210121
H9    H     H_    0.380590 0.193915 0.126781 0.163704
H10   H     H_    0.380723 0.193829 0.877170 0.165178
H11   H     H_    0.434636 0.330296 0.753193 0.210009
H12   H     H_    0.259464 0.506125 0.275730 0.138779
H13   H     H_    0.554175 0.640317 0.872925 0.162475
H14   H     H_    0.116425 0.185825 0.545463 0.190503
H15   H     H_    0.744679 0.430586 0.695223 0.138975
H16   H     H_    0.874807 0.183238 0.453846 0.194164
H17   H     H_    0.960679 0.179250 0.452404 0.150124
H18   H     H_    0.030720 0.182524 0.532700 0.146454
H19   H     H_    0.347687 0.508032 0.278449 0.167270
H20   H     H_    0.057766 0.888811 0.339016 0.335250
H21   H     H_    0.672956 0.395507 0.800481 0.332979
H22   H     H_    0.126540 0.800211 0.394695 0.191241
H23   H     H_    0.970080 0.810660 0.508374 0.199274
H24   H     H_    0.651851 0.567853 0.292438 0.182893
H25   H     H_    0.884075 0.810367 0.511534 0.193611
H26   H     H_    0.739910 0.567043 0.285230 0.153366
H27   H     H_    0.508837 0.113554 0.287641 0.173123
H28   H     H_    0.531345 0.192978 0.776066 0.185802
N1    N     N_R   0.201498 0.495477 0.490035 -0.359387
N2    N     N_R   0.798679 0.498306 0.484719 -0.349406
N3    N     N_R   0.499540 0.498800 0.142780 -0.122570
N4    N     N_R   0.499520 0.498720 0.857170 -0.127783
O1    O     O_R   0.500000 0.316780 0.614690 -0.652121
O2    O     O_R   0.571250 0.499990 0.614680 -0.552334
O3    O     O_R   0.571240 0.499970 0.385350 -0.629661
O4    O     O_2   0.199498 0.279924 0.537186 -0.554108
O5    O     O_3   0.033062 0.822754 0.360479 -0.788726
O6    O     O_3   0.649046 0.419430 0.730586 -0.754393
O7    O     O_2   0.794344 0.279567 0.467626 -0.544874
O8    O     O_2   0.205878 0.710667 0.441188 -0.550854
O9    O     O_2   0.800734 0.716997 0.502846 -0.545278
O10   O     O_R   0.500000 0.316750 0.385360 -0.639523
O11   O     O_R   0.428760 0.500030 0.614650 -0.649789
O12   O     O_R   0.428750 0.500010 0.385320 -0.641417
O13   O     O_R   0.500000 0.683250 0.614640 -0.629411
O14   O     O_R   0.500000 0.683220 0.385310 -0.621038
Zn1   Zn    Zn3+2 0.500000 0.500020 0.653130 0.953041
Zn2   Zn    Zn3+2 0.500000 0.499980 0.346870 0.938253

loop_
_geom_bond_atom_site_label_1
_geom_bond_atom_site_label_2
_ccdc_geom_bond_type
C10   C27   A    
C34   C56   A    
C8    C13   A    
C22   C29   A    
C25   H22   S    
O1    Zn1   S    
C35   C36   A    
C25   C56   A    
C43   C44   A    
O14   Zn2   S    
C6    H17   S    
C39   C41   A    
C31   C32   A    
C24   C55   A    
C39   H6    S    
C12   C23   A    
C26   C27   A    
C49   H7    S    
C40   N1    A    
C36   C37   A    
C17   H24   S    
C30   C31   A    
C11   O9    S    
C18   C19   A    
C46   H11   S    
C50   N4    A    
C20   C24   A    
C44   C46   A    
C8    C9    A    
C4    O12   A    
C4    C57   S    
C18   H26   S    
C40   O4    S    
C30   H28   S    
C9    C10   A    
H20   O5    S    
C55   H14   S    
C1    C37   S    
C17   C58   A    
C51   O8    S    
C1    O1    A    
C23   N1    S    
C21   C22   A    
O11   Zn1   S    
C2    C6    A    
C1    O10   A    
C16   O14   A    
C7    H16   S    
C54   H1    S    
C25   C29   A    
C40   C45   A    
C38   H27   S    
C2    C20   A    
C14   H15   S    
C7    C8    A    
C28   O2    A    
C19   N2    S    
C51   N1    A    
C15   O6    S    
C29   O5    S    
C53   C57   A    
C24   H18   S    
C21   C34   A    
C28   O3    A    
C31   H2    S    
N3    Zn2   S    
C53   H19   S    
C50   H13   S    
C5    C9    A    
C37   C38   A    
O3    Zn2   S    
C16   O13   A    
C47   C48   A    
C11   N2    A    
C33   H5    S    
C4    O11   A    
C17   C18   A    
O13   Zn1   S    
C34   C45   A    
C42   C48   A    
C26   H23   S    
C48   N3    A    
C15   C58   A    
C44   H10   S    
C2    C5    A    
C42   C43   A    
C52   C53   A    
C46   C47   A    
C14   C19   A    
C3    C26   A    
C51   C56   A    
N4    Zn1   S    
C49   N3    A    
C3    C5    A    
C6    C7    A    
C28   C58   S    
O10   Zn2   S    
C30   C36   A    
C32   C33   A    
C27   H25   S    
C32   H4    S    
H21   O6    S    
C12   H3    S    
C23   C52   A    
C38   C39   A    
C13   N2    A    
C33   C35   A    
O12   Zn2   S    
C13   O7    S    
C35   C41   A    
C47   N4    A    
C52   H12   S    
C10   C11   A    
O2    Zn1   S    
C20   C21   A    
C45   C55   A    
C43   H9    S    
C49   C50   A    
C42   H8    S    
C14   C15   A    
C3    C22   A    
C16   C41   S    
C12   C54   A    
C54   C57   A    
