data_mof_unit_41329.cif
_audit_creation_date              2012-12-10T18:22:32-0500
_audit_creation_method            fapswitch 2.2
_symmetry_space_group_name_H-M    P1
_symmetry_Int_Tables_number       1
_space_group_crystal_system       triclinic
_cell_length_a                    23.458919
_cell_length_b                    10.626351
_cell_length_c                    9.434341
_cell_angle_alpha                 90.009619
_cell_angle_beta                  89.975494
_cell_angle_gamma                 90.691715
_cell_volume                      2351.64643366

loop_
_atom_site_label
_atom_site_type_symbol
_atom_type_description
_atom_site_fract_x
_atom_site_fract_y
_atom_site_fract_z
_atom_type_partial_charge
C1    C     C_R   0.500070 0.259424 0.500162 0.766173
C2    C     C_R   0.702374 0.512822 0.372064 -0.221663
C3    C     C_R   0.237615 0.489491 0.377352 -0.113063
C4    C     C_R   0.761826 0.518064 0.373230 -0.106371
C5    C     C_R   0.208963 0.476279 0.506754 0.373468
C6    C     C_R   0.791299 0.519920 0.502324 0.362673
C7    C     C_3   0.504273 0.040897 0.634815 -0.133136
C8    C     C_3   0.496293 0.959100 0.365906 -0.150271
C9    C     C_3   0.549007 0.959390 0.558574 -0.166505
C10   C     C_3   0.451563 0.040423 0.442280 -0.183094
C11   C     C_3   0.500306 0.877555 0.499617 0.024079
C12   C     C_R   0.500147 0.740559 0.499931 0.775066
C13   C     C_3   0.500228 0.122401 0.500987 0.020005
C14   C     C_3   0.455601 0.956720 0.575854 -0.143684
C15   C     C_3   0.545000 0.043209 0.424929 -0.162620
C16   C     C_R   0.390990 0.497240 0.500147 0.784187
C17   C     C_R   0.609037 0.502239 0.499947 0.791244
C18   C     C_3   0.499416 0.615292 0.051257 -0.372636
C19   C     C_3   0.500361 0.384595 0.947703 -0.368057
C20   C     C_3   0.455687 0.554242 0.950991 0.510294
C21   C     C_3   0.544291 0.444855 0.048753 0.447282
C22   C     C_3   0.543848 0.558668 0.951178 0.461223
C23   C     C_R   0.239840 0.467470 0.633021 -0.138318
C24   C     C_3   0.456189 0.440848 0.048937 0.459997
C25   C     C_R   0.883373 0.616858 0.548305 0.561198
C26   C     C_R   0.116771 0.373460 0.487184 0.560652
C27   C     C_R   0.877846 0.403150 0.470706 0.522159
C28   C     C_R   0.122812 0.592009 0.544914 0.532488
C29   C     C_R   0.937006 0.389070 0.489036 -0.119613
C30   C     C_R   0.063112 0.598673 0.558563 -0.116061
C31   C     C_R   0.969992 0.496739 0.524000 -0.076620
C32   C     C_R   0.030082 0.490580 0.525529 -0.079241
C33   C     C_R   0.943001 0.610897 0.556335 -0.055838
C34   C     C_R   0.761021 0.518355 0.630143 -0.139842
C35   C     C_R   0.057048 0.376491 0.492607 -0.070970
C36   C     C_R   0.964436 0.271489 0.474072 0.470808
C37   C     C_R   0.035361 0.709269 0.604567 0.467076
C38   C     C_R   0.023947 0.267660 0.469436 -0.231327
C39   C     C_R   0.975913 0.715419 0.598656 -0.240825
C40   C     C_3   0.909147 0.125471 0.594256 0.133871
C41   C     C_3   0.952824 0.090722 0.708565 -0.452001
C42   C     C_3   0.922602 0.042347 0.841720 -0.879759
C43   C     C_3   0.085509 0.791035 0.793024 0.126529
C44   C     C_3   0.047563 0.856653 0.901069 -0.426660
C45   C     C_R   0.299142 0.473199 0.630424 -0.215929
C46   C     C_3   0.068174 0.834393 0.052341 -0.853252
C47   C     C_3   0.376907 0.676852 0.993098 0.027919
C48   C     C_3   0.317298 0.705485 0.937336 -0.325845
C49   C     C_3   0.282326 0.778018 0.045855 -0.904499
C50   C     C_3   0.627514 0.336314 0.001256 0.023005
C51   C     C_3   0.618967 0.193610 0.987837 -0.341761
C52   C     C_3   0.645881 0.144909 0.851264 -0.917724
C53   C     C_3   0.629444 0.662331 0.997550 0.026605
C54   C     C_3   0.647696 0.798426 0.970496 -0.349029
C55   C     C_3   0.691156 0.843734 0.080127 -0.894050
C56   C     C_R   0.701688 0.513009 0.629293 -0.219185
C57   C     C_3   0.412679 0.255661 0.125861 0.094685
C58   C     C_3   0.387699 0.183251 0.999341 -0.365709
C59   C     C_3   0.404424 0.045017 0.003797 -0.963760
C60   C     C_R   0.328319 0.489165 0.501388 -0.038473
C61   C     C_R   0.671771 0.508951 0.500270 -0.036007
C62   C     C_R   0.297060 0.495636 0.374511 -0.224729
Cu1   Cu    Cu3+1 0.500010 0.499990 0.643150 1.006955
Cu2   Cu    Cu3+1 0.499990 0.500010 0.356850 0.978826
H1    H     H_    0.499526 0.711059 0.098198 0.150072
H2    H     H_    0.680516 0.510783 0.271037 0.169600
H3    H     H_    0.213785 0.497284 0.279534 0.133402
H4    H     H_    0.785051 0.518765 0.274010 0.136262
H5    H     H_    0.588817 0.923088 0.606312 0.137581
H6    H     H_    0.411340 0.075389 0.395886 0.121275
H7    H     H_    0.507615 0.076816 0.745066 0.137764
H8    H     H_    0.492979 0.923482 0.255524 0.131313
H9    H     H_    0.419079 0.918292 0.637761 0.138562
H10   H     H_    0.581511 0.081681 0.363022 0.141073
H11   H     H_    0.881039 0.042328 0.574886 0.203927
H12   H     H_    0.500748 0.290035 0.898333 0.155100
H13   H     H_    0.881197 0.200735 0.635690 0.146157
H14   H     H_    0.981951 0.017754 0.667358 0.255765
H15   H     H_    0.978707 0.175068 0.737703 0.219492
H16   H     H_    0.890410 0.111025 0.878191 0.262633
H17   H     H_    0.953826 0.029716 0.928562 0.263943
H18   H     H_    0.901143 0.950630 0.819842 0.269240
H19   H     H_    0.129201 0.831950 0.801264 0.193899
H20   H     H_    0.089167 0.689212 0.820834 0.113169
H21   H     H_    0.048219 0.959390 0.879332 0.241211
H22   H     H_    0.003130 0.820424 0.890829 0.228468
H23   H     H_    0.044061 0.177826 0.451218 0.211533
H24   H     H_    0.066872 0.732308 0.077706 0.254396
H25   H     H_    0.040026 0.884351 0.127843 0.272570
H26   H     H_    0.112449 0.870791 0.065578 0.260006
H27   H     H_    0.399927 0.766916 0.014562 0.145328
H28   H     H_    0.372301 0.623445 0.094107 0.170381
H29   H     H_    0.320841 0.761561 0.838177 0.230073
H30   H     H_    0.294626 0.615715 0.912891 0.221582
H31   H     H_    0.277523 0.722517 0.145018 0.258570
H32   H     H_    0.239249 0.796133 0.002129 0.258491
H33   H     H_    0.303200 0.869671 0.070538 0.263581
H34   H     H_    0.955582 0.802170 0.629143 0.190397
H35   H     H_    0.672548 0.355366 0.031595 0.147261
H36   H     H_    0.621622 0.382058 0.895997 0.160435
H37   H     H_    0.638580 0.146226 0.080488 0.219828
H38   H     H_    0.572900 0.168864 0.987402 0.207286
H39   H     H_    0.626293 0.190664 0.757529 0.260740
H40   H     H_    0.638552 0.042115 0.841978 0.250984
H41   H     H_    0.692523 0.164211 0.851327 0.263095
H42   H     H_    0.667498 0.601316 0.991604 0.141944
H43   H     H_    0.612216 0.656162 0.107776 0.156704
H44   H     H_    0.666667 0.806452 0.862815 0.232530
H45   H     H_    0.217752 0.457815 0.733325 0.125848
H46   H     H_    0.609496 0.859153 0.975769 0.215225
H47   H     H_    0.672317 0.840234 0.188156 0.255075
H48   H     H_    0.704056 0.942382 0.056506 0.265178
H49   H     H_    0.729689 0.784036 0.077080 0.261380
H50   H     H_    0.388311 0.228255 0.222072 0.153417
H51   H     H_    0.457694 0.227989 0.145931 0.156240
H52   H     H_    0.340466 0.190200 0.001195 0.228258
H53   H     H_    0.403051 0.224928 0.898149 0.226900
H54   H     H_    0.451395 0.036108 0.993683 0.247371
H55   H     H_    0.383890 0.993854 0.914386 0.267154
H56   H     H_    0.783605 0.518732 0.730239 0.131158
H57   H     H_    0.390415 0.001466 0.105201 0.254246
H58   H     H_    0.322092 0.465395 0.729473 0.185235
H59   H     H_    0.679396 0.511014 0.729660 0.170008
H60   H     H_    0.318382 0.506648 0.273510 0.179385
N1    N     N_R   0.852304 0.514253 0.504617 -0.467459
N2    N     N_R   0.148051 0.480538 0.511655 -0.472160
N3    N     N_3   0.500040 0.499970 0.858290 -0.217195
N4    N     N_3   0.499960 0.500030 0.141710 -0.233753
O1    O     O_R   0.500030 0.316850 0.620870 -0.596321
O2    O     O_2   0.143429 0.264796 0.457342 -0.531769
O3    O     O_2   0.845997 0.307330 0.418303 -0.516130
O4    O     O_2   0.155612 0.696066 0.561878 -0.510132
O5    O     O_3   0.934778 0.158274 0.462625 -0.572925
O6    O     O_3   0.065411 0.813552 0.653463 -0.576704
O7    O     O_3   0.406765 0.607755 0.889750 -0.586296
O8    O     O_3   0.592069 0.385364 0.109029 -0.598279
O9    O     O_3   0.590507 0.624150 0.890847 -0.599933
O10   O     O_3   0.406067 0.386462 0.106489 -0.614900
O11   O     O_R   0.499970 0.683150 0.379130 -0.600937
O12   O     O_R   0.500000 0.316860 0.379090 -0.569204
O13   O     O_R   0.500000 0.683140 0.620910 -0.537144
O14   O     O_R   0.417890 0.499960 0.620920 -0.539444
O15   O     O_R   0.582110 0.500040 0.379080 -0.546836
O16   O     O_R   0.417870 0.499970 0.379140 -0.560728
O17   O     O_R   0.582130 0.500030 0.620860 -0.554701
O18   O     O_2   0.856647 0.724536 0.582161 -0.557091

loop_
_geom_bond_atom_site_label_1
_geom_bond_atom_site_label_2
_ccdc_geom_bond_type
C59   H57   S    
C45   C60   A    
C42   H16   S    
C23   C45   A    
C55   H48   S    
C27   C29   A    
C43   H19   S    
C41   C42   S    
C17   O17   A    
C42   H18   S    
C36   O5    S    
C62   H60   S    
C57   C58   S    
C57   H51   S    
C46   H25   S    
C53   C54   S    
C18   H1    S    
C34   C56   A    
C29   C36   A    
C50   H35   S    
C33   C39   A    
C48   H30   S    
C53   O9    S    
C19   H12   S    
C16   O16   A    
C9    H5    S    
C1    O1    A    
C7    H7    S    
C52   H39   S    
C37   O6    S    
C27   O3    S    
C12   O13   A    
C54   H46   S    
C60   C62   A    
C47   H28   S    
C19   N3    S    
C25   N1    A    
C18   N4    S    
C53   H42   S    
C7    C14   S    
C20   C24   S    
C28   N2    A    
Cu2   N4    S    
C5    C23   A    
C5    N2    S    
C51   H38   S    
C31   C33   A    
C25   O18   S    
C21   O8    S    
C26   O2    S    
C2    C61   A    
C17   C61   S    
C49   H32   S    
C21   C22   S    
C58   H52   S    
C43   H20   S    
C42   H17   S    
C44   H22   S    
C44   C46   S    
C46   H24   S    
C34   H56   S    
C23   H45   S    
C8    H8    S    
C48   H29   S    
C55   H47   S    
C51   C52   S    
C14   H9    S    
C35   C38   A    
C20   N3    S    
C4    C6    A    
C10   C14   S    
C41   H14   S    
C4    H4    S    
C39   H34   S    
C55   H49   S    
C2    H2    S    
C58   C59   S    
C58   H53   S    
C6    C34   A    
C30   C37   A    
C28   O4    S    
C56   H59   S    
C43   O6    S    
C16   O14   A    
C43   C44   S    
C32   C35   A    
C53   H43   S    
C47   C48   S    
C22   O9    S    
C50   C51   S    
Cu1   O13   S    
C12   O11   A    
C49   H31   S    
C21   N4    S    
C9    C11   S    
C1    O12   A    
C16   C60   S    
C10   H6    S    
C8    C10   S    
C48   C49   S    
C52   H41   S    
C8    C15   S    
C13   C15   S    
C1    C13   S    
C44   H21   S    
Cu2   O12   S    
C3    C62   A    
C7    C9    S    
C54   C55   S    
C52   H40   S    
C59   H55   S    
C47   O7    S    
C18   C22   S    
C47   H27   S    
C31   C32   A    
C3    H3    S    
C6    N1    S    
C3    C5    A    
C10   C13   S    
C41   H15   S    
C11   C12   S    
C57   H50   S    
C46   H26   S    
Cu2   O15   S    
C45   H58   S    
C51   H37   S    
Cu2   O16   S    
C40   O5    S    
C50   H36   S    
C40   H11   S    
C54   H44   S    
C38   H23   S    
C17   O15   A    
C24   O10   S    
C28   C30   A    
C19   C24   S    
C9    C15   S    
C29   C31   A    
C50   O8    S    
C30   C32   A    
C27   N1    A    
C40   H13   S    
C22   N3    S    
C8    C11   S    
C2    C4    A    
C36   C38   A    
C11   C14   S    
Cu1   O14   S    
C57   O10   S    
C18   C20   S    
Cu1   O1    S    
C20   O7    S    
C49   H33   S    
Cu1   Cu2   S    
C26   C35   A    
C7    C13   S    
C15   H10   S    
C59   H54   S    
C37   C39   A    
C24   N4    S    
C26   N2    A    
C56   C61   A    
C40   C41   S    
Cu1   O17   S    
Cu1   N3    S    
C25   C33   A    
C19   C21   S    
Cu2   O11   S    
