data_mof_unit_33698.cif
_audit_creation_date              2012-12-10T18:48:43-0500
_audit_creation_method            fapswitch 2.2
_symmetry_space_group_name_H-M    P1
_symmetry_Int_Tables_number       1
_space_group_crystal_system       triclinic
_cell_length_a                    15.753625
_cell_length_b                    14.731462
_cell_length_c                    9.944632
_cell_angle_alpha                 90.000029
_cell_angle_beta                  91.00765
_cell_angle_gamma                 90.0
_cell_volume                      2307.53291003

loop_
_atom_site_label
_atom_site_type_symbol
_atom_type_description
_atom_site_fract_x
_atom_site_fract_y
_atom_site_fract_z
_atom_type_partial_charge
C1    C     C_R   0.124915 0.385961 0.501109 0.891777
C2    C     C_R   0.875085 0.614039 0.498890 0.891777
C3    C     C_R   0.875085 0.385961 0.498890 0.891779
C4    C     C_R   0.124915 0.614039 0.501109 0.891778
C5    C     C_R   0.624915 0.885961 0.501109 0.891777
C6    C     C_R   0.375085 0.114039 0.498890 0.891777
C7    C     C_R   0.375085 0.885961 0.498890 0.891779
C8    C     C_R   0.624915 0.114039 0.501109 0.891778
C9    C     C_R   0.002815 0.580169 0.071582 -0.033160
C10   C     C_R   0.997185 0.419831 0.928418 -0.033160
C11   C     C_R   0.002814 0.419831 0.071582 -0.033160
C12   C     C_R   0.997186 0.580169 0.928418 -0.033160
C13   C     C_R   0.502815 0.080169 0.071582 -0.033160
C14   C     C_R   0.497185 0.919831 0.928418 -0.033160
C15   C     C_R   0.502814 0.919831 0.071582 -0.033160
C16   C     C_R   0.497186 0.080169 0.928418 -0.033160
C17   C     C_R   0.778130 0.282190 0.375322 -0.045396
C18   C     C_R   0.221870 0.717810 0.624678 -0.045395
C19   C     C_R   0.232604 0.702115 0.380518 -0.072949
C20   C     C_R   0.767396 0.297885 0.619482 -0.072949
C21   C     C_R   0.221869 0.282189 0.624678 -0.045397
C22   C     C_R   0.778131 0.717811 0.375322 -0.045397
C23   C     C_R   0.767395 0.702114 0.619482 -0.072950
C24   C     C_R   0.232605 0.297885 0.380518 -0.072950
C25   C     C_R   0.278130 0.782190 0.375322 -0.045396
C26   C     C_R   0.721870 0.217810 0.624678 -0.045395
C27   C     C_R   0.732604 0.202115 0.380518 -0.072949
C28   C     C_R   0.267396 0.797885 0.619482 -0.072949
C29   C     C_R   0.721869 0.782189 0.624678 -0.045397
C30   C     C_R   0.278131 0.217811 0.375322 -0.045397
C31   C     C_R   0.267395 0.202114 0.619482 -0.072950
C32   C     C_R   0.732605 0.797886 0.380518 -0.072950
C33   C     C_R   0.197174 0.675009 0.503269 -0.169294
C34   C     C_R   0.802826 0.324991 0.496731 -0.169294
C35   C     C_R   0.802826 0.675009 0.496731 -0.169293
C36   C     C_R   0.197173 0.324991 0.503269 -0.169293
C37   C     C_R   0.697174 0.175009 0.503269 -0.169294
C38   C     C_R   0.302826 0.824991 0.496731 -0.169294
C39   C     C_R   0.302826 0.175009 0.496731 -0.169293
C40   C     C_R   0.697173 0.824991 0.503269 -0.169293
N1    N     N_R   0.000000 0.500000 0.857200 -0.168821
N2    N     N_R   0.000000 0.500000 0.142800 -0.168821
N3    N     N_R   0.500000 1.000000 0.857200 -0.168821
N4    N     N_R   0.500000 0.000000 0.142800 -0.168821
O1    O     O_R   0.091610 0.408380 0.614620 -0.580140
O2    O     O_R   0.908390 0.591620 0.385380 -0.580140
O3    O     O_R   0.908390 0.591620 0.614620 -0.618318
O4    O     O_R   0.091610 0.408380 0.385380 -0.618318
O5    O     O_R   0.908390 0.408380 0.385380 -0.580141
O6    O     O_R   0.091610 0.591620 0.614620 -0.580141
O7    O     O_R   0.091610 0.591620 0.385380 -0.618315
O8    O     O_R   0.908390 0.408380 0.614620 -0.618314
O9    O     O_R   0.591610 0.908380 0.614620 -0.580140
O10   O     O_R   0.408390 0.091620 0.385380 -0.580140
O11   O     O_R   0.408390 0.091620 0.614620 -0.618318
O12   O     O_R   0.591610 0.908380 0.385380 -0.618318
O13   O     O_R   0.408390 0.908380 0.385380 -0.580141
O14   O     O_R   0.591610 0.091620 0.614620 -0.580141
O15   O     O_R   0.591610 0.091620 0.385380 -0.618315
O16   O     O_R   0.408390 0.908380 0.614620 -0.618314
Zn1   Zn    Zn3+2 0.000000 0.500000 0.653120 1.029226
Zn2   Zn    Zn3+2 0.000000 0.500000 0.346880 1.029226
Zn3   Zn    Zn3+2 0.500000 0.000000 0.653120 1.029226
Zn4   Zn    Zn3+2 0.500000 0.000000 0.346880 1.029226
C41   C     C_2   0.023841 0.667984 0.138486 0.979335
O17   O     O_2   0.983403 0.695756 0.233049 -0.584948
O18   O     O_R   0.087371 0.722857 0.084985 -0.813493
H1    H     H_    0.095229 0.781893 0.136137 0.342278
C42   C     C_2   0.976159 0.332016 0.861514 0.979335
O19   O     O_2   0.016596 0.304244 0.766951 -0.584947
O20   O     O_R   0.912629 0.277143 0.915016 -0.813493
H2    H     H_    0.904771 0.218107 0.863863 0.342278
C43   C     C_2   0.023840 0.332016 0.138486 0.979346
O21   O     O_2   0.983400 0.304242 0.233044 -0.584949
O22   O     O_R   0.087371 0.277144 0.084988 -0.813495
H3    H     H_    0.095229 0.218108 0.136140 0.342277
C44   C     C_2   0.976160 0.667984 0.861514 0.979346
O23   O     O_2   0.016600 0.695758 0.766956 -0.584949
O24   O     O_R   0.912628 0.722855 0.915011 -0.813495
H4    H     H_    0.904770 0.781892 0.863860 0.342277
C45   C     C_2   0.523841 0.167984 0.138486 0.979335
O25   O     O_2   0.483403 0.195756 0.233049 -0.584948
O26   O     O_R   0.587371 0.222857 0.084985 -0.813493
H5    H     H_    0.595229 0.281893 0.136137 0.342278
C46   C     C_2   0.476159 0.832016 0.861514 0.979335
O27   O     O_2   0.516596 0.804244 0.766951 -0.584947
O28   O     O_R   0.412629 0.777143 0.915016 -0.813493
H6    H     H_    0.404771 0.718107 0.863863 0.342278
C47   C     C_2   0.523840 0.832016 0.138486 0.979346
O29   O     O_2   0.483400 0.804242 0.233044 -0.584949
O30   O     O_R   0.587371 0.777144 0.084988 -0.813495
H7    H     H_    0.595229 0.718108 0.136140 0.342277
C48   C     C_2   0.476160 0.167984 0.861514 0.979346
O31   O     O_2   0.516600 0.195758 0.766956 -0.584949
O32   O     O_R   0.412628 0.222856 0.915011 -0.813495
H8    H     H_    0.404770 0.281892 0.863860 0.342277
C49   C     C_1   0.791669 0.323236 0.244489 0.291754
N5    N     N_1   0.801475 0.356104 0.140233 -0.129787
C50   C     C_1   0.208331 0.676764 0.755511 0.291755
N6    N     N_1   0.198525 0.643896 0.859767 -0.129787
C51   C     C_1   0.229759 0.644712 0.261749 0.255688
N7    N     N_1   0.228418 0.599340 0.166816 -0.143555
C52   C     C_1   0.770241 0.355287 0.738251 0.255687
N8    N     N_1   0.771581 0.400660 0.833184 -0.143554
C53   C     C_1   0.208329 0.323234 0.755511 0.291753
N9    N     N_1   0.198522 0.356101 0.859768 -0.129786
C54   C     C_1   0.791671 0.676766 0.244489 0.291753
N10   N     N_1   0.801478 0.643899 0.140232 -0.129786
C55   C     C_1   0.770240 0.644711 0.738250 0.255688
N11   N     N_1   0.771580 0.599338 0.833182 -0.143554
C56   C     C_1   0.229760 0.355289 0.261750 0.255688
N12   N     N_1   0.228420 0.400662 0.166818 -0.143555
C57   C     C_1   0.291669 0.823236 0.244489 0.291754
N13   N     N_1   0.301475 0.856104 0.140233 -0.129787
C58   C     C_1   0.708331 0.176764 0.755511 0.291755
N14   N     N_1   0.698525 0.143896 0.859767 -0.129787
C59   C     C_1   0.729759 0.144712 0.261749 0.255688
N15   N     N_1   0.728418 0.099340 0.166816 -0.143555
C60   C     C_1   0.270241 0.855288 0.738251 0.255687
N16   N     N_1   0.271581 0.900660 0.833184 -0.143554
C61   C     C_1   0.708329 0.823234 0.755511 0.291753
N17   N     N_1   0.698522 0.856101 0.859768 -0.129786
C62   C     C_1   0.291671 0.176766 0.244489 0.291753
N18   N     N_1   0.301478 0.143899 0.140232 -0.129786
C63   C     C_1   0.270240 0.144711 0.738250 0.255688
N19   N     N_1   0.271580 0.099338 0.833182 -0.143554
C64   C     C_1   0.729760 0.855289 0.261750 0.255688
N20   N     N_1   0.728420 0.900662 0.166818 -0.143555

loop_
_geom_bond_atom_site_label_1
_geom_bond_atom_site_label_2
_ccdc_geom_bond_type
C2    C35   S    
O28   H6    S    
C48   O31   D    
O9    Zn3   S    
C43   O21   D    
C5    O12   A    
C56   N12   T    
N1    Zn1   S    
C6    O11   A    
C49   N5    T    
C3    O5    A    
N3    Zn3   S    
C62   N18   T    
C20   C52   S    
C44   O23   D    
N4    Zn4   S    
C22   C35   A    
C21   C31   A    
C16   C48   S    
C24   C36   A    
C22   C32   A    
O2    Zn2   S    
O16   Zn3   S    
O7    Zn2   S    
C23   C29   A    
C32   C64   S    
C5    O9    A    
C15   N4    A    
O8    Zn1   S    
C8    O15   A    
C58   N14   T    
C13   C45   S    
C11   N2    A    
C42   O20   S    
C26   C58   S    
C8    O14   A    
O32   H8    S    
C41   O18   S    
O11   Zn3   S    
C54   N10   T    
O12   Zn4   S    
C47   O30   S    
N2    Zn2   S    
C20   C34   A    
C44   O24   S    
C48   O32   S    
C10   N1    A    
C43   O22   S    
C24   C56   S    
C6    O10   A    
C45   O26   S    
C45   O25   D    
C24   C30   A    
C46   O28   S    
C23   C55   S    
C4    O7    A    
O18   H1    S    
C17   C27   A    
C51   N7    T    
C18   C28   A    
C19   C33   A    
O30   H7    S    
C21   C36   A    
C3    C34   S    
C46   O27   D    
C2    O2    A    
C4    O6    A    
O22   H3    S    
C12   N1    A    
C25   C57   S    
C25   C38   A    
C15   C47   S    
C18   C33   A    
O4    Zn2   S    
O26   H5    S    
C28   C38   A    
C60   N16   T    
C12   C44   S    
C9    N2    A    
C1    O4    A    
C16   N3    A    
C61   N17   T    
C23   C35   A    
C11   C43   S    
C63   N19   T    
C13   C16   A    
C8    C37   S    
C31   C63   S    
C64   N20   T    
C7    O16   A    
O13   Zn4   S    
C57   N13   T    
C27   C59   S    
O14   Zn3   S    
C4    C33   S    
O5    Zn2   S    
C6    C39   S    
C14   C46   S    
C28   C60   S    
C18   C50   S    
O3    Zn1   S    
C3    O8    A    
C26   C37   A    
C29   C61   S    
C2    O3    A    
C53   N9    T    
C50   N6    T    
O20   H2    S    
C59   N15   T    
C19   C51   S    
C1    O1    A    
C20   C26   A    
C27   C37   A    
C29   C40   A    
O1    Zn1   S    
C7    C38   S    
C31   C39   A    
C30   C39   A    
C32   C40   A    
C42   O19   D    
C19   C25   A    
C9    C12   A    
C9    C41   S    
C10   C11   A    
O24   H4    S    
C10   C42   S    
O15   Zn4   S    
C30   C62   S    
O10   Zn4   S    
C41   O17   D    
C17   C34   A    
C5    C40   S    
C52   N8    T    
O6    Zn1   S    
C14   C15   A    
C47   O29   D    
C55   N11   T    
C17   C49   S    
C7    O13   A    
C13   N4    A    
C21   C53   S    
C22   C54   S    
C1    C36   S    
C14   N3    A    
