data_mof_unit_24123.cif
_audit_creation_date              2012-12-10T17:24:14-0500
_audit_creation_method            fapswitch 2.2
_symmetry_space_group_name_H-M    P1
_symmetry_Int_Tables_number       1
_space_group_crystal_system       triclinic
_cell_length_a                    19.372663
_cell_length_b                    10.790322
_cell_length_c                    9.644875
_cell_angle_alpha                 90.554011
_cell_angle_beta                  89.148515
_cell_angle_gamma                 93.61441
_cell_volume                      2011.82884271

loop_
_atom_site_label
_atom_site_type_symbol
_atom_type_description
_atom_site_fract_x
_atom_site_fract_y
_atom_site_fract_z
_atom_type_partial_charge
C1    C     C_R   0.500268 0.263076 0.499461 0.795558
C2    C     C_R   0.290108 0.490883 0.504340 -0.395770
C3    C     C_R   0.928300 0.463246 0.489887 0.541665
C4    C     C_R   0.068097 0.473235 0.494771 0.566603
C5    C     C_R   0.815966 0.462981 0.617438 0.328977
C6    C     C_R   0.744097 0.464947 0.618632 0.598752
C7    C     C_R   0.707197 0.466812 0.494139 -0.366317
C8    C     C_R   0.743247 0.443184 0.368084 0.327403
C9    C     C_R   0.815809 0.443356 0.366206 0.356525
C10   C     C_R   0.852427 0.457174 0.490824 -0.313253
C11   C     C_R   0.376885 0.124035 0.591794 -0.201746
C12   C     C_R   0.367157 0.496578 0.501316 0.962194
C13   C     C_R   0.317574 0.057380 0.639372 0.640679
C14   C     C_R   0.315545 0.928610 0.642763 -0.218330
C15   C     C_R   0.372654 0.865592 0.598312 0.528782
C16   C     C_R   0.433945 0.930977 0.550282 -0.043614
C17   C     C_R   0.435866 0.062341 0.547672 -0.114953
C18   C     C_R   0.496340 0.129012 0.498875 -0.087919
C19   C     C_R   0.553727 0.067186 0.451610 0.364120
C20   C     C_R   0.551493 0.939036 0.452670 -0.131046
C21   C     C_R   0.492956 0.870624 0.501984 -0.122362
C22   C     C_R   0.609174 0.634225 0.141541 0.522659
C23   C     C_R   0.496376 0.736746 0.500648 0.969898
C24   C     C_R   0.672167 0.658189 0.074510 0.222479
C25   C     C_R   0.676099 0.645622 0.933344 0.617951
C26   C     C_R   0.614880 0.626303 0.859905 0.296895
C27   C     C_R   0.554020 0.565958 0.924844 -0.112744
C28   C     C_R   0.553042 0.566690 0.074442 -0.020023
C29   C     C_R   0.450789 0.435166 0.074426 -0.035142
C30   C     C_R   0.450773 0.434931 0.927144 0.767145
C31   C     C_R   0.631897 0.488800 0.498401 0.989013
C32   C     C_R   0.251309 0.513727 0.627684 0.362411
C33   C     C_R   0.178602 0.506271 0.625102 0.285245
C34   C     C_R   0.143957 0.477623 0.500461 -0.346488
C35   C     C_R   0.182063 0.453357 0.379943 0.589189
C36   C     C_R   0.254018 0.459812 0.381514 0.501230
Cu1   Cu    Cu3+1 0.500000 0.499990 0.640660 1.136041
Cu2   Cu    Cu3+1 0.500000 0.500010 0.359340 1.094900
H1    H     H_    0.375709 0.224047 0.588916 0.180355
H2    H     H_    0.269161 0.876860 0.679036 0.223263
H3    H     H_    0.596563 0.892323 0.417492 0.241900
H4    H     H_    0.410635 0.380855 0.129724 0.207005
N1    N     N_R   0.032328 0.376434 0.432455 -0.106372
N2    N     N_R   0.963532 0.371394 0.430299 -0.124418
N3    N     N_R   0.964072 0.560689 0.550600 -0.126503
N4    N     N_R   0.032781 0.565690 0.552744 -0.136323
N5    N     N_R   0.500660 0.501210 0.147910 -0.198965
N6    N     N_R   0.500680 0.501290 0.852040 -0.210901
O1    O     O_R   0.499990 0.319640 0.618810 -0.561850
O2    O     O_R   0.500000 0.319660 0.381240 -0.571663
O3    O     O_R   0.400140 0.499970 0.618820 -0.484495
O4    O     O_R   0.400150 0.500000 0.381250 -0.554285
O5    O     O_R   0.500000 0.680340 0.618760 -0.508921
O6    O     O_R   0.500010 0.680360 0.381190 -0.523406
O7    O     O_R   0.599850 0.500000 0.618750 -0.531413
O8    O     O_R   0.599860 0.500030 0.381180 -0.506752
Cl1   Cl    Cl    0.290724 0.554198 0.787921 -0.327545
F1    F     F_    0.261614 0.118067 0.681350 -0.579298
F2    F     F_    0.366519 0.740786 0.601303 -0.669759
F3    F     F_    0.604313 0.692654 0.263934 -0.618438
Cl2   Cl    Cl    0.743861 0.724252 0.165532 -0.312989
F4    F     F_    0.735958 0.685062 0.867235 -0.496625
Cl3   Cl    Cl    0.616544 0.742789 0.734007 -0.489847
Cl4   Cl    Cl    0.131066 0.526786 0.781241 -0.316334
F5    F     F_    0.401182 0.364459 0.860193 -0.604098
F6    F     F_    0.149412 0.425580 0.258831 -0.519088
F7    F     F_    0.288066 0.434160 0.261589 -0.571889
Cl5   Cl    Cl    0.858801 0.463024 0.777822 -0.276547
F8    F     F_    0.710345 0.457154 0.742403 -0.586873
Cl6   Cl    Cl    0.699737 0.397010 0.214258 -0.416455
Cl7   Cl    Cl    0.860643 0.430491 0.205846 -0.293742
Cl8   Cl    Cl    0.630901 0.147501 0.395865 -0.483337

loop_
_geom_bond_atom_site_label_1
_geom_bond_atom_site_label_2
_ccdc_geom_bond_type
C27   N6    A    
C26   C27   A    
C6    F8    S    
C26   Cl3   S    
C28   N5    A    
C29   C30   A    
Cu2   O2    S    
C4    N1    A    
C29   H4    S    
Cu1   O1    S    
C9    C10   A    
C8    Cl6   S    
C19   C20   A    
Cu2   O6    S    
N1    N2    A    
Cu1   O5    S    
C32   C33   A    
C21   C23   S    
C20   H3    S    
C1    C18   S    
C36   F7    S    
C2    C12   S    
C7    C8    A    
C3    C10   S    
C22   C28   A    
N3    N4    A    
C24   C25   A    
Cu1   N6    S    
C11   H1    S    
C11   C13   A    
Cu2   N5    S    
C6    C7    A    
C15   F2    S    
C32   Cl1   S    
C29   N5    A    
C33   Cl4   S    
C2    C32   A    
Cu2   O4    S    
C30   N6    A    
C12   O4    A    
Cu1   Cu2   S    
C33   C34   A    
C23   O5    A    
C31   O8    A    
C22   C24   A    
C25   F4    S    
C5    Cl5   S    
C24   Cl2   S    
C22   F3    S    
C5    C6    A    
Cu1   O3    S    
C4    C34   S    
C3    N2    A    
C30   F5    S    
C7    C31   S    
C14   H2    S    
C15   C16   A    
Cu1   O7    S    
C5    C10   A    
C12   O3    A    
Cu2   O8    S    
C20   C21   A    
C23   O6    A    
C17   C18   A    
C34   C35   A    
C1    O2    A    
C2    C36   A    
C27   C28   A    
C16   C21   A    
C14   C15   A    
C18   C19   A    
C4    N4    A    
C13   F1    S    
C35   F6    S    
C31   O7    A    
C25   C26   A    
C13   C14   A    
C1    O1    A    
C3    N3    A    
C11   C17   A    
C19   Cl8   S    
C9    Cl7   S    
C16   C17   A    
C8    C9    A    
C35   C36   A    
