data_mof_unit_57689.cif
_audit_creation_date              2012-12-11T15:36:45-0500
_audit_creation_method            fapswitch 2.2
_symmetry_space_group_name_H-M    P1
_symmetry_Int_Tables_number       1
_space_group_crystal_system       triclinic
_cell_length_a                    15.080414
_cell_length_b                    15.072205
_cell_length_c                    34.762199
_cell_angle_alpha                 91.370751
_cell_angle_beta                  92.217583
_cell_angle_gamma                 59.94424
_cell_volume                      6833.64285883

loop_
_atom_site_label
_atom_site_type_symbol
_atom_type_description
_atom_site_fract_x
_atom_site_fract_y
_atom_site_fract_z
_atom_type_partial_charge
C1    C     C_R   0.610434 0.302727 0.443747 0.554023
C2    C     C_R   0.736601 0.664428 0.179274 0.015453
C3    C     C_R   0.625193 0.128105 0.827279 0.053575
C4    C     C_R   0.691687 0.153018 0.847881 -0.111773
C5    C     C_R   0.715987 0.126989 0.886446 -0.111913
C6    C     C_R   0.598758 0.233639 0.769982 -0.164311
C7    C     C_R   0.606751 0.243820 0.730475 0.312145
C8    C     C_R   0.627208 0.160977 0.705832 0.106965
C9    C     C_R   0.640693 0.069262 0.720538 -0.046765
C10   C     C_R   0.631650 0.059255 0.760138 0.307805
C11   C     C_R   0.614604 0.141261 0.785105 0.001837
C12   C     C_R   0.553930 0.182645 0.638445 0.027076
C13   C     C_R   0.827048 0.650559 0.164146 -0.136132
C14   C     C_R   0.553792 0.209429 0.599924 0.237471
C15   C     C_R   0.709030 0.217368 0.613036 -0.192629
C16   C     C_R   0.716192 0.181561 0.650362 0.011309
C17   C     C_R   0.634415 0.171269 0.664154 0.044553
C18   C     C_R   0.625697 0.237105 0.588401 0.013790
C19   C     C_R   0.047297 0.738305 0.048359 0.515777
C20   C     C_R   0.746667 0.744694 0.063398 0.593561
C21   C     C_R   0.750979 0.040792 0.050528 0.552043
C22   C     C_R   0.017828 0.721953 0.939928 0.550799
C23   C     C_R   0.716634 0.730313 0.954802 0.588676
C24   C     C_R   0.829357 0.672456 0.125812 -0.148218
C25   C     C_R   0.721237 0.024340 0.942013 0.532239
C26   C     C_R   0.707940 0.581627 0.234774 -0.070693
C27   C     C_R   0.703048 0.571805 0.274527 0.304701
C28   C     C_R   0.717075 0.638103 0.300053 -0.007275
C29   C     C_R   0.744512 0.708038 0.286166 -0.016462
C30   C     C_R   0.751739 0.714433 0.246412 -0.094984
C31   C     C_R   0.732170 0.652768 0.220782 -0.043260
C32   C     C_R   0.601422 0.721223 0.354081 -0.128190
C33   C     C_R   0.593660 0.611503 0.449796 0.552230
C34   C     C_R   0.572203 0.721764 0.391790 0.011548
C35   C     C_R   0.730441 0.559832 0.402766 -0.155179
C36   C     C_R   0.759287 0.561450 0.365381 -0.115513
C37   C     C_R   0.692907 0.640092 0.340608 0.034375
C38   C     C_R   0.633762 0.635147 0.415593 0.035994
C39   C     C_R   0.109779 0.725769 0.084228 -0.061858
C40   C     C_R   0.119238 0.652274 0.110699 -0.153436
C41   C     C_R   0.150969 0.653616 0.148503 -0.137044
C42   C     C_R   0.172838 0.729186 0.161310 0.029050
C43   C     C_R   0.171558 0.799533 0.134943 0.291519
C44   C     C_R   0.305069 0.591158 0.441883 0.544762
C45   C     C_R   0.145295 0.794451 0.095431 0.008195
C46   C     C_R   0.283956 0.694059 0.221702 0.027925
C47   C     C_R   0.292201 0.681825 0.261917 -0.017734
C48   C     C_R   0.204913 0.712309 0.283545 0.046812
C49   C     C_R   0.107737 0.763330 0.265646 -0.020865
C50   C     C_R   0.097404 0.775797 0.225433 0.275091
C51   C     C_R   0.185839 0.737984 0.203363 0.016215
C52   C     C_R   0.241249 0.585224 0.335960 -0.003459
C53   C     C_R   0.262234 0.557601 0.374940 -0.162010
C54   C     C_R   0.226478 0.728227 0.392250 -0.148903
C55   C     C_R   0.606600 0.298494 0.553246 0.568958
C56   C     C_R   0.205810 0.758686 0.353613 -0.006401
C57   C     C_R   0.215830 0.685905 0.324832 0.039761
C58   C     C_R   0.258070 0.627380 0.403080 0.006047
C59   C     C_R   0.722372 0.100564 0.086620 -0.025342
C60   C     C_R   0.800179 0.093984 0.111965 -0.146154
C61   C     C_R   0.779468 0.124878 0.150389 0.269101
C62   C     C_R   0.680200 0.160733 0.163856 -0.041988
C63   C     C_R   0.600795 0.175145 0.137942 -0.137586
C64   C     C_R   0.620521 0.147785 0.099241 0.256681
C65   C     C_R   0.594356 0.268610 0.222506 0.027699
C66   C     C_R   0.588785 0.606761 0.558834 0.546679
C67   C     C_R   0.585013 0.275457 0.263233 0.047933
C68   C     C_R   0.638451 0.184601 0.285485 -0.002261
C69   C     C_R   0.698275 0.090060 0.267480 -0.093359
C70   C     C_R   0.711231 0.084480 0.228105 -0.071129
C71   C     C_R   0.661737 0.172825 0.205526 -0.005231
C72   C     C_R   0.729478 0.180196 0.347850 -0.002880
C73   C     C_R   0.722044 0.213840 0.386576 0.294488
C74   C     C_R   0.549682 0.239572 0.387737 -0.213764
C75   C     C_R   0.554185 0.210293 0.349094 -0.009197
C76   C     C_R   0.641572 0.188483 0.328157 -0.047608
C77   C     C_R   0.296779 0.590226 0.551478 0.563574
C78   C     C_R   0.629897 0.247517 0.406199 -0.002153
C79   C     C_R   0.688612 0.695633 0.918451 0.033901
C80   C     C_R   0.741617 0.592781 0.905210 0.222609
C81   C     C_R   0.722695 0.569065 0.866964 0.069581
C82   C     C_R   0.658205 0.650760 0.841810 0.070448
C83   C     C_R   0.601886 0.750282 0.856194 -0.183610
C84   C     C_R   0.614883 0.771995 0.894100 -0.180331
C85   C     C_R   0.577357 0.642400 0.778584 0.214407
C86   C     C_R   0.576894 0.640183 0.737906 -0.007141
C87   C     C_R   0.659109 0.638899 0.718722 -0.031692
C88   C     C_R   0.741119 0.709002 0.101753 0.042976
C89   C     C_R   0.738717 0.640791 0.740094 -0.075785
C90   C     C_R   0.739989 0.641038 0.780284 0.267858
C91   C     C_R   0.660146 0.640182 0.799553 0.093777
C92   C     C_R   0.725297 0.542741 0.655980 0.047157
C93   C     C_R   0.706052 0.538658 0.616402 -0.134439
C94   C     C_R   0.570767 0.716208 0.616688 -0.110255
C95   C     C_R   0.590489 0.722617 0.655883 -0.100751
C96   C     C_R   0.662965 0.635240 0.676287 0.084910
C97   C     C_R   0.625146 0.622748 0.597051 0.020293
C98   C     C_R   0.066942 0.696400 0.902325 -0.013986
C99   C     C_R   0.650344 0.717689 0.116285 0.001627
C100  C     C_R   0.098271 0.759781 0.885219 0.227568
C101  C     C_R   0.120078 0.748625 0.845764 0.049385
C102  C     C_R   0.116192 0.668912 0.824437 -0.012551
C103  C     C_R   0.091976 0.601055 0.842480 -0.040137
C104  C     C_R   0.070545 0.614271 0.881444 -0.154530
C105  C     C_R   0.230841 0.595798 0.768758 0.243398
C106  C     C_R   0.244362 0.587912 0.728706 -0.006639
C107  C     C_R   0.157342 0.643218 0.703587 -0.019201
C108  C     C_R   0.058239 0.702869 0.718365 0.020215
C109  C     C_R   0.047432 0.709520 0.758117 -0.087194
C110  C     C_R   0.649271 0.695706 0.155265 -0.131487
C111  C     C_R   0.132518 0.658241 0.782961 0.034840
C112  C     C_R   0.195892 0.719394 0.647964 -0.031452
C113  C     C_R   0.226645 0.710133 0.609388 0.020287
C114  C     C_R   0.194955 0.567298 0.599801 -0.111421
C115  C     C_R   0.166667 0.574313 0.637988 0.292423
C116  C     C_R   0.171629 0.647279 0.662224 0.022733
C117  C     C_R   0.234076 0.627503 0.586296 -0.024043
C118  C     C_R   0.674525 0.075188 0.905153 0.017080
C119  C     C_R   0.601101 0.058122 0.885540 -0.135957
C120  C     C_R   0.576658 0.084335 0.846726 -0.080212
Cr1   Cr    Cr6+3 0.426010 0.422500 0.497000 1.050600
Cr2   Cr    Cr6+3 0.651300 0.426310 0.501970 1.031357
Cr3   Cr    Cr6+3 0.422670 0.651170 0.501050 1.104082
Cr4   Cr    Cr6+3 0.905130 0.911420 0.992650 1.053613
Cr5   Cr    Cr6+3 0.911860 0.682710 0.002320 1.026479
Cr6   Cr    Cr6+3 0.682710 0.906840 0.004710 1.087732
H1    H     H_    0.895289 0.625170 0.182351 0.113031
H2    H     H_    0.781736 0.496231 0.421043 0.115065
H3    H     H_    0.095578 0.597008 0.102982 0.149077
H4    H     H_    0.366705 0.645562 0.276505 0.201122
H5    H     H_    0.152247 0.599089 0.168619 0.153662
H6    H     H_    0.040776 0.791156 0.283028 0.140290
H7    H     H_    0.899498 0.665201 0.115377 0.130451
H8    H     H_    0.287177 0.479381 0.383125 0.108896
H9    H     H_    0.222913 0.782586 0.414015 0.129432
H10   H     H_    0.878685 0.057779 0.102851 0.149449
H11   H     H_    0.831668 0.499809 0.355386 0.109330
H12   H     H_    0.739615 0.021069 0.284435 0.189518
H13   H     H_    0.760698 0.010590 0.215034 0.157009
H14   H     H_    0.524161 0.203218 0.148115 0.162736
H15   H     H_    0.480149 0.261650 0.402954 0.128599
H16   H     H_    0.572769 0.851337 0.903275 0.141929
H17   H     H_    0.542992 0.793742 0.671086 0.103570
H18   H     H_    0.801458 0.639643 0.725449 0.168210
H19   H     H_    0.749727 0.466549 0.601237 0.114049
H20   H     H_    0.552033 0.813115 0.837236 0.100976
H21   H     H_    0.508697 0.782537 0.602395 0.132102
H22   H     H_    0.691847 0.534765 0.214831 0.142962
H23   H     H_    0.050936 0.563080 0.895065 0.169916
H24   H     H_    0.972791 0.757159 0.770146 0.160163
H25   H     H_    0.579805 0.704757 0.167210 0.136995
H26   H     H_    0.192489 0.509864 0.581238 0.141398
H27   H     H_    0.567665 0.018721 0.899397 0.119456
H28   H     H_    0.772108 0.141903 0.900966 0.145989
H29   H     H_    0.582323 0.297019 0.789297 0.106372
H30   H     H_    0.523248 0.066701 0.831543 0.137776
H31   H     H_    0.659337 0.005616 0.701050 0.133560
H32   H     H_    0.729867 0.187079 0.833542 0.138054
H33   H     H_    0.767072 0.233767 0.603684 0.127628
H34   H     H_    0.769522 0.769744 0.235101 0.145741
H35   H     H_    0.552704 0.784197 0.334940 0.121558
O1    O     O_R   0.324990 0.503440 0.453910 -0.518750
O2    O     O_R   0.639980 0.519500 0.542640 -0.504696
O3    O     O_R   0.500750 0.673190 0.545480 -0.499435
O4    O     O_R   0.336260 0.640450 0.538210 -0.458663
O5    O     O_3   0.499990 0.499990 0.500010 -0.264474
O6    O     O_R   0.834210 0.019400 0.034570 -0.523413
O7    O     O_R   0.002210 0.824620 0.031030 -0.510881
O8    O     O_R   0.024400 0.669340 0.039790 -0.513583
O9    O     O_R   0.830490 0.694950 0.045870 -0.508456
O10   O     O_R   0.675430 0.831160 0.051290 -0.451390
O11   O     O_R   0.698870 0.998880 0.039560 -0.447342
O12   O     O_R   0.522030 0.339050 0.458320 -0.518740
O13   O     O_R   0.811290 0.006780 0.950620 -0.497599
O14   O     O_R   0.980960 0.812920 0.953200 -0.439966
O15   O     O_R   0.001480 0.656720 0.955830 -0.550116
O16   O     O_R   0.809240 0.683250 0.968050 -0.477689
O17   O     O_R   0.652500 0.818540 0.967340 -0.511267
O18   O     O_R   0.677620 0.987170 0.961730 -0.510113
O19   O     O_3   0.833240 0.833660 0.999890 -0.266654
O20   O     O_R   0.676180 0.324490 0.458320 -0.470354
O21   O     O_R   0.643570 0.521510 0.464260 -0.523254
O22   O     O_R   0.504630 0.675350 0.460920 -0.457484
O23   O     O_R   0.339850 0.642450 0.459830 -0.494350
O24   O     O_R   0.321120 0.501280 0.538470 -0.504283
O25   O     O_R   0.518440 0.337050 0.536710 -0.439082
O26   O     O_R   0.672300 0.322330 0.542880 -0.523294
C121  C     C_2   0.556270 0.746969 0.092277 0.243311
H36   H     H_    0.484291 0.770672 0.106065 0.129486
O27   O     O_2   0.558186 0.741172 0.057208 -0.475696
C122  C     C_2   0.477766 0.814340 0.404278 0.247087
H37   H     H_    0.414013 0.854613 0.383877 0.100603
O28   O     O_2   0.472931 0.850749 0.436402 -0.475047
C123  C     C_2   0.158815 0.856332 0.065844 0.259082
H38   H     H_    0.156984 0.838561 0.035518 0.105070
O29   O     O_2   0.175017 0.925921 0.074668 -0.467695
C124  C     C_2   0.178499 0.866145 0.345286 0.250933
H39   H     H_    0.171081 0.917489 0.368968 0.131928
O30   O     O_2   0.164413 0.899200 0.312576 -0.486493
C125  C     C_2   0.377700 0.658287 0.199144 0.299188
H40   H     H_    0.372972 0.661465 0.167959 0.112805
O31   O     O_2   0.461724 0.625570 0.215152 -0.475133
O32   O     O_3   0.002175 0.828690 0.206598 -0.564835
C126  C     C_3   0.937077 0.792364 0.217472 -0.129942
H41   H     H_    0.898340 0.830792 0.244369 0.168387
H42   H     H_    0.978049 0.707412 0.220632 0.120560
H43   H     H_    0.876754 0.813003 0.194574 0.139421
C127  C     C_2   0.250267 0.504380 0.308232 0.235082
H44   H     H_    0.281292 0.426333 0.318187 0.101154
O33   O     O_2   0.222045 0.522914 0.274537 -0.488814
O34   O     O_3   0.201177 0.868932 0.147478 -0.549666
C128  C     C_3   0.113489 0.960061 0.159023 -0.029207
H45   H     H_    0.052633 0.991308 0.135887 0.157069
H46   H     H_    0.135785 0.018768 0.165551 0.150652
H47   H     H_    0.082503 0.948282 0.185669 0.176511
O35   O     O_3   0.541359 0.156879 0.075170 -0.535289
C129  C     C_3   0.505425 0.246287 0.053061 -0.104353
H48   H     H_    0.565811 0.240886 0.034115 0.109433
H49   H     H_    0.476417 0.315801 0.071734 0.116140
H50   H     H_    0.440496 0.255098 0.034201 0.148793
C130  C     C_2   0.463757 0.207999 0.331599 0.233608
H51   H     H_    0.393929 0.238317 0.347612 0.091041
O36   O     O_2   0.466174 0.170577 0.299855 -0.468498
C131  C     C_2   0.525908 0.376256 0.283202 0.281826
H52   H     H_    0.492377 0.381591 0.310735 0.085713
O37   O     O_2   0.517213 0.454426 0.269896 -0.422989
C132  C     C_2   0.534495 0.359028 0.197230 0.280533
H53   H     H_    0.569423 0.369603 0.172335 0.082726
O38   O     O_2   0.444140 0.419241 0.202770 -0.445125
O39   O     O_3   0.859276 0.108119 0.175644 -0.561133
C133  C     C_3   0.864276 0.198934 0.178335 -0.138383
H54   H     H_    0.792318 0.263822 0.189633 0.106995
H55   H     H_    0.881313 0.219175 0.150030 0.119907
H56   H     H_    0.927683 0.186225 0.198862 0.143624
C134  C     C_2   0.828071 0.139550 0.327730 0.226756
H57   H     H_    0.828850 0.147712 0.296870 0.098606
O40   O     O_2   0.910160 0.094471 0.345431 -0.437686
O41   O     O_3   0.804398 0.214752 0.405249 -0.496217
C135  C     C_3   0.807933 0.302049 0.393569 -0.059306
H58   H     H_    0.731384 0.372996 0.394193 0.114375
H59   H     H_    0.839279 0.291486 0.364409 0.121845
H60   H     H_    0.860343 0.313045 0.413795 0.142208
O42   O     O_3   0.807488 0.515945 0.930315 -0.583300
C136  C     C_3   0.909577 0.486542 0.922042 -0.082884
H61   H     H_    0.920074 0.553739 0.918925 0.152395
H62   H     H_    0.935015 0.438572 0.895631 0.146010
H63   H     H_    0.960374 0.440084 0.946316 0.146041
O43   O     O_3   0.673965 0.505387 0.288657 -0.507212
C137  C     C_3   0.752084 0.403436 0.282206 -0.096145
H64   H     H_    0.828555 0.389969 0.292735 0.091025
H65   H     H_    0.754110 0.382164 0.251295 0.112361
H66   H     H_    0.734995 0.351833 0.298566 0.128337
C138  C     C_2   0.489862 0.638767 0.716625 0.229247
H67   H     H_    0.417397 0.666452 0.730433 0.127438
O44   O     O_2   0.498039 0.604600 0.683954 -0.488373
O45   O     O_3   0.503207 0.634214 0.797925 -0.557244
C139  C     C_3   0.417723 0.732618 0.803948 -0.121363
H68   H     H_    0.347526 0.726973 0.799935 0.203069
H69   H     H_    0.410408 0.792755 0.783836 0.082905
H70   H     H_    0.419910 0.757429 0.834083 0.136347
C140  C     C_2   0.768480 0.459905 0.854513 0.277040
H71   H     H_    0.810114 0.398821 0.875177 0.131789
O46   O     O_2   0.758398 0.436189 0.821488 -0.489771
O47   O     O_3   0.823272 0.634619 0.800923 -0.538678
C141  C     C_3   0.811655 0.733257 0.803748 -0.110614
H72   H     H_    0.741313 0.787170 0.819226 0.147793
H73   H     H_    0.810984 0.763893 0.774893 0.173235
H74   H     H_    0.877561 0.728294 0.820815 0.144486
C142  C     C_2   0.805883 0.446099 0.674376 0.215135
H75   H     H_    0.847002 0.377588 0.656865 0.096887
O48   O     O_2   0.828070 0.440466 0.708680 -0.483474
O49   O     O_3   0.099118 0.838711 0.906117 -0.565262
C143  C     C_3   0.192953 0.798241 0.927232 -0.116812
H76   H     H_    0.259331 0.763529 0.907848 0.106893
H77   H     H_    0.200675 0.741030 0.948721 0.117069
H78   H     H_    0.194942 0.861735 0.943293 0.152688
O50   O     O_3   0.131898 0.512332 0.652415 -0.573480
C144  C     C_3   0.203687 0.407660 0.646438 -0.073187
H79   H     H_    0.284286 0.389697 0.651775 0.193648
H80   H     H_    0.193735 0.383116 0.616993 0.119102
H81   H     H_    0.189037 0.361734 0.667046 0.170013
C145  C     C_2   0.350605 0.524034 0.714572 0.267616
H82   H     H_    0.415379 0.497451 0.734706 0.183188
O51   O     O_2   0.368076 0.498668 0.680890 -0.465676
O52   O     O_3   0.314721 0.553018 0.794199 -0.575581
C146  C     C_3   0.342634 0.450461 0.801537 -0.128693
H83   H     H_    0.351233 0.405334 0.774712 0.122149
H84   H     H_    0.286985 0.446871 0.820373 0.133847
H85   H     H_    0.417706 0.413295 0.817338 0.152996
C147  C     C_2   0.142960 0.823934 0.827942 0.248176
H86   H     H_    0.158960 0.874147 0.846069 0.144542
O53   O     O_2   0.142426 0.833066 0.793134 -0.521478
C148  C     C_2   0.966020 0.760780 0.692690 0.272376
H87   H     H_    0.972472 0.756886 0.661663 0.124769
O54   O     O_2   0.881104 0.813748 0.705909 -0.520869
C149  C     C_2   0.189697 0.802371 0.674137 0.224921
H88   H     H_    0.201363 0.790320 0.704983 0.145005
O55   O     O_2   0.167593 0.886436 0.661872 -0.483462
C150  C     C_2   0.255723 0.783243 0.594600 0.332474
H89   H     H_    0.308849 0.799062 0.611137 0.134711
O56   O     O_2   0.217078 0.829447 0.564633 -0.475154
C151  C     C_2   0.083343 0.519226 0.820546 0.251266
H90   H     H_    0.098273 0.507783 0.790044 0.127406
O57   O     O_2   0.059180 0.463219 0.836324 -0.490773
C152  C     C_2   0.808678 0.160159 0.674264 0.261766
H91   H     H_    0.858551 0.187742 0.665073 0.115572
O58   O     O_2   0.832433 0.109111 0.703556 -0.472266
O59   O     O_3   0.590324 0.334823 0.714660 -0.557171
C153  C     C_3   0.647926 0.372241 0.734922 -0.062155
H92   H     H_    0.726188 0.310166 0.743751 0.168663
H93   H     H_    0.605964 0.418439 0.760251 0.159683
H94   H     H_    0.657649 0.423721 0.715562 0.203041
O60   O     O_3   0.650089 0.967127 0.775521 -0.580472
C154  C     C_3   0.590200 0.931231 0.755880 -0.152763
H95   H     H_    0.628893 0.887636 0.729629 0.134113
H96   H     H_    0.510995 0.994076 0.748594 0.140821
H97   H     H_    0.582841 0.877446 0.774917 0.109127
C155  C     C_2   0.465681 0.172427 0.650752 0.208423
H98   H     H_    0.422057 0.154434 0.629638 0.142792
O61   O     O_2   0.437511 0.187958 0.683912 -0.544179
C156  C     C_2   0.765341 0.774366 0.312910 0.228044
H99   H     H_    0.763373 0.767753 0.343821 0.130859
O62   O     O_2   0.785893 0.837011 0.300792 -0.552651
O63   O     O_3   0.475113 0.220664 0.574950 -0.569417
C157  C     C_3   0.512287 0.132038 0.551641 -0.117239
H100  H     H_    0.538358 0.062067 0.569295 0.102165
H101  H     H_    0.575337 0.123100 0.533391 0.126593
H102  H     H_    0.448945 0.139730 0.532092 0.154761

loop_
_geom_bond_atom_site_label_1
_geom_bond_atom_site_label_2
_ccdc_geom_bond_type
C20   O9    A    
C123  O29   D    
C114  H26   S    
C114  C115  A    
Cr4   O14   S    
C86   C138  S    
Cr1   O5    S    
C145  H82   S    
C29   C156  S    
C66   C97   S    
C21   C59   S    
C106  C107  A    
C143  H78   S    
C56   C57   A    
C124  O30   D    
Cr3   O22   S    
Cr4   O7    S    
Cr1   O12   S    
C35   C36   A    
O63   C157  S    
Cr6   O19   S    
C138  H67   S    
Cr5   O8    S    
C136  H61   S    
C6    H29   S    
C59   C60   A    
C119  H27   S    
C131  H52   S    
C102  C111  S    
C9    C10   A    
C101  C147  S    
C122  H37   S    
C6    C11   A    
C41   H5    S    
C1    O20   A    
C72   C73   A    
C94   C97   A    
C154  H95   S    
C99   C110  A    
C82   C91   S    
C32   C34   A    
C75   C76   A    
C132  H53   S    
C84   H16   S    
C53   C58   A    
C61   O39   S    
C26   H22   S    
C149  H88   S    
C142  O48   D    
C90   C91   A    
C138  O44   D    
C45   C123  S    
C146  H85   S    
C8    C17   S    
C4    C5    A    
C108  C148  S    
C6    C7    A    
C21   O11   A    
C33   C38   S    
C136  H63   S    
C146  H84   S    
Cr6   O17   S    
C133  H56   S    
C69   C70   A    
C23   O16   A    
C88   C99   A    
Cr6   O11   S    
C13   H1    S    
C10   O60   S    
C128  H45   S    
C125  O31   D    
C156  H99   S    
C33   O21   A    
C121  H36   S    
C139  H69   S    
O42   C136  S    
C15   C18   A    
C40   H3    S    
C81   C140  S    
C22   C98   S    
C22   O14   A    
O60   C154  S    
C7    C8    A    
C85   C86   A    
C108  C109  A    
C1    O12   A    
C137  H64   S    
C148  H87   S    
C36   C37   A    
C109  C111  A    
C140  H71   S    
Cr4   O13   S    
C77   O4    A    
C115  C116  A    
C92   C96   A    
C65   C132  S    
C121  O27   D    
C139  H68   S    
C157  H101  S    
C155  O61   D    
O47   C141  S    
C152  O58   D    
C107  C108  A    
C90   O47   S    
C36   H11   S    
C60   H10   S    
C39   C45   A    
O50   C144  S    
C87   C96   S    
C157  H100  S    
C153  H93   S    
C151  O57   D    
C35   C38   A    
C3    C11   S    
C39   C40   A    
C14   O63   S    
C127  H44   S    
C129  H48   S    
C46   C51   A    
C105  O52   S    
C106  C145  S    
C29   C30   A    
C43   C45   A    
C83   C84   A    
C128  H47   S    
C66   O3    A    
C135  H59   S    
C32   C37   A    
C141  H73   S    
C18   C55   S    
C113  C117  A    
C132  O38   D    
C74   H15   S    
C152  H91   S    
C3    C4    A    
C93   C97   A    
C112  C116  A    
C43   O34   S    
C52   C53   A    
Cr3   O23   S    
C69   H12   S    
C137  H66   S    
C12   C14   A    
C68   C76   S    
C145  O51   D    
C80   O42   S    
C5    C118  A    
C139  H70   S    
C109  H24   S    
C73   O41   S    
C28   C37   S    
C54   H9    S    
C100  C101  A    
C143  H77   S    
C136  H62   S    
C62   C71   S    
C102  C103  A    
C107  C116  S    
C114  C117  A    
C10   C11   A    
C63   C64   A    
C126  H41   S    
C49   C50   A    
C144  H79   S    
Cr5   O15   S    
C95   H17   S    
C101  C102  A    
C41   C42   A    
C135  H58   S    
C25   C118  S    
C50   O32   S    
C129  H50   S    
C26   C27   A    
C28   C29   A    
C30   C31   A    
C154  H96   S    
C5    H28   S    
C120  H30   S    
C77   O24   A    
C147  H86   S    
C55   O25   A    
Cr1   O25   S    
Cr3   O5    S    
Cr2   O20   S    
C44   C58   S    
C16   C17   A    
C65   C67   A    
C144  H81   S    
C12   C17   A    
C134  H57   S    
C70   C71   A    
C61   C62   A    
C154  H97   S    
C149  O55   D    
C123  H38   S    
C105  C111  A    
C70   H13   S    
C113  C150  S    
C52   C127  S    
C142  H75   S    
C1    C78   S    
C44   O1    A    
C99   C121  S    
C49   H6    S    
C67   C68   A    
C112  C149  S    
C48   C57   S    
C110  H25   S    
O41   C135  S    
C86   C87   A    
C60   C61   A    
C104  H23   S    
C150  H89   S    
C122  O28   D    
C15   H33   S    
O52   C146  S    
Cr4   O6    S    
O34   C128  S    
C126  H43   S    
C9    H31   S    
Cr5   O19   S    
C50   C51   A    
Cr6   O18   S    
C133  H55   S    
Cr5   O9    S    
C24   C88   A    
C48   C49   A    
C128  H46   S    
C98   C100  A    
C42   C43   A    
O43   C137  S    
C56   C124  S    
C100  O49   S    
C46   C47   A    
C2    C110  A    
C85   O45   S    
C53   H8    S    
C22   O15   A    
C119  C120  A    
C25   O18   A    
C89   H18   S    
C105  C106  A    
C21   O6    A    
C72   C134  S    
O39   C133  S    
C27   O43   S    
Cr3   O3    S    
Cr2   O26   S    
C79   C84   A    
Cr1   O1    S    
C20   C88   S    
C92   C93   A    
C35   H2    S    
C52   C57   A    
C20   O10   A    
C130  O36   D    
C82   C83   A    
C74   C78   A    
C103  C104  A    
C67   C131  S    
C89   C90   A    
C24   H7    S    
O32   C126  S    
Cr2   O5    S    
C12   C155  S    
C63   H14   S    
C14   C18   A    
C95   C96   A    
C72   C76   A    
C81   C82   A    
C85   C91   A    
C153  H92   S    
C30   H34   S    
C59   C64   A    
C62   C63   A    
C34   C122  S    
C77   C117  S    
C146  H83   S    
C15   C16   A    
C83   H20   S    
C2    C13   A    
C118  C119  A    
C23   O17   A    
Cr6   O10   S    
C68   C69   A    
C25   O13   A    
C4    H32   S    
C8    C9    A    
C156  O62   D    
C33   O22   A    
C73   C78   A    
C93   H19   S    
C55   O26   A    
C141  H72   S    
C44   O23   A    
C42   C51   S    
C115  O50   S    
C26   C31   A    
C134  O40   D    
C124  H39   S    
C112  C113  A    
C54   C56   A    
C137  H65   S    
C74   C75   A    
C47   H4    S    
O35   C129  S    
C140  O46   D    
C125  H40   S    
C65   C71   A    
Cr2   O2    S    
C13   C24   A    
C2    C31   S    
C103  C151  S    
C157  H102  S    
C155  H98   S    
C130  H51   S    
C46   C125  S    
C47   C48   A    
O45   C139  S    
C143  H76   S    
C94   C95   A    
C16   C152  S    
C150  O56   D    
C19   C39   S    
C40   C41   A    
C126  H42   S    
C7    O59   S    
Cr5   O16   S    
C144  H80   S    
O49   C143  S    
C27   C28   A    
O59   C153  S    
C54   C58   A    
C153  H94   S    
C94   H21   S    
C151  H90   S    
C34   C38   A    
C64   O35   S    
C19   O8    A    
C80   C81   A    
C131  O37   D    
C32   H35   S    
C129  H49   S    
C87   C89   A    
C148  O54   D    
C92   C142  S    
C98   C104  A    
C66   O2    A    
C135  H60   S    
C147  O53   D    
C141  H74   S    
Cr4   O19   S    
C3    C120  A    
Cr1   O24   S    
C79   C80   A    
Cr3   O4    S    
Cr2   O21   S    
C75   C130  S    
C127  O33   D    
C19   O7    A    
C133  H54   S    
C23   C79   S    
