data_mof_unit_9817.cif
_audit_creation_date              2012-12-10T16:50:17-0500
_audit_creation_method            fapswitch 2.2
_symmetry_space_group_name_H-M    P1
_symmetry_Int_Tables_number       1
_space_group_crystal_system       triclinic
_cell_length_a                    23.431644
_cell_length_b                    8.829258
_cell_length_c                    7.458304
_cell_angle_alpha                 103.458635
_cell_angle_beta                  93.414037
_cell_angle_gamma                 92.561417
_cell_volume                      1495.24029469

loop_
_atom_site_label
_atom_site_type_symbol
_atom_type_description
_atom_site_fract_x
_atom_site_fract_y
_atom_site_fract_z
_atom_type_partial_charge
C1    C     C_R   0.499532 0.200658 0.453518 0.811544
C2    C     C_R   0.502425 0.799678 0.546583 0.812373
C3    C     C_R   0.248448 0.588684 0.697495 -0.138462
C4    C     C_R   0.757977 0.396272 0.613244 -0.129603
C5    C     C_R   0.307203 0.586902 0.679407 -0.320963
C6    C     C_R   0.698831 0.404469 0.607220 -0.321250
C7    C     C_R   0.328760 0.505049 0.514926 -0.119487
C8    C     C_R   0.670830 0.483776 0.488048 -0.110467
C9    C     C_R   0.290566 0.428175 0.364660 0.417840
C10   C     C_R   0.702264 0.548149 0.365212 0.427770
C11   C     C_R   0.231504 0.428622 0.385958 -0.216273
C12   C     C_R   0.762263 0.540905 0.375079 -0.203674
C13   C     C_R   0.210304 0.508310 0.551492 0.281377
C14   C     C_R   0.790015 0.466844 0.499590 0.286486
C15   C     C_2   0.501751 0.034485 0.427380 -0.275994
C16   C     C_2   0.504338 0.966765 0.573743 -0.273305
C17   C     C_R   0.391069 0.500403 0.503774 0.840127
C18   C     C_R   0.608838 0.497738 0.496154 0.844978
C19   C     C_R   0.880894 0.614973 0.577349 0.557518
C20   C     C_R   0.120119 0.361759 0.542884 0.549051
C21   C     C_R   0.879087 0.337097 0.480295 0.550257
C22   C     C_R   0.122083 0.639415 0.606798 0.544205
C23   C     C_R   0.938986 0.340916 0.499249 -0.063190
C24   C     C_R   0.062144 0.635805 0.608329 -0.069586
C25   C     C_R   0.970326 0.486152 0.552317 -0.089272
C26   C     C_R   0.030750 0.491135 0.564558 -0.076866
C27   C     C_R   0.941314 0.626000 0.591722 -0.086850
C28   C     C_R   0.059766 0.351581 0.531555 -0.094995
C29   C     C_R   0.967961 0.202673 0.465797 -0.260114
C30   C     C_R   0.033308 0.774044 0.648123 -0.303657
C31   C     C_R   0.027819 0.206714 0.482965 0.411558
C32   C     C_R   0.973142 0.771691 0.645471 0.467261
Cu1   Cu    Cu3+1 0.506340 0.517380 0.684380 0.980141
Cu2   Cu    Cu3+1 0.493660 0.482620 0.315620 1.021938
H1    H     H_    0.944325 0.090325 0.428365 0.226612
H2    H     H_    0.057992 0.884271 0.680389 0.223542
H3    H     H_    0.232637 0.649585 0.826581 0.162813
H4    H     H_    0.779108 0.339383 0.710530 0.159144
H5    H     H_    0.335926 0.648631 0.795090 0.195434
H6    H     H_    0.674846 0.350556 0.698116 0.186485
H7    H     H_    0.201914 0.363696 0.274548 0.151446
H8    H     H_    0.788005 0.596632 0.290452 0.143668
H9    H     H_    0.453315 0.385284 0.950435 0.242636
H10   H     H_    0.547064 0.613011 0.049622 0.241290
N1    N     N_R   0.851429 0.472724 0.518966 -0.463366
N2    N     N_R   0.149644 0.503535 0.571114 -0.453898
N3    N     N_2   0.484110 0.456420 0.038520 -0.206525
N4    N     N_2   0.515890 0.543580 0.961480 -0.215536
O1    O     O_R   0.504120 0.286130 0.619770 -0.576048
O2    O     O_R   0.495880 0.713870 0.380230 -0.570284
O3    O     O_R   0.493410 0.256770 0.308360 -0.566216
O4    O     O_R   0.506590 0.743230 0.691640 -0.582057
O5    O     O_R   0.423230 0.514630 0.655730 -0.597982
O6    O     O_R   0.576770 0.485370 0.344270 -0.567818
O7    O     O_R   0.412530 0.485280 0.344320 -0.545082
O8    O     O_R   0.587470 0.514720 0.655680 -0.608709
O9    O     O_2   0.851440 0.744714 0.622860 -0.487120
O10   O     O_2   0.149428 0.231596 0.524431 -0.514457
O11   O     O_2   0.848643 0.199050 0.422079 -0.536602
O12   O     O_2   0.152490 0.777592 0.636688 -0.552582
O13   O     O_3   0.054902 0.068775 0.465523 -0.577523
C33   C     C_3   0.054555 0.992051 0.277223 0.068086
H11   H     H_    0.064590 0.074999 0.189258 0.128445
H12   H     H_    0.011953 0.930314 0.230606 0.131328
C34   C     C_3   0.100074 0.871871 0.256097 -0.257877
H13   H     H_    0.142397 0.929783 0.314695 0.279014
H14   H     H_    0.088474 0.782621 0.331730 0.235190
C35   C     C_3   0.104639 0.789603 0.055348 -0.945873
H15   H     H_    0.063348 0.724808 0.998433 0.256845
H16   H     H_    0.138721 0.705158 0.045220 0.260311
H17   H     H_    0.115708 0.876234 0.974535 0.287408
O14   O     O_3   0.944350 0.909105 0.675094 -0.559407
C36   C     C_3   0.968661 0.023039 0.830000 0.057097
H18   H     H_    0.006165 0.085598 0.789999 0.177346
H19   H     H_    0.982367 0.970056 0.945660 0.100217
C37   C     C_3   0.924100 0.140927 0.898092 -0.276674
H20   H     H_    0.898257 0.163925 0.778560 0.257035
H21   H     H_    0.894544 0.091444 0.983905 0.231932
C38   C     C_3   0.952348 0.295564 0.011535 -0.937581
H22   H     H_    0.982238 0.275605 0.123551 0.254941
H23   H     H_    0.919014 0.372750 0.073724 0.262380
H24   H     H_    0.976651 0.355146 0.921552 0.261884
O15   O     O_3   0.311152 0.333806 0.209355 -0.577649
C39   C     C_3   0.295223 0.385633 0.048273 0.071429
H25   H     H_    0.331715 0.457354 0.016269 0.169302
H26   H     H_    0.257528 0.459273 0.060846 0.082934
C40   C     C_3   0.280660 0.244381 0.886171 -0.353827
H27   H     H_    0.247541 0.165972 0.924789 0.240491
H28   H     H_    0.262527 0.284238 0.765283 0.212389
C41   C     C_3   0.333236 0.153533 0.829979 -0.654252
H29   H     H_    0.365600 0.228513 0.782667 0.226264
H30   H     H_    0.320542 0.050945 0.714484 0.235294
H31   H     H_    0.352428 0.111518 0.947936 0.301032
O16   O     O_3   0.674603 0.634191 0.255645 -0.585318
C42   C     C_3   0.690051 0.593534 0.070165 0.068901
H32   H     H_    0.650077 0.564666 0.978612 0.182535
H33   H     H_    0.715090 0.487209 0.036419 0.088196
C43   C     C_3   0.723349 0.730571 0.021714 -0.382001
H34   H     H_    0.760745 0.771472 0.122614 0.233532
H35   H     H_    0.739780 0.690806 0.882907 0.207892
C44   C     C_3   0.686013 0.867251 0.018964 -0.644967
H36   H     H_    0.649247 0.830283 0.914355 0.236923
H37   H     H_    0.711683 0.962809 0.981896 0.233537
H38   H     H_    0.670101 0.912365 0.157475 0.298477
C45   C     C_2   0.503267 0.947679 0.232328 0.953153
O17   O     O_2   0.458822 0.892518 0.141770 -0.547054
O18   O     O_R   0.555809 0.932936 0.153319 -0.783976
H39   H     H_    0.551842 0.874497 0.019020 0.336580
C46   C     C_2   0.509691 0.055620 0.770021 0.909209
O19   O     O_2   0.467981 0.063968 0.861806 -0.587871
O20   O     O_R   0.562502 0.128854 0.848071 -0.754173
H40   H     H_    0.560751 0.187290 0.981623 0.349294

loop_
_geom_bond_atom_site_label_1
_geom_bond_atom_site_label_2
_ccdc_geom_bond_type
C40   H27   S    
C44   H36   S    
C36   H18   S    
C31   O13   S    
C42   H32   S    
C37   C38   S    
C42   C43   S    
C32   O14   S    
C19   O9    S    
Cu1   O4    S    
C45   O18   S    
Cu2   O3    S    
C23   C29   A    
C24   C26   A    
C21   O11   S    
C46   O20   S    
C22   O12   S    
C13   N2    S    
C10   O16   S    
Cu1   O1    S    
C15   C16   D    
C33   H12   S    
C2    O2    A    
N3    N4    D    
C35   H15   S    
C7    C17   S    
C12   H8    S    
O18   H39   S    
C39   C40   S    
C1    C15   S    
C2    C16   S    
C17   O7    A    
C3    C13   A    
C18   O8    A    
Cu1   O8    S    
Cu2   O7    S    
C44   H37   S    
C36   H19   S    
O16   C42   S    
C10   C12   A    
C16   C46   S    
C14   N1    S    
C21   N1    A    
C21   C23   A    
Cu1   O5    S    
Cu2   O2    S    
O20   H40   S    
C37   H20   S    
C4    C6    A    
C38   H23   S    
C6    C8    A    
C20   C28   A    
C34   H14   S    
C25   C26   A    
C8    C18   S    
C33   H11   S    
C1    O3    A    
C41   H30   S    
O15   C39   S    
C34   C35   S    
C19   N1    A    
Cu1   Cu2   S    
C39   H25   S    
C9    C11   A    
C2    O4    A    
C9    O15   S    
C8    C10   A    
C22   N2    A    
C12   C14   A    
Cu2   O6    S    
C44   H38   S    
C43   H35   S    
C5    H5    S    
C36   C37   S    
C22   C24   A    
C34   H13   S    
C20   O10   S    
C17   O5    A    
C19   C27   A    
C41   H31   S    
C5    C7    A    
C7    C9    A    
C33   C34   S    
C27   C32   A    
C28   C31   A    
C37   H21   S    
O14   C36   S    
C3    C5    A    
C38   H24   S    
C42   H33   S    
C25   C27   A    
C43   C44   S    
C45   O17   D    
C29   H1    S    
C26   C28   A    
C30   H2    S    
C15   C45   S    
C40   H28   S    
C29   C31   A    
C46   O19   D    
C30   C32   A    
C11   C13   A    
C41   H29   S    
C1    O1    A    
C35   H17   S    
C11   H7    S    
C6    H6    S    
C23   C25   A    
C4    C14   A    
O13   C33   S    
C24   C30   A    
C18   O6    A    
C38   H22   S    
C3    H3    S    
C35   H16   S    
C43   H34   S    
C40   C41   S    
Cu1   N4    S    
C39   H26   S    
Cu2   N3    S    
C4    H4    S    
H9    N3    S    
C20   N2    A    
H10   N4    S    
