data_mof_unit_48474.cif
_audit_creation_date              2012-12-10T17:40:56-0500
_audit_creation_method            fapswitch 2.2
_symmetry_space_group_name_H-M    P1
_symmetry_Int_Tables_number       1
_space_group_crystal_system       triclinic
_cell_length_a                    14.671568
_cell_length_b                    16.353407
_cell_length_c                    10.040837
_cell_angle_alpha                 89.60524
_cell_angle_beta                  91.385459
_cell_angle_gamma                 88.682181
_cell_volume                      2407.69114685

loop_
_atom_site_label
_atom_site_type_symbol
_atom_type_description
_atom_site_fract_x
_atom_site_fract_y
_atom_site_fract_z
_atom_type_partial_charge
Br1   Br    Br    0.129088 0.081448 0.880636 -0.492208
Br2   Br    Br    0.629091 0.581456 0.880638 -0.492210
Br3   Br    Br    0.270361 0.001184 0.697174 -0.415391
Br4   Br    Br    0.770362 0.501186 0.697177 -0.415394
Br5   Br    Br    0.690691 0.962217 0.847732 -0.561617
Br6   Br    Br    0.190690 0.462209 0.847737 -0.561597
Br7   Br    Br    0.269369 0.987816 0.262635 -0.484747
Br8   Br    Br    0.769370 0.487815 0.262628 -0.484742
C1    C     C_R   0.384785 0.876570 0.501246 0.956620
C2    C     C_R   0.744600 0.195940 0.395006 0.112050
C3    C     C_R   0.202852 0.267362 0.382096 0.086352
C4    C     C_R   0.244599 0.695941 0.395005 0.112055
C5    C     C_R   0.672392 0.799488 0.503241 -0.202339
C6    C     C_R   0.690043 0.183997 0.507367 -0.140649
C7    C     C_R   0.172383 0.299482 0.503242 -0.202350
C8    C     C_R   0.190045 0.683995 0.507367 -0.140653
C9    C     C_R   0.338531 0.046205 0.135060 0.331883
C10   C     C_R   0.838533 0.546208 0.135060 0.331887
C11   C     C_R   0.272516 0.091200 0.066275 -0.294134
C12   C     C_R   0.387908 0.125897 0.499065 0.962464
C13   C     C_R   0.772519 0.591206 0.066276 -0.294127
C14   C     C_R   0.257702 0.074505 0.935106 0.184343
C15   C     C_R   0.757704 0.574511 0.935107 0.184341
C16   C     C_R   0.327426 0.036994 0.861244 0.257372
C17   C     C_R   0.827427 0.536998 0.861244 0.257373
C18   C     C_R   0.417453 0.018430 0.924726 -0.099541
C19   C     C_R   0.917454 0.518432 0.924726 -0.099541
C20   C     C_R   0.419090 0.018435 0.070163 -0.019748
C21   C     C_R   0.919091 0.518437 0.070163 -0.019749
C22   C     C_R   0.577586 0.987134 0.073639 0.100172
C23   C     C_R   0.884785 0.376570 0.501246 0.956614
C24   C     C_R   0.077584 0.487127 0.073640 0.100163
C25   C     C_R   0.620199 0.119899 0.501684 0.877211
C26   C     C_R   0.613535 0.874521 0.501086 0.861390
C27   C     C_R   0.120200 0.619898 0.501684 0.877207
C28   C     C_R   0.113532 0.374519 0.501086 0.861396
C29   C     C_R   0.576491 0.983568 0.932236 0.224323
C30   C     C_R   0.076490 0.483564 0.932236 0.224339
C31   C     C_R   0.360733 0.242047 0.732877 0.061624
C32   C     C_R   0.304250 0.814913 0.758570 0.157635
C33   C     C_R   0.860741 0.742050 0.732874 0.061624
C34   C     C_R   0.887909 0.625897 0.499065 0.962468
C35   C     C_R   0.804245 0.314916 0.758569 0.157637
C36   C     C_R   0.321995 0.259275 0.856152 0.134251
C37   C     C_R   0.236031 0.826747 0.854067 0.079029
C38   C     C_R   0.822005 0.759280 0.856149 0.134248
C39   C     C_R   0.736024 0.326753 0.854063 0.079028
C40   C     C_R   0.727617 0.766868 0.864815 0.189641
C41   C     C_R   0.653816 0.288242 0.831765 0.181546
C42   C     C_R   0.227607 0.266862 0.864818 0.189648
C43   C     C_R   0.153825 0.788233 0.831773 0.181543
C44   C     C_R   0.673529 0.771703 0.747966 0.142531
C45   C     C_R   0.287383 0.226753 0.378540 0.139276
C46   C     C_R   0.658516 0.221921 0.745976 0.053807
C47   C     C_R   0.173520 0.271698 0.747967 0.142525
C48   C     C_R   0.158524 0.721915 0.745980 0.053812
C49   C     C_R   0.715329 0.771135 0.622983 0.038216
C50   C     C_R   0.705657 0.231871 0.624376 -0.059305
C51   C     C_R   0.215321 0.271130 0.622984 0.038221
C52   C     C_R   0.205661 0.731867 0.624378 -0.059303
C53   C     C_R   0.303521 0.237122 0.617803 0.006510
C54   C     C_R   0.278848 0.786045 0.628797 0.062161
C55   C     C_R   0.803529 0.737126 0.617801 0.006507
C56   C     C_R   0.309457 0.756911 0.394083 0.051673
C57   C     C_R   0.778844 0.286047 0.628796 0.062161
C58   C     C_R   0.330900 0.201432 0.497660 -0.192943
C59   C     C_R   0.325043 0.804979 0.508513 -0.148362
C60   C     C_R   0.830905 0.701433 0.497659 -0.192948
C61   C     C_R   0.825043 0.304979 0.508513 -0.148360
C62   C     C_R   0.787391 0.726757 0.378539 0.139270
C63   C     C_R   0.809459 0.256910 0.394085 0.051671
C64   C     C_R   0.702863 0.767371 0.382094 0.086357
H1    H     H_    0.215481 0.116954 0.119974 0.238419
H2    H     H_    0.931299 0.265226 0.302413 0.182926
H3    H     H_    0.479097 0.243209 0.626568 0.178034
H4    H     H_    0.481133 0.184776 0.767714 0.221997
H5    H     H_    0.417072 0.859877 0.846717 0.198191
H6    H     H_    0.399915 0.759977 0.878030 0.204941
H7    H     H_    0.979105 0.743208 0.626564 0.178033
H8    H     H_    0.981140 0.684775 0.767711 0.222000
H9    H     H_    0.917066 0.359880 0.846719 0.198192
H10   H     H_    0.899907 0.259980 0.878036 0.204937
H11   H     H_    0.421388 0.217948 0.985040 0.193863
H12   H     H_    0.715486 0.616961 0.119976 0.238419
H13   H     H_    0.415913 0.321486 0.960378 0.230779
H14   H     H_    0.320479 0.879801 0.996085 0.179245
H15   H     H_    0.212248 0.914088 0.990472 0.245258
H16   H     H_    0.921397 0.717952 0.985038 0.193867
H17   H     H_    0.915925 0.821490 0.960371 0.230776
H18   H     H_    0.820471 0.379803 0.996086 0.179247
H19   H     H_    0.712242 0.414097 0.990464 0.245263
H20   H     H_    0.648740 0.827670 0.995104 0.186566
H21   H     H_    0.640452 0.727275 0.003567 0.235321
H22   H     H_    0.616106 0.260581 0.019664 0.203269
H23   H     H_    0.299587 0.252649 0.182963 0.239001
H24   H     H_    0.570733 0.349164 0.956524 0.215521
H25   H     H_    0.148728 0.327663 0.995107 0.186575
H26   H     H_    0.140442 0.227268 0.003568 0.235317
H27   H     H_    0.116121 0.760567 0.019673 0.203265
H28   H     H_    0.070745 0.849150 0.956542 0.215515
H29   H     H_    0.557654 0.824505 0.800549 0.221842
H30   H     H_    0.544089 0.761241 0.667588 0.207182
H31   H     H_    0.614927 0.122065 0.839826 0.237698
H32   H     H_    0.723001 0.111455 0.771343 0.263116
H33   H     H_    0.057647 0.324504 0.800546 0.221843
H34   H     H_    0.397410 0.239400 0.265047 0.180142
H35   H     H_    0.044080 0.261240 0.667587 0.207179
H36   H     H_    0.114935 0.622059 0.839828 0.237696
H37   H     H_    0.223005 0.611446 0.771333 0.263115
H38   H     H_    0.582574 0.732526 0.300439 0.194834
H39   H     H_    0.626082 0.816172 0.225929 0.209426
H40   H     H_    0.797573 0.115205 0.263145 0.216299
H41   H     H_    0.717996 0.181952 0.197034 0.216477
H42   H     H_    0.082578 0.232477 0.300459 0.194845
H43   H     H_    0.126030 0.316142 0.225956 0.209426
H44   H     H_    0.297570 0.615209 0.263138 0.216301
H45   H     H_    0.342586 0.818773 0.225725 0.252756
H46   H     H_    0.217991 0.681956 0.197033 0.216469
H47   H     H_    0.692948 0.925971 0.137795 0.192431
H48   H     H_    0.658801 0.999781 0.240752 0.265193
H49   H     H_    0.192911 0.425938 0.137851 0.192434
H50   H     H_    0.158804 0.499792 0.240739 0.265190
H51   H     H_    0.431293 0.765229 0.302403 0.182929
H52   H     H_    0.799601 0.752660 0.182961 0.238992
H53   H     H_    0.897426 0.739392 0.265053 0.180142
H54   H     H_    0.842593 0.318768 0.225726 0.252752
N1    N     N_R   0.498810 0.000000 0.142780 -0.139907
N2    N     N_3   0.396438 0.805368 0.804022 -0.453103
N3    N     N_3   0.957904 0.739885 0.724959 -0.428908
N4    N     N_3   0.896432 0.305370 0.804026 -0.453104
N5    N     N_3   0.377796 0.269083 0.973115 -0.457575
N6    N     N_3   0.253546 0.861604 0.983063 -0.465683
N7    N     N_3   0.877807 0.769089 0.973111 -0.457580
N8    N     N_3   0.753538 0.361610 0.983059 -0.465676
N9    N     N_3   0.687151 0.773609 0.992550 -0.458614
N10   N     N_3   0.587349 0.288410 0.933946 -0.469741
N11   N     N_3   0.187140 0.273602 0.992552 -0.458604
N12   N     N_R   0.998810 0.500000 0.142780 -0.139913
N13   N     N_3   0.087360 0.788398 0.933958 -0.469747
N14   N     N_3   0.577087 0.768670 0.759941 -0.412217
N15   N     N_3   0.676664 0.149043 0.820958 -0.423998
N16   N     N_3   0.077078 0.268668 0.759941 -0.412221
N17   N     N_3   0.176672 0.649034 0.820956 -0.423994
N18   N     N_3   0.642121 0.759741 0.269197 -0.463412
N19   N     N_3   0.735091 0.145012 0.279756 -0.422608
N20   N     N_3   0.142104 0.259717 0.269209 -0.463439
N21   N     N_3   0.235089 0.645015 0.279753 -0.422622
N22   N     N_3   0.664816 0.984943 0.141490 -0.416460
N23   N     N_R   0.498740 0.000000 0.857170 -0.154916
N24   N     N_3   0.164812 0.484920 0.141494 -0.416449
N25   N     N_R   0.998740 0.500000 0.857170 -0.154921
N26   N     N_3   0.332109 0.215508 0.254690 -0.420942
N27   N     N_3   0.362088 0.764999 0.276154 -0.463479
N28   N     N_3   0.832118 0.715509 0.254690 -0.420934
N29   N     N_3   0.862094 0.264995 0.276159 -0.463484
N30   N     N_3   0.457895 0.239885 0.724963 -0.428907
O1    O     O_R   0.408390 0.908380 0.614690 -0.586152
O2    O     O_R   0.591620 0.908390 0.614640 -0.583546
O3    O     O_R   0.091620 0.591610 0.614640 -0.632292
O4    O     O_R   0.091620 0.408390 0.614640 -0.583546
O5    O     O_R   0.591610 0.091610 0.385310 -0.618852
O6    O     O_R   0.591610 0.908390 0.385310 -0.663828
O7    O     O_R   0.091610 0.591610 0.385310 -0.618858
O8    O     O_R   0.091610 0.408390 0.385310 -0.663818
O9    O     O_R   0.408390 0.091620 0.614690 -0.599855
O10   O     O_R   0.908390 0.408380 0.614690 -0.586154
O11   O     O_R   0.908390 0.591620 0.614690 -0.599853
O12   O     O_R   0.408370 0.908380 0.385360 -0.595354
O13   O     O_R   0.408370 0.091620 0.385360 -0.571993
O14   O     O_R   0.908370 0.408380 0.385360 -0.595352
O15   O     O_R   0.908370 0.591620 0.385360 -0.571998
O16   O     O_R   0.591620 0.091610 0.614640 -0.632286
Zn1   Zn    Zn3+2 0.500010 0.000000 0.653130 0.981256
Zn2   Zn    Zn3+2 0.000010 0.500000 0.653130 0.981254
Zn3   Zn    Zn3+2 0.499980 0.000000 0.346870 0.970360
Zn4   Zn    Zn3+2 0.999980 0.500000 0.346870 0.970356

loop_
_geom_bond_atom_site_label_1
_geom_bond_atom_site_label_2
_ccdc_geom_bond_type
O12   Zn3   S    
H52   N28   S    
C19   C21   A    
C10   C13   A    
C7    C28   S    
C40   N9    S    
H6    N2    S    
C6    C25   S    
Br4   C17   S    
C42   N11   S    
C39   C41   A    
O14   Zn4   S    
H53   N28   S    
H49   N24   S    
C36   N5    S    
C24   N12   A    
C12   O9    A    
H43   N20   S    
C54   C59   A    
H50   N24   S    
C4    N21   S    
C12   C58   S    
H46   N21   S    
C16   C18   A    
H16   N7    S    
C40   C44   A    
C47   C51   A    
C8    C27   S    
H51   N27   S    
O5    Zn3   S    
C57   C61   A    
C5    C49   A    
Br5   C29   S    
C37   C43   A    
O9    Zn1   S    
C41   C46   A    
C32   N2    S    
C32   C54   A    
H40   N19   S    
C52   C54   A    
C43   C48   A    
C8    C52   A    
H41   N19   S    
C61   C63   A    
O2    Zn1   S    
C9    C11   A    
C55   C60   A    
C48   N17   S    
C3    C7    A    
H3    N30   S    
C4    C8    A    
Br7   C9    S    
O3    Zn2   S    
C45   N26   S    
H22   N10   S    
C33   C38   A    
Br6   C30   S    
C24   C30   A    
H10   N4    S    
C3    C45   A    
C20   N1    A    
H54   N29   S    
C12   O13   A    
Br1   C14   S    
N25   Zn2   S    
C34   C60   S    
H27   N13   S    
Br3   C16   S    
O4    Zn2   S    
C31   C53   A    
O7    Zn4   S    
H31   N15   S    
H25   N11   S    
H29   N14   S    
C49   C55   A    
C35   N4    S    
N1    Zn3   S    
C32   C37   A    
C6    C50   A    
C38   C40   A    
C51   C53   A    
O10   Zn2   S    
H26   N11   S    
C56   C59   A    
C11   H1    S    
C11   C14   A    
H17   N7    S    
H42   N20   S    
H24   N10   S    
C2    C6    A    
H33   N16   S    
O6    Zn3   S    
H21   N9    S    
H47   N22   S    
C56   N27   S    
H4    N30   S    
C27   O7    A    
C48   C52   A    
C22   C29   A    
H15   N6    S    
C25   O5    A    
C1    C59   S    
H11   N5    S    
C21   N12   A    
H28   N13   S    
C50   C57   A    
C13   H12   S    
C1    O1    A    
C35   C57   A    
C63   N29   S    
Br8   C10   S    
O13   Zn3   S    
H37   N17   S    
C10   C21   A    
H30   N14   S    
H35   N16   S    
H38   N18   S    
C45   C58   A    
H5    N2    S    
H39   N18   S    
O11   Zn2   S    
C26   O2    A    
C5    C64   A    
C41   N10   S    
H48   N22   S    
C13   C15   A    
C39   N8    S    
N12   Zn4   S    
C14   C16   A    
H34   N26   S    
C33   C55   A    
C44   C49   A    
C30   N25   A    
O16   Zn1   S    
C28   O8    A    
C46   C50   A    
C36   C42   A    
C64   N18   S    
C4    C56   A    
C22   N1    A    
C19   N25   A    
H8    N3    S    
C53   C58   A    
C62   N28   S    
C9    C20   A    
C7    C51   A    
C1    O12   A    
C29   N23   A    
C26   O6    A    
H44   N21   S    
C3    N20   S    
C22   N22   S    
C31   C36   A    
C23   O14   A    
C17   C19   A    
O15   Zn4   S    
C18   C20   A    
C42   C47   A    
C31   N30   S    
H7    N3    S    
H45   N27   S    
C5    C26   S    
C18   N23   A    
C2    C63   A    
C38   N7    S    
C33   N3    S    
H14   N6    S    
H9    N4    S    
H19   N8    S    
H18   N8    S    
C44   N14   S    
H2    N29   S    
O8    Zn4   S    
N23   Zn1   S    
C15   C17   A    
C23   O10   A    
C27   O3    A    
C34   O15   A    
C28   O4    A    
C2    N19   S    
H20   N9    S    
C34   O11   A    
C23   C61   S    
C46   N15   S    
C24   N24   S    
C37   N6    S    
C60   C62   A    
Br2   C15   S    
C47   N16   S    
H32   N15   S    
C62   C64   A    
H23   N26   S    
C25   O16   A    
C35   C39   A    
H36   N17   S    
H13   N5    S    
O1    Zn1   S    
C43   N13   S    
