data_mof_unit_66510.cif
_audit_creation_date              2012-12-10T21:28:51-0500
_audit_creation_method            fapswitch 2.2
_symmetry_space_group_name_H-M    P1
_symmetry_Int_Tables_number       1
_space_group_crystal_system       triclinic
_cell_length_a                    10.616709
_cell_length_b                    16.173783
_cell_length_c                    16.780131
_cell_angle_alpha                 87.939459
_cell_angle_beta                  91.142034
_cell_angle_gamma                 88.544029
_cell_volume                      2877.93628273

loop_
_atom_site_label
_atom_site_type_symbol
_atom_type_description
_atom_site_fract_x
_atom_site_fract_y
_atom_site_fract_z
_atom_type_partial_charge
C1    C     C_R   0.494600 0.489502 0.652851 0.946372
C2    C     C_R   0.937718 0.473195 0.421343 -0.063547
C3    C     C_R   0.872610 0.488607 0.492664 -0.121453
C4    C     C_R   0.934760 0.510497 0.562407 -0.190691
C5    C     C_R   0.062912 0.517745 0.563265 0.601134
C6    C     C_R   0.127261 0.509628 0.492584 -0.202726
C7    C     C_R   0.470376 0.485372 0.737820 -0.129138
C8    C     C_R   0.449563 0.559354 0.777372 -0.231186
C9    C     C_R   0.424098 0.557194 0.857773 0.688155
C10   C     C_R   0.421138 0.480816 0.899771 0.182175
C11   C     C_R   0.434022 0.406858 0.859895 -0.215981
C12   C     C_R   0.739488 0.497153 0.494055 0.899277
C13   C     C_R   0.459249 0.408951 0.778902 -0.172332
C14   C     C_R   0.507192 0.439644 0.137715 0.141799
C15   C     C_R   0.503326 0.440002 0.219841 -0.292710
C16   C     C_R   0.513375 0.515509 0.094254 0.049743
C17   C     C_R   0.510222 0.514369 0.260119 -0.291954
C18   C     C_R   0.524420 0.589306 0.216800 0.535125
C19   C     C_R   0.525961 0.589503 0.133939 0.585563
C20   C     C_R   0.435427 0.766455 0.461948 0.116908
C21   C     C_R   0.435885 0.852981 0.465600 0.549506
C22   C     C_R   0.518174 0.890574 0.519021 0.083118
C23   C     C_R   0.504832 0.510463 0.346922 1.065006
C24   C     C_R   0.597336 0.838843 0.568177 -0.403122
C25   C     C_R   0.595240 0.752245 0.562442 0.712145
C26   C     C_R   0.581554 0.147761 0.521998 -0.006561
C27   C     C_R   0.574224 0.234346 0.531537 0.242426
C28   C     C_R   0.485088 0.109741 0.478061 0.103279
C29   C     C_R   0.396660 0.247626 0.443441 -0.165391
C30   C     C_R   0.393913 0.161210 0.437809 0.579944
C31   C     C_R   0.260126 0.502896 0.498916 1.041858
C32   C     C_R   0.882889 0.439759 0.351381 0.097180
C33   C     C_R   0.942350 0.451542 0.277693 0.129087
C34   C     C_R   0.061931 0.484110 0.275354 -0.223381
C35   C     C_R   0.125722 0.501292 0.345546 0.597946
C36   C     C_R   0.065004 0.494827 0.419638 -0.124593
H1    H     H_    0.883385 0.521503 0.616436 0.195018
H2    H     H_    0.472039 0.351216 0.748959 0.201983
H3    H     H_    0.453700 0.619151 0.746455 0.217673
H4    H     H_    0.660787 0.865636 0.610867 0.242248
H5    H     H_    0.327650 0.286463 0.410605 0.197125
H6    H     H_    0.108573 0.492332 0.218918 0.205187
H7    H     H_    0.496116 0.381126 0.252002 0.241319
H8    H     H_    0.431040 0.347897 0.892383 0.207727
N1    N     N_2   0.421191 0.477660 0.983224 -0.111903
N2    N     N_2   0.507803 0.519322 0.010717 -0.037670
N3    N     N_R   0.515300 0.716920 0.509720 -0.216120
N4    N     N_2   0.520616 0.978496 0.527811 -0.082941
N5    N     N_2   0.479673 0.021871 0.469061 0.017288
N6    N     N_R   0.484690 0.283070 0.490290 -0.157039
O1    O     O_R   0.494530 0.422540 0.612660 -0.612735
O2    O     O_R   0.504350 0.561840 0.618900 -0.586137
O3    O     O_R   0.678320 0.430330 0.496880 -0.591008
O4    O     O_R   0.688140 0.569640 0.503120 -0.570111
O5    O     O_R   0.495650 0.438160 0.381100 -0.623494
O6    O     O_R   0.505470 0.577460 0.387340 -0.548378
O7    O     O_R   0.311860 0.430360 0.496880 -0.624398
O8    O     O_R   0.321680 0.569670 0.503120 -0.586605
Zn1   Zn    Zn3+2 0.493440 0.406980 0.495830 1.016504
Zn2   Zn    Zn3+2 0.506560 0.593020 0.504170 1.093682
F1    F     F_    0.536433 0.661930 0.253958 -0.571727
F2    F     F_    0.407214 0.629301 0.895670 -0.577325
F3    F     F_    0.536343 0.662143 0.091783 -0.528611
I1    I     I_    0.701187 0.286266 0.615269 -0.193149
I2    I     I_    0.748881 0.079492 0.562717 -0.137492
F4    F     F_    0.672176 0.703639 0.610702 -0.610533
I3    I     I_    0.759747 0.337553 0.357514 -0.208856
F5    F     F_    0.352760 0.899366 0.419158 -0.560880
F6    F     F_    0.302941 0.127585 0.392221 -0.565512
I4    I     I_    0.301149 0.719097 0.381693 0.062697
I5    I     I_    0.862027 0.417775 0.166990 -0.203680
F7    F     F_    0.243772 0.529533 0.339442 -0.686813
F8    F     F_    0.124583 0.532785 0.632807 -0.648352
I6    I     I_    0.512483 0.321516 0.085675 -0.169958

loop_
_geom_bond_atom_site_label_1
_geom_bond_atom_site_label_2
_ccdc_geom_bond_type
C22   N4    S    
C24   C25   A    
C18   F1    S    
C23   O5    A    
C29   C30   A    
C8    H3    S    
O5    Zn1   S    
C11   C13   A    
C9    C10   A    
C25   N3    A    
C26   C28   A    
C35   C36   A    
C34   H6    S    
C27   N6    A    
C32   C33   A    
C31   O7    A    
C10   N1    S    
C28   C30   A    
C2    C3    A    
O3    Zn1   S    
C15   H7    S    
C11   H8    S    
O4    Zn2   S    
N1    N2    D    
C20   C21   A    
C4    C5    A    
C1    O1    A    
C20   I4    S    
C26   C27   A    
C17   C23   S    
C12   O3    A    
C32   I3    S    
N6    Zn1   S    
C14   I6    S    
C31   O8    A    
C2    C32   A    
N4    N5    D    
C24   H4    S    
C6    C36   A    
C35   F7    S    
C33   C34   A    
C14   C16   A    
C29   N6    A    
C16   C19   A    
C21   F5    S    
C5    F8    S    
C5    C6    A    
C1    O2    A    
C22   C24   A    
O7    Zn1   S    
C20   N3    A    
O1    Zn1   S    
C10   C11   A    
C33   I5    S    
O8    Zn2   S    
C9    F2    S    
C21   C22   A    
C25   F4    S    
C7    C13   A    
C30   F6    S    
C2    C36   A    
C4    H1    S    
C3    C4    A    
C17   C18   A    
C34   C35   A    
C23   O6    A    
C16   N2    S    
C15   C17   A    
C7    C8    A    
C14   C15   A    
C18   C19   A    
C6    C31   S    
C3    C12   S    
O2    Zn2   S    
C29   H5    S    
N3    Zn2   S    
C1    C7    S    
C26   I2    S    
C27   I1    S    
C12   O4    A    
C13   H2    S    
O6    Zn2   S    
C19   F3    S    
C8    C9    A    
C28   N5    S    
