data_mof_unit_13275.cif
_audit_creation_date              2012-10-26T19:04:42-0400
_audit_creation_method            fapswitch 2.2
_symmetry_space_group_name_H-M    P1
_symmetry_Int_Tables_number       1
_space_group_crystal_system       triclinic
_cell_length_a                    9.585471
_cell_length_b                    10.911906
_cell_length_c                    13.403824
_cell_angle_alpha                 92.068251
_cell_angle_beta                  71.914812
_cell_angle_gamma                 88.64396
_cell_volume                      1330.95391953

loop_
_atom_site_label
_atom_site_type_symbol
_atom_type_description
_atom_site_fract_x
_atom_site_fract_y
_atom_site_fract_z
_atom_type_partial_charge
C1    C     C_R   0.497672 0.737917 0.498464 0.579204
C2    C     C_R   0.368908 0.497164 0.816750 0.036212
C3    C     C_R   0.217809 0.894960 0.528076 -0.145219
C4    C     C_R   0.419971 0.502346 0.700799 0.622389
C5    C     C_R   0.086651 0.960271 0.577300 -0.066891
C6    C     C_R   0.088764 0.076477 0.621915 0.284502
C7    C     C_R   0.222327 0.133117 0.606508 -0.053425
C8    C     C_R   0.356922 0.070477 0.550879 -0.045315
C9    C     C_R   0.355065 0.943760 0.525193 0.008981
C10   C     C_R   0.489534 0.872642 0.500719 -0.022981
C11   C     C_R   0.620339 0.931215 0.491522 -0.098764
C12   C     C_R   0.437860 0.496645 0.978258 0.004685
C13   C     C_R   0.624515 0.057115 0.499769 0.224189
C14   C     C_R   0.493378 0.129579 0.523125 0.011514
C15   C     C_R   0.921552 0.343756 0.355585 -0.005526
C16   C     C_R   0.497660 0.263086 0.509031 0.544639
C17   C     C_R   0.025620 0.266065 0.285007 -0.122601
C18   C     C_R   0.168182 0.261775 0.287498 -0.171692
C19   C     C_R   0.208301 0.337151 0.358855 -0.080857
C20   C     C_R   0.106695 0.420546 0.430449 0.171625
C21   C     C_R   0.957446 0.422163 0.429567 0.184070
C22   C     C_R   0.895946 0.576718 0.564975 -0.024307
C23   C     C_R   0.454010 0.545086 0.878265 -0.005117
C24   C     C_R   0.044113 0.577362 0.564352 -0.037583
C25   C     C_R   0.579279 0.502886 0.299813 0.530718
C26   C     C_R   0.753966 0.641468 0.039133 -0.137216
C27   C     C_R   0.623742 0.523397 0.186738 0.011074
C28   C     C_R   0.245395 0.427124 0.864348 0.255480
C29   C     C_R   0.225633 0.385952 0.965298 -0.113067
C30   C     C_R   0.321651 0.417130 0.019883 -0.144320
C31   C     C_3   0.832400 0.747819 0.221806 0.004505
C32   C     C_3   0.940098 0.771327 0.282612 -0.359250
C33   C     C_3   0.005131 0.396934 0.865078 -0.002608
C34   C     C_R   0.538019 0.529905 0.033121 0.020174
C35   C     C_3   0.918062 0.444458 0.796273 -0.311454
C36   C     C_R   0.649579 0.612806 0.988869 -0.044236
C37   C     C_R   0.652561 0.670212 0.897075 -0.107242
C38   C     C_R   0.552363 0.641506 0.844520 0.219373
C39   C     C_R   0.529034 0.485361 0.131892 -0.163625
C40   C     C_R   0.741317 0.597916 0.138635 0.248498
Cl1   Cl    Cl    0.923120 0.150288 0.696690 -0.578493
Cl2   Cl    Cl    0.799196 0.114361 0.485079 -0.597268
Cl3   Cl    Cl    0.536291 0.746002 0.750816 -0.620277
Cu1   Cu    Cu3+1 0.359340 0.500010 0.500010 0.947653
Cu2   Cu    Cu3+1 0.640660 0.499990 0.499990 1.013856
H1    H     H_    0.206385 0.808833 0.490646 0.150409
H2    H     H_    0.074814 0.640313 0.617479 0.123489
H3    H     H_    0.843825 0.699595 0.001973 0.118654
H4    H     H_    0.445386 0.424247 0.171202 0.111697
H5    H     H_    0.299281 0.377954 0.095305 0.118334
H6    H     H_    0.138222 0.324914 0.000705 0.114284
H7    H     H_    0.722523 0.878625 0.476793 0.160891
H8    H     H_    0.719244 0.771189 0.274912 0.126838
H9    H     H_    0.858864 0.809040 0.154317 0.127255
H10   H     H_    0.932983 0.869704 0.308595 0.121607
H11   H     H_    0.914074 0.714432 0.352679 0.171370
H12   H     H_    0.983063 0.918871 0.582750 0.166308
H13   H     H_    0.053979 0.747755 0.231834 0.164196
H14   H     H_    0.979204 0.460394 0.936078 0.127756
H15   H     H_    0.968147 0.304005 0.890157 0.177428
H16   H     H_    0.931762 0.544686 0.788397 0.116760
H17   H     H_    0.957562 0.398633 0.716932 0.229446
H18   H     H_    0.799877 0.426496 0.831977 0.140707
H19   H     H_    0.219829 0.223881 0.642139 0.200471
H20   H     H_    0.816193 0.639347 0.618536 0.168407
H21   H     H_    0.813502 0.334883 0.351519 0.188895
H22   H     H_    0.994303 0.206590 0.229727 0.124295
H23   H     H_    0.248784 0.199598 0.233545 0.117328
H24   H     H_    0.320675 0.325851 0.353300 0.178908
H25   H     H_    0.729955 0.741454 0.868023 0.149434
N1    N     N_R   0.852480 0.498790 0.499000 -0.244776
N2    N     N_R   0.148360 0.498710 0.498970 -0.245570
O1    O     O_R   0.381190 0.680360 0.500010 -0.517102
O2    O     O_3   0.156083 0.388400 0.805969 -0.555494
O3    O     O_R   0.618760 0.680340 0.500000 -0.489792
O4    O     O_R   0.323240 0.499990 0.650990 -0.450667
O5    O     O_R   0.560820 0.499960 0.650980 -0.469377
O6    O     O_R   0.381240 0.319660 0.500000 -0.547802
O7    O     O_R   0.618810 0.319640 0.499990 -0.457105
O8    O     O_R   0.439180 0.500040 0.349020 -0.539237
O9    O     O_R   0.676760 0.500010 0.349010 -0.494954
O10   O     O_3   0.846490 0.623200 0.186907 -0.547300

loop_
_geom_bond_atom_site_label_1
_geom_bond_atom_site_label_2
_ccdc_geom_bond_type
Cu2   N1    S    
C25   O8    A    
C19   C20   A    
C32   H13   S    
C28   O2    S    
C7    C8    A    
C12   C23   A    
C29   C30   A    
C31   O10   S    
C21   N1    A    
C28   C29   A    
C5    C6    A    
C18   H23   S    
C18   C19   A    
Cu1   O4    S    
C11   H7    S    
C27   C39   A    
C8    C9    A    
C6    Cl1   S    
C14   C16   S    
C9    C10   A    
C32   H10   S    
C16   O6    A    
C26   H3    S    
C30   H5    S    
C33   H14   S    
C37   H25   S    
C25   O9    A    
C13   Cl2   S    
C17   H22   S    
C34   C39   A    
C1    O3    A    
C40   O10   S    
Cu1   O8    S    
C35   H16   S    
C15   H21   S    
C2    C4    S    
C22   H20   S    
C37   C38   A    
C3    C9    A    
C31   C32   S    
C15   C21   A    
C27   C40   A    
C17   C18   A    
Cu2   O7    S    
C31   H8    S    
C26   C36   A    
C39   H4    S    
C33   H15   S    
C22   C24   A    
C19   H24   S    
C12   C34   A    
C22   N1    A    
Cu1   Cu2   S    
C24   N2    A    
C29   H6    S    
C15   C17   A    
C36   C37   A    
C8    C14   A    
C12   C30   A    
C24   H2    S    
Cu2   O9    S    
C1    C10   S    
C3    C5    A    
C35   H18   S    
C6    C7    A    
C25   C27   S    
C23   C38   A    
C3    H1    S    
C5    H12   S    
Cu2   O3    S    
C16   O7    A    
C1    O1    A    
Cu1   O6    S    
C38   Cl3   S    
C11   C13   A    
C26   C40   A    
C33   C35   S    
Cu1   N2    S    
C35   H17   S    
C34   C36   A    
C31   H9    S    
Cu1   O1    S    
C7    H19   S    
C4    O4    A    
C10   C11   A    
C33   O2    S    
C4    O5    A    
C20   C21   A    
C2    C23   A    
C20   N2    A    
C2    C28   A    
Cu2   O5    S    
C13   C14   A    
C32   H11   S    
