data_mof_unit_30327.cif
_audit_creation_date              2012-12-11T17:10:37-0500
_audit_creation_method            fapswitch 2.2
_symmetry_space_group_name_H-M    P1
_symmetry_Int_Tables_number       1
_space_group_crystal_system       triclinic
_cell_length_a                    15.046028
_cell_length_b                    14.950726
_cell_length_c                    14.965636
_cell_angle_alpha                 110.075983
_cell_angle_beta                  109.834159
_cell_angle_gamma                 109.016997
_cell_volume                      2574.80326032

loop_
_atom_site_label
_atom_site_type_symbol
_atom_type_description
_atom_site_fract_x
_atom_site_fract_y
_atom_site_fract_z
_atom_type_partial_charge
C1    C     C_R   0.201274 0.292853 0.195589 -0.156742
C2    C     C_R   0.466632 0.556829 0.241756 -0.231266
C3    C     C_R   0.500946 0.803279 0.591333 -0.153357
C4    C     C_R   0.602195 0.512260 0.806824 -0.158026
C5    C     C_R   0.705402 0.401490 0.408818 -0.113846
C6    C     C_R   0.443624 0.805628 0.498841 0.086979
C7    C     C_R   0.798310 0.433354 0.499102 0.023741
C8    C     C_R   0.535521 0.532671 0.206036 -0.064515
C9    C     C_R   0.824252 0.826831 0.776856 0.071902
C10   C     C_R   0.124409 0.641227 0.320385 -0.115273
C11   C     C_R   0.106940 0.603131 0.389477 -0.114330
C12   C     C_R   0.573527 0.574552 0.871171 0.087447
C13   C     C_R   0.023541 0.495733 0.343807 0.111303
C14   C     C_R   0.957237 0.427694 0.228358 -0.181719
C15   C     C_R   0.975805 0.465887 0.159675 -0.120692
C16   C     C_R   0.430344 0.187101 0.406081 -0.150995
C17   C     C_R   0.059444 0.572590 0.205687 -0.110528
C18   C     C_R   0.907232 0.442841 0.416367 -0.239241
C19   C     C_R   0.885654 0.420059 0.491859 0.061683
C20   C     C_R   0.954079 0.400465 0.564271 0.023603
C21   C     C_R   0.049498 0.412102 0.563488 -0.247562
C22   C     C_R   0.073352 0.441143 0.491391 0.071667
C23   C     C_R   0.448078 0.174209 0.496208 0.066726
C24   C     C_R   0.001115 0.455982 0.416307 0.010648
C25   C     C_R   0.005093 0.417657 0.750134 -0.169140
C26   C     C_R   0.978423 0.385895 0.819432 -0.110465
C27   C     C_R   0.873361 0.302541 0.777636 -0.097707
C28   C     C_R   0.276810 0.533682 0.591435 -0.144297
C29   C     C_R   0.794752 0.250520 0.666347 -0.113306
C30   C     C_R   0.821090 0.281775 0.596706 -0.133447
C31   C     C_R   0.926442 0.366314 0.638103 0.120631
C32   C     C_R   0.676358 0.582515 0.047390 0.170097
C33   C     C_R   0.612397 0.615045 0.988640 0.038612
C34   C     C_R   0.174965 0.459829 0.497142 0.046087
C35   C     C_R   0.563737 0.665040 0.037741 -0.218703
C36   C     C_R   0.549002 0.648088 0.118955 -0.196473
C37   C     C_R   0.582793 0.581134 0.151221 0.057272
C38   C     C_R   0.659435 0.562943 0.125618 0.159832
C39   C     C_3   0.682220 0.469893 0.095937 -0.358276
C40   C     C_R   0.526386 0.276535 0.590686 -0.127226
C41   C     C_3   0.703426 0.493266 0.013189 -0.641223
C42   C     C_R   0.377455 0.887080 0.394665 0.066659
C43   C     C_R   0.413622 0.886684 0.493409 0.038318
C44   C     C_R   0.426064 0.969382 0.585840 -0.207675
C45   C     C_R   0.408157 0.708942 0.407847 -0.136420
C46   C     C_R   0.422574 0.061005 0.583559 -0.204244
C47   C     C_R   0.405307 0.068198 0.488401 0.065490
C48   C     C_R   0.368334 0.973847 0.390406 0.103662
C49   C     C_3   0.398179 0.958603 0.301947 -0.560288
C50   C     C_3   0.410951 0.864562 0.309014 0.091020
C51   C     C_R   0.021331 0.125536 0.963874 0.162630
C52   C     C_R   0.186924 0.434553 0.406176 -0.103962
C53   C     C_R   0.115813 0.120877 0.013737 0.026507
C54   C     C_R   0.121522 0.029419 0.952856 -0.206806
C55   C     C_R   0.025849 0.934476 0.861213 -0.196868
C56   C     C_R   0.800264 0.497264 0.591588 -0.120193
C57   C     C_R   0.924952 0.931207 0.831744 0.032192
C58   C     C_R   0.926813 0.031694 0.874320 0.172906
C59   C     C_3   0.857054 0.064490 0.913799 -0.528138
C60   C     C_3   0.960331 0.167285 0.011080 -0.522700
C61   C     C_R   0.506429 0.598001 0.805086 -0.135028
C62   C     C_R   0.288588 0.198649 0.194535 -0.175574
C63   C     C_R   0.196502 0.198225 0.130975 0.089598
C64   C     C_3   0.504554 0.278128 0.139405 0.219866
C65   C     C_3   0.538632 0.201837 0.081266 -0.966395
C66   C     C_3   0.529741 0.889707 0.351853 -0.931906
C67   C     C_R   0.550028 0.457093 0.234973 0.524361
C68   C     C_R   0.721239 0.814056 0.747178 -0.144517
C69   C     C_R   0.814404 0.724005 0.751336 -0.124304
H1    H     H_    0.155172 0.329546 0.167634 0.107762
H2    H     H_    0.157624 0.657259 0.478231 0.110666
H3    H     H_    0.670417 0.499424 0.835356 0.109713
H4    H     H_    0.891706 0.345091 0.191831 0.123497
H5    H     H_    0.924972 0.413024 0.070836 0.107189
H6    H     H_    0.854880 0.460224 0.362674 0.152178
H7    H     H_    0.105166 0.398584 0.618455 0.133771
H8    H     H_    0.086572 0.483181 0.784202 0.106704
H9    H     H_    0.039181 0.426148 0.905705 0.101871
H10   H     H_    0.852945 0.278194 0.831465 0.097022
H11   H     H_    0.713401 0.185787 0.633910 0.115967
H12   H     H_    0.857411 0.527432 0.676473 0.101779
H13   H     H_    0.759363 0.239765 0.510445 0.110658
H14   H     H_    0.522756 0.702742 0.003722 0.126789
H15   H     H_    0.372187 0.125781 0.320442 0.118466
H16   H     H_    0.499917 0.676589 0.144991 0.133986
H17   H     H_    0.755756 0.484940 0.164528 0.210885
H18   H     H_    0.608286 0.388165 0.050248 0.232276
H19   H     H_    0.790354 0.525885 0.035486 0.214521
H20   H     H_    0.643084 0.421497 0.928455 0.202223
H21   H     H_    0.448550 0.968865 0.662343 0.126110
H22   H     H_    0.445265 0.130270 0.659147 0.126609
H23   H     H_    0.697691 0.875165 0.750676 0.111399
H24   H     H_    0.328275 0.930736 0.221663 0.165209
H25   H     H_    0.475623 0.029729 0.328107 0.210070
H26   H     H_    0.350160 0.783674 0.231826 0.112558
H27   H     H_    0.296076 0.572970 0.676289 0.100975
H28   H     H_    0.195459 0.025216 0.982842 0.124149
H29   H     H_    0.029914 0.860911 0.824080 0.126808
H30   H     H_    0.803764 0.081396 0.857489 0.190562
H31   H     H_    0.815621 0.010273 0.939344 0.201218
H32   H     H_    0.966800 0.243202 0.010252 0.188522
H33   H     H_    0.976317 0.170680 0.090730 0.202790
H34   H     H_    0.878188 0.703372 0.762886 0.092318
H35   H     H_    0.559869 0.296940 0.675844 0.095079
H36   H     H_    0.123883 0.380456 0.320268 0.107804
H37   H     H_    0.482151 0.658059 0.831882 0.083926
H38   H     H_    0.318003 0.144491 0.165193 0.078243
H39   H     H_    0.346599 0.675440 0.323652 0.091386
H40   H     H_    0.426536 0.262425 0.076019 0.103050
H41   H     H_    0.490521 0.256582 0.199263 0.102535
H42   H     H_    0.621011 0.221692 0.139394 0.261294
H43   H     H_    0.479355 0.115260 0.049372 0.219557
H44   H     H_    0.539524 0.209340 0.010339 0.248614
H45   H     H_    0.435406 0.610400 0.232171 0.127915
H46   H     H_    0.585764 0.965434 0.434809 0.256854
H47   H     H_    0.537627 0.820200 0.356656 0.244474
H48   H     H_    0.555553 0.901651 0.293632 0.244874
H49   H     H_    0.525964 0.858056 0.675512 0.087516
H50   H     H_    0.674656 0.339492 0.325980 0.147013
H51   H     H_    0.073442 0.602368 0.152516 0.096857
H52   H     H_    0.187705 0.724262 0.355745 0.111206
N1    N     N_R   0.291070 0.347930 0.293870 -0.035118
N2    N     N_R   0.497240 0.291100 0.443210 -0.045282
N3    N     N_R   0.347890 0.554050 0.556810 -0.040437
N4    N     N_R   0.554050 0.347900 0.556830 -0.037743
N5    N     N_R   0.291070 0.497250 0.443190 -0.039990
N6    N     N_R   0.497240 0.554030 0.706140 -0.037511
N7    N     N_R   0.347890 0.291110 0.293870 -0.041987
N8    N     N_R   0.445950 0.652100 0.443170 -0.034062
N9    N     N_R   0.708930 0.502750 0.556810 -0.042812
N10   N     N_R   0.502760 0.445970 0.293860 -0.106058
N11   N     N_R   0.652110 0.708890 0.706130 -0.040710
N12   N     N_R   0.708930 0.652070 0.706130 -0.041051
N13   N     N_R   0.445950 0.502780 0.293850 -0.061739
N14   N     N_R   0.502760 0.708900 0.556790 -0.038086
N15   N     N_R   0.652110 0.445950 0.443190 -0.045366
N16   N     N_R   0.554050 0.497220 0.706150 -0.038872
Ni1   Ni    Ni4+2 0.369690 0.500010 0.369700 0.208344
Ni2   Ni    Ni4+2 0.630310 0.499990 0.630300 0.210985
Ni3   Ni    Ni4+2 0.500000 0.369720 0.369720 0.199601
Ni4   Ni    Ni4+2 0.500000 0.630280 0.630280 0.207981
O1    O     O_3   0.587804 0.389275 0.195133 -0.673568

loop_
_geom_bond_atom_site_label_1
_geom_bond_atom_site_label_2
_ccdc_geom_bond_type
C25   C31   A    
C5    N15   A    
C41   H20   S    
C45   N8    A    
C18   H6    S    
C6    C45   A    
C27   C29   A    
C53   C63   S    
C2    H45   S    
C35   C36   A    
C39   H18   S    
N15   Ni3   S    
N10   N13   A    
C64   H40   S    
C56   H12   S    
C39   C41   S    
C53   C54   A    
N4    Ni2   S    
N16   Ni2   S    
C21   H7    S    
C26   C27   A    
C2    N13   A    
C66   H47   S    
C5    H50   S    
C18   C24   A    
C22   C24   A    
C36   C37   A    
C16   N2    A    
C9    C69   A    
C27   H10   S    
C30   C31   A    
C11   H2    S    
C50   H26   S    
N2    N4    A    
C10   C17   A    
C23   C40   A    
C16   H15   S    
C59   H30   S    
C18   C19   A    
N6    Ni4   S    
C68   N11   A    
C1    N1    A    
C65   H42   S    
N10   Ni3   S    
C17   H51   S    
C68   H23   S    
C4    N16   A    
N8    N14   A    
N8    Ni1   S    
C19   C20   A    
N11   N12   A    
C66   H48   S    
C32   C41   S    
C54   H28   S    
C32   C38   A    
C49   H25   S    
C4    C12   A    
C3    N14   A    
C45   H39   S    
C10   H52   S    
C28   C34   A    
C59   C60   S    
C21   C22   A    
N1    N7    A    
C59   H31   S    
C7    C56   A    
C60   H33   S    
N9    Ni2   S    
C1    C63   A    
C44   C46   A    
C69   H34   S    
C22   C34   S    
N9    N15   A    
C23   C47   S    
C66   H46   S    
C14   H4    S    
N1    Ni1   S    
C5    C7    A    
C35   H14   S    
C42   C48   A    
C46   H22   S    
C25   C26   A    
N2    Ni3   S    
C13   C24   S    
C51   C53   A    
C30   H13   S    
C43   C44   A    
C65   H43   S    
C29   C30   A    
C3    H49   S    
C40   H35   S    
C64   H41   S    
C47   C48   A    
C62   C63   A    
C61   N6    A    
C51   C58   A    
C26   H9    S    
C61   H37   S    
C50   C66   S    
C42   C50   S    
C48   C49   S    
C52   H36   S    
N12   Ni2   S    
C37   C38   A    
C7    C19   S    
C6    C43   S    
C55   C57   A    
C25   H8    S    
N3    Ni4   S    
C8    C37   S    
C60   H32   S    
C4    H3    S    
C44   H21   S    
N3    N5    A    
N11   Ni4   S    
C15   C17   A    
C41   H19   S    
C54   C55   A    
N5    Ni1   S    
C69   N12   A    
C65   H44   S    
C67   N10   A    
N13   Ni1   S    
C28   N3    A    
C62   H38   S    
C36   H16   S    
C16   C23   A    
C34   C52   A    
C1    H1    S    
C28   H27   S    
C64   C65   S    
C58   C59   S    
C9    C68   A    
C32   C33   A    
C62   N7    A    
C12   C61   A    
C11   C13   A    
C52   N5    A    
C57   C58   A    
C38   C39   S    
C29   H11   S    
C64   O1    S    
C40   N4    A    
C55   H29   S    
C33   C35   A    
C9    C57   S    
N7    Ni3   S    
C46   C47   A    
C10   C11   A    
N14   Ni4   S    
C15   H5    S    
C20   C21   A    
C8    C67   A    
C49   C50   S    
C42   C43   A    
C3    C6    A    
C2    C8    A    
C14   C15   A    
C51   C60   S    
N6    N16   A    
C39   H17   S    
C49   H24   S    
C12   C33   S    
C13   C14   A    
C67   O1    S    
C56   N9    A    
C20   C31   S    
