data_mof_unit_53934.cif
_audit_creation_date              2012-10-26T19:24:24-0400
_audit_creation_method            fapswitch 2.2
_symmetry_space_group_name_H-M    P1
_symmetry_Int_Tables_number       1
_space_group_crystal_system       triclinic
_cell_length_a                    27.816219
_cell_length_b                    10.860273
_cell_length_c                    9.607847
_cell_angle_alpha                 91.035639
_cell_angle_beta                  90.005757
_cell_angle_gamma                 94.685015
_cell_volume                      2892.27725934

loop_
_atom_site_label
_atom_site_type_symbol
_atom_type_description
_atom_site_fract_x
_atom_site_fract_y
_atom_site_fract_z
_atom_type_partial_charge
C1    C     C_R   0.493915 0.262595 0.499360 0.544991
C2    C     C_R   0.971059 0.385259 0.531558 0.018210
C3    C     C_R   0.977464 0.606536 0.472304 0.018569
C4    C     C_R   0.407551 0.499889 0.499955 0.534296
C5    C     C_R   0.949000 0.495445 0.502100 0.033913
C6    C     C_R   0.940873 0.276136 0.554723 -0.140658
C7    C     C_R   0.890959 0.276230 0.553523 -0.111846
C8    C     C_R   0.868986 0.384705 0.528523 0.023895
C9    C     C_R   0.897822 0.494520 0.502379 -0.027169
C10   C     C_R   0.875332 0.603398 0.476447 0.025338
C11   C     C_R   0.824776 0.600465 0.477037 0.395667
C12   C     C_R   0.279175 0.507846 0.374227 -0.059055
C13   C     C_R   0.818535 0.385707 0.527867 0.398924
C14   C     C_R   0.721383 0.503845 0.376029 -0.058299
C15   C     C_R   0.671293 0.504384 0.375219 -0.155954
C16   C     C_R   0.497161 0.737765 0.502071 0.568881
C17   C     C_R   0.670067 0.479829 0.625658 -0.153968
C18   C     C_R   0.720160 0.478988 0.626177 -0.066810
C19   C     C_R   0.745981 0.491611 0.501497 0.244084
C20   C     C_R   0.022229 0.387364 0.536031 0.018363
C21   C     C_R   0.050650 0.497230 0.501211 0.033913
C22   C     C_R   0.028549 0.606213 0.466873 0.017942
C23   C     C_R   0.253729 0.500845 0.499978 0.242703
C24   C     C_R   0.046249 0.283202 0.575094 -0.141700
C25   C     C_R   0.108484 0.710551 0.425764 -0.111439
C26   C     C_R   0.953585 0.714742 0.449739 -0.141496
C27   C     C_R   0.903618 0.712841 0.451461 -0.113710
C28   C     C_R   0.592356 0.497455 0.499983 0.563407
C29   C     C_R   0.058592 0.711287 0.427190 -0.140992
C30   C     C_R   0.455961 0.123896 0.744534 -0.066008
C31   C     C_R   0.459880 0.074665 0.875789 -0.115656
C32   C     C_R   0.480650 0.964076 0.889420 -0.140576
C33   C     C_R   0.491743 0.895345 0.771502 -0.098053
C34   C     C_R   0.101828 0.498122 0.500722 -0.027103
C35   C     C_R   0.485833 0.941027 0.634919 -0.018035
C36   C     C_R   0.474669 0.065143 0.626227 0.018475
C37   C     C_R   0.483524 0.127890 0.500265 -0.058428
C38   C     C_R   0.485581 0.060002 0.376466 -0.143209
C39   C     C_R   0.484271 0.931954 0.378974 0.228229
C40   C     C_R   0.174970 0.394846 0.536736 0.397315
C41   C     C_R   0.490283 0.871726 0.507026 -0.019687
C42   C     C_R   0.570738 0.644488 0.153395 -0.074254
C43   C     C_R   0.613956 0.684291 0.094934 -0.219435
C44   C     C_R   0.619316 0.674973 0.954026 -0.158685
C45   C     C_R   0.124415 0.392020 0.537820 0.024729
C46   C     C_R   0.578638 0.642960 0.867406 0.285696
C47   C     C_R   0.537312 0.570406 0.927819 0.148801
C48   C     C_R   0.535558 0.570962 0.077862 0.127887
C49   C     C_R   0.465597 0.433966 0.072321 -0.024770
C50   C     C_R   0.465138 0.435718 0.924870 -0.019318
C51   C     C_R   0.181016 0.604085 0.463456 0.397733
C52   C     C_R   0.278760 0.494131 0.625720 -0.057915
C53   C     C_R   0.328880 0.494104 0.625872 -0.146374
C54   C     C_R   0.329298 0.507620 0.374031 -0.151398
C55   C     C_3   0.428321 0.853229 0.221942 -0.005867
C56   C     C_R   0.096235 0.285679 0.575573 -0.113473
C57   C     C_3   0.417491 0.741437 0.125649 -0.356267
C58   C     C_3   0.617404 0.774254 0.696778 -0.021847
C59   C     C_3   0.610487 0.829853 0.554886 -0.356271
C60   C     C_R   0.130564 0.605115 0.463136 0.024628
C61   C     C_R   0.354625 0.500571 0.499932 0.005454
C62   C     C_R   0.645185 0.493823 0.500233 -0.001341
Cu1   Cu    Cu3+1 0.500000 0.499990 0.640660 0.973624
Cu2   Cu    Cu3+1 0.500000 0.500010 0.359340 0.932629
H1    H     H_    0.348123 0.512838 0.275398 0.116263
H2    H     H_    0.438268 0.208211 0.735822 0.122010
H3    H     H_    0.448065 0.123885 0.966933 0.099356
H4    H     H_    0.260024 0.512792 0.276616 0.129527
H5    H     H_    0.487313 0.929917 0.991764 0.161768
H6    H     H_    0.506101 0.810116 0.794964 0.190798
H7    H     H_    0.437325 0.379566 0.126132 0.108709
H8    H     H_    0.567493 0.670117 0.259571 0.193399
H9    H     H_    0.642831 0.727997 0.158831 0.132308
H10   H     H_    0.654039 0.710455 0.915116 0.107024
H11   H     H_    0.436069 0.384420 0.869334 0.098741
H12   H     H_    0.259302 0.489048 0.723333 0.129678
H13   H     H_    0.112734 0.203274 0.606094 0.166050
H14   H     H_    0.653123 0.513330 0.276863 0.136151
H15   H     H_    0.741151 0.512830 0.279164 0.129421
H16   H     H_    0.869589 0.190172 0.572131 0.168517
H17   H     H_    0.954491 0.187756 0.572043 0.108229
H18   H     H_    0.027621 0.198079 0.608335 0.108794
H19   H     H_    0.347382 0.488639 0.724485 0.122892
H20   H     H_    0.418254 0.937303 0.168245 0.125258
H21   H     H_    0.404956 0.838648 0.315831 0.133192
H22   H     H_    0.441246 0.746124 0.032955 0.148927
H23   H     H_    0.129748 0.793594 0.394835 0.169069
H24   H     H_    0.423175 0.655815 0.181991 0.190718
H25   H     H_    0.379326 0.737139 0.090772 0.096184
H26   H     H_    0.649684 0.720748 0.688206 0.135922
H27   H     H_    0.623832 0.852783 0.772429 0.136351
H28   H     H_    0.584147 0.900722 0.562115 0.144131
H29   H     H_    0.645271 0.875954 0.518946 0.122034
H30   H     H_    0.598393 0.757084 0.477543 0.149706
H31   H     H_    0.972356 0.803734 0.432444 0.107280
H32   H     H_    0.650917 0.470467 0.723509 0.135250
H33   H     H_    0.887219 0.798236 0.433141 0.164714
H34   H     H_    0.738996 0.469403 0.723527 0.129440
H35   H     H_    0.044836 0.795803 0.394142 0.110142
H36   H     H_    0.487407 0.105562 0.276958 0.145111
N1    N     N_R   0.202125 0.499914 0.499991 -0.397734
N2    N     N_R   0.797552 0.492598 0.502284 -0.397715
N3    N     N_R   0.500460 0.501210 0.147910 -0.245799
N4    N     N_R   0.500480 0.501290 0.852040 -0.238688
O1    O     O_R   0.500000 0.319640 0.618810 -0.502151
O2    O     O_R   0.569730 0.499970 0.618800 -0.442202
O3    O     O_R   0.569740 0.499990 0.381230 -0.529959
O4    O     O_2   0.196840 0.293125 0.571026 -0.496812
O5    O     O_3   0.478160 0.866156 0.254732 -0.552272
O6    O     O_3   0.576324 0.695519 0.735837 -0.520631
O7    O     O_2   0.790641 0.280598 0.551584 -0.494184
O8    O     O_2   0.208790 0.706648 0.428721 -0.497807
O9    O     O_2   0.802961 0.704668 0.453386 -0.502258
O10   O     O_R   0.500000 0.319660 0.381240 -0.499836
O11   O     O_R   0.430260 0.500010 0.618770 -0.520078
O12   O     O_R   0.430270 0.500030 0.381200 -0.525959
O13   O     O_R   0.500000 0.680340 0.618760 -0.466031
O14   O     O_R   0.500000 0.680360 0.381190 -0.474174

loop_
_geom_bond_atom_site_label_1
_geom_bond_atom_site_label_2
_ccdc_geom_bond_type
C10   C27   A    
C43   H9    S    
Cu2   N3    S    
C50   N4    A    
C8    C13   A    
Cu2   O12   S    
C22   C29   A    
C4    O11   A    
C35   C36   A    
C7    C8    A    
C39   C41   A    
C54   H1    S    
C31   C32   A    
C31   H3    S    
C12   H4    S    
C12   C23   A    
C26   C27   A    
C51   O8    S    
C57   H25   S    
C36   C37   A    
C30   C31   A    
Cu1   O13   S    
C19   N2    S    
C15   H14   S    
C23   N1    S    
C28   O3    A    
C25   H23   S    
Cu2   O14   S    
C57   H22   S    
C18   C19   A    
C24   H18   S    
C40   N1    A    
C53   C61   A    
C20   C24   A    
C45   C56   A    
C28   O2    A    
C8    C9    A    
C59   H30   S    
Cu1   O1    S    
C9    C10   A    
C1    C37   S    
C40   O4    S    
Cu1   O11   S    
C6    H17   S    
C21   C22   A    
C55   O5    S    
C34   C60   A    
C2    C6    A    
C35   C41   A    
C44   C46   A    
C6    C7    A    
C25   C29   A    
C40   C45   A    
Cu2   O10   S    
C29   H35   S    
C2    C20   A    
C38   H36   S    
C17   H32   S    
C21   C34   A    
C3    C5    A    
C58   C59   S    
C48   N3    A    
C4    C61   S    
C56   H13   S    
C55   H21   S    
C43   C44   A    
C5    C9    A    
C37   C38   A    
C16   O14   A    
C17   C62   A    
C47   C48   A    
C42   H8    S    
C17   C18   A    
C34   C45   A    
C42   C48   A    
C14   H15   S    
Cu1   O2    S    
C44   H10   S    
C58   H26   S    
C30   H2    S    
C33   H6    S    
C25   C60   A    
C46   O6    S    
C49   H7    S    
C2    C5    A    
C24   C56   A    
C42   C43   A    
C52   C53   A    
Cu2   O3    S    
C58   H27   S    
C26   H31   S    
C46   C47   A    
C27   H33   S    
C47   N4    A    
C58   O6    S    
C14   C19   A    
C4    O12   A    
C3    C26   A    
Cu1   N4    S    
C52   H12   S    
C49   N3    A    
C32   H5    S    
C54   C61   A    
C51   N1    A    
C59   H29   S    
C57   H24   S    
C30   C36   A    
C53   H19   S    
C32   C33   A    
C55   C57   S    
C13   N2    A    
C13   O7    S    
C50   H11   S    
C23   C52   A    
C38   C39   A    
C33   C35   A    
C15   C62   A    
C11   N2    A    
C59   H28   S    
C11   O9    S    
C10   C11   A    
Cu1   Cu2   S    
C39   O5    S    
C20   C21   A    
C49   C50   A    
C1    O10   A    
C14   C15   A    
C3    C22   A    
C51   C60   A    
C18   H34   S    
C55   H20   S    
C16   O13   A    
C16   C41   S    
C12   C54   A    
C1    O1    A    
C7    H16   S    
C28   C62   S    
