data_mof_unit_33506.cif
_audit_creation_date              2012-12-11T21:12:13-0500
_audit_creation_method            fapswitch 2.2
_symmetry_space_group_name_H-M    P1
_symmetry_Int_Tables_number       1
_space_group_crystal_system       triclinic
_cell_length_a                    8.224926
_cell_length_b                    18.78169
_cell_length_c                    27.013209
_cell_angle_alpha                 99.368257
_cell_angle_beta                  92.860173
_cell_angle_gamma                 88.414092
_cell_volume                      4111.35151478

loop_
_atom_site_label
_atom_site_type_symbol
_atom_type_description
_atom_site_fract_x
_atom_site_fract_y
_atom_site_fract_z
_atom_type_partial_charge
Ba1   Ba    Ba6+2 0.160810 0.465630 0.521640 1.642537
Ba2   Ba    Ba6+2 0.649380 0.534380 0.478400 1.635418
C1    C     C_3   0.431614 0.281711 0.700684 -0.365115
C2    C     C_3   0.440111 0.305728 0.649850 0.341061
C3    C     C_3   0.466799 0.313939 0.397144 0.306237
C4    C     C_3   0.468788 0.232682 0.380874 -0.391525
C5    C     C_3   0.852663 0.734853 0.379123 0.376254
C6    C     C_3   0.821407 0.809376 0.364905 -0.360747
C7    C     C_3   0.374433 0.695034 0.350498 0.351364
C8    C     C_3   0.383998 0.720042 0.300021 -0.356409
C9    C     C_R   0.992286 0.048737 0.477033 0.012394
C10   C     C_R   0.064913 0.096134 0.449425 -0.092670
C11   C     C_R   0.204326 0.952734 0.457363 -0.103253
C12   C     C_3   0.965842 0.271749 0.626615 0.374651
C13   C     C_R   0.054493 0.977282 0.478144 0.018300
C14   C     C_R   0.259495 0.881912 0.456089 -0.092032
C15   C     C_R   0.168641 0.831962 0.475660 -0.031163
C16   C     C_R   0.023692 0.855957 0.500091 -0.000890
C17   C     C_R   0.967068 0.929034 0.501818 0.023905
C18   C     C_R   0.219172 0.758797 0.472010 -0.013583
C19   C     C_R   0.122053 0.710097 0.490359 -0.303042
C20   C     C_R   0.985414 0.733142 0.517636 0.040586
C21   C     C_R   0.937084 0.807214 0.523579 -0.042136
C22   C     C_R   0.848981 0.072981 0.502405 0.024638
C23   C     C_3   0.992126 0.200058 0.645224 -0.365087
C24   C     C_R   0.791094 0.145777 0.503296 -0.003543
C25   C     C_R   0.876871 0.194144 0.479236 -0.040413
C26   C     C_R   0.007739 0.166555 0.450204 -0.021415
C27   C     C_R   0.805886 0.834336 0.552556 -0.026402
C28   C     C_R   0.749694 0.905101 0.554039 -0.090427
C29   C     C_R   0.823778 0.953198 0.527245 0.011700
C30   C     C_R   0.762220 0.024908 0.526478 0.018517
C31   C     C_R   0.613237 0.049727 0.547659 -0.102279
C32   C     C_R   0.645110 0.169609 0.527083 -0.033568
C33   C     C_R   0.556395 0.120116 0.547846 -0.093374
C34   C     C_3   0.839222 0.622550 0.631774 0.300062
C35   C     C_R   0.591137 0.242063 0.528804 -0.008627
C36   C     C_R   0.686062 0.290604 0.509353 -0.301356
C37   C     C_R   0.826778 0.268020 0.484038 0.055875
C38   C     C_R   0.335204 0.468172 0.178795 0.558847
C39   C     C_R   0.195244 0.581081 0.175687 0.575242
C40   C     C_2   0.062358 0.558912 0.273330 -0.092997
C41   C     C_3   0.048051 0.576636 0.329532 -0.050830
C42   C     C_1   0.278114 0.494445 0.337450 0.003689
C43   C     C_2   0.324239 0.502083 0.292292 -0.101002
C44   C     C_2   0.205361 0.529988 0.255307 0.197564
C45   C     C_3   0.842340 0.640443 0.688923 -0.358752
C46   C     C_R   0.326116 0.519197 0.101144 -0.079642
C47   C     C_R   0.381828 0.465456 0.128973 -0.034777
C48   C     C_R   0.481849 0.409192 0.106327 -0.079180
C49   C     C_R   0.229378 0.576574 0.124516 -0.026546
C50   C     C_2   0.142588 0.523937 0.356618 -0.265707
C51   C     C_2   0.647432 0.470894 0.636700 -0.294061
C52   C     C_R   0.511591 0.454802 0.976533 0.020014
C53   C     C_R   0.343378 0.564504 0.970339 0.020431
C54   C     C_R   0.447122 0.507510 0.948090 0.048007
C55   C     C_R   0.615904 0.399865 0.952649 -0.103830
C56   C     C_3   0.956331 0.359259 0.359446 0.284019
C57   C     C_R   0.648800 0.394832 0.902305 -0.060244
C58   C     C_R   0.583592 0.445437 0.873649 -0.023556
C59   C     C_R   0.486577 0.502965 0.896684 -0.081695
C60   C     C_R   0.428170 0.555492 0.868180 -0.032858
C61   C     C_R   0.473204 0.551506 0.817905 0.594883
C62   C     C_R   0.612952 0.438827 0.822177 0.578123
C63   C     C_2   0.740655 0.455716 0.724215 -0.089773
C64   C     C_3   0.751533 0.427851 0.669067 -0.051921
C65   C     C_1   0.519089 0.507864 0.655753 0.035236
C66   C     C_2   0.477700 0.509337 0.702988 -0.103942
C67   C     C_3   0.958932 0.318852 0.305005 -0.257250
C68   C     C_2   0.598713 0.486045 0.741360 0.180947
C69   C     C_R   0.469883 0.458307 0.027530 0.022177
C70   C     C_R   0.366983 0.515516 0.049928 0.046828
C71   C     C_R   0.304146 0.568881 0.021688 0.019541
C72   C     C_R   0.526274 0.405895 0.057057 -0.104843
C73   C     C_R   0.169042 0.629036 0.096418 -0.063048
C74   C     C_R   0.282272 0.615035 0.940043 -0.100517
C75   C     C_R   0.325474 0.611105 0.890492 -0.060691
C76   C     C_R   0.203963 0.625144 0.046184 -0.102549
C77   C     C_3   0.334362 0.686266 0.592445 0.314810
C78   C     C_3   0.338491 0.767616 0.608945 -0.382800
H1    H     H_    0.381869 0.360189 0.652029 0.073059
H2    H     H_    0.756187 0.685942 0.700962 0.133004
H3    H     H_    0.805854 0.592941 0.704792 0.067687
H4    H     H_    0.967777 0.655734 0.703795 0.134991
H5    H     H_    0.078307 0.380696 0.371713 0.006702
H6    H     H_    0.864220 0.403633 0.363184 0.051132
H7    H     H_    0.074245 0.286379 0.300991 0.103956
H8    H     H_    0.858151 0.279344 0.298797 0.120292
H9    H     H_    0.206939 0.670109 0.583353 0.005015
H10   H     H_    0.407808 0.672016 0.558715 0.065676
H11   H     H_    0.303007 0.277953 0.710380 0.150299
H12   H     H_    0.262026 0.783551 0.641849 0.128653
H13   H     H_    0.291190 0.795786 0.578121 0.058497
H14   H     H_    0.465667 0.784676 0.619312 0.118744
H15   H     H_    0.570210 0.308039 0.641557 -0.053771
H16   H     H_    0.493073 0.321538 0.729869 0.131556
H17   H     H_    0.593904 0.331486 0.406268 0.021182
H18   H     H_    0.394619 0.326648 0.431293 0.064202
H19   H     H_    0.542549 0.217884 0.347230 0.126596
H20   H     H_    0.522880 0.205933 0.411714 0.058857
H21   H     H_    0.342697 0.213477 0.371775 0.116136
H22   H     H_    0.493144 0.228214 0.700042 0.114558
H23   H     H_    0.935354 0.156326 0.617692 0.071894
H24   H     H_    0.810280 0.735179 0.417601 0.076318
H25   H     H_    0.986131 0.724166 0.378976 -0.076264
H26   H     H_    0.689801 0.824050 0.366178 0.150049
H27   H     H_    0.890386 0.849998 0.391588 0.069976
H28   H     H_    0.862275 0.810198 0.326334 0.117514
H29   H     H_    0.244117 0.690740 0.358018 -0.064188
H30   H     H_    0.436027 0.641263 0.348424 0.078552
H31   H     H_    0.327928 0.679347 0.270158 0.120926
H32   H     H_    0.513073 0.726534 0.291442 0.151267
H33   H     H_    0.021176 0.267971 0.589618 0.086950
H34   H     H_    0.317531 0.772573 0.300513 0.116446
H35   H     H_    0.159703 0.653919 0.486290 0.072599
H36   H     H_    0.374505 0.867087 0.439220 0.111499
H37   H     H_    0.069097 0.198790 0.427579 0.102524
H38   H     H_    0.743285 0.801294 0.574384 0.097478
H39   H     H_    0.441349 0.134857 0.564642 0.112759
H40   H     H_    0.644857 0.346162 0.511489 0.074979
H41   H     H_    0.284568 0.987518 0.442428 0.071800
H42   H     H_    0.165140 0.080001 0.425615 0.058851
H43   H     H_    0.648485 0.920714 0.577487 0.060280
H44   H     H_    0.534661 0.015501 0.563672 0.071786
H45   H     H_    0.448942 0.489791 0.282519 0.123118
H46   H     H_    0.528114 0.367262 0.126909 0.121348
H47   H     H_    0.838820 0.442639 0.749691 0.129315
H48   H     H_    0.728030 0.351028 0.885933 0.121629
H49   H     H_    0.674978 0.359272 0.971568 0.066921
H50   H     H_    0.603881 0.360490 0.043325 0.067135
H51   H     H_    0.965918 0.576485 0.248989 0.123180
H52   H     H_    0.092275 0.673541 0.113113 0.121192
H53   H     H_    0.199847 0.658697 0.953259 0.068615
H54   H     H_    0.124296 0.187512 0.649795 0.147888
H55   H     H_    0.275414 0.651540 0.869292 0.121064
H56   H     H_    0.354808 0.525404 0.713569 0.146166
H57   H     H_    0.150601 0.667900 0.027867 0.068188
H58   H     H_    0.117363 0.522763 0.395589 0.075615
H59   H     H_    0.657591 0.457210 0.596395 0.087535
H60   H     H_    0.935200 0.202311 0.681962 0.118969
H61   H     H_    0.713587 0.608886 0.617547 0.013482
H62   H     H_    0.922659 0.575712 0.620981 0.077040
N1    N     N_R   0.244259 0.526186 0.202467 -0.418315
N2    N     N_R   0.562516 0.492627 0.794610 -0.420558
O1    O     O_2   0.106080 0.324280 0.466820 -0.465843
O2    O     O_3   0.397461 0.652860 0.631996 -0.622827
O3    O     O_3   0.039090 0.327095 0.661243 -0.587362
O4    O     O_2   0.704230 0.675760 0.533200 -0.467913
O5    O     O_3   0.951180 0.586390 0.529420 -0.488917
O6    O     O_3   0.434080 0.629720 0.443130 -0.477989
O7    O     O_3   0.889053 0.682988 0.612870 -0.640719
O8    O     O_3   0.351080 0.462080 0.440130 -0.474486
O9    O     O_3   0.839200 0.593040 0.416790 -0.471926
O10   O     O_2   0.709576 0.545276 0.326441 -0.512850
O11   O     O_3   0.767109 0.683258 0.344682 -0.586338
O12   O     O_3   0.859130 0.413620 0.470620 -0.481144
O13   O     O_3   0.459240 0.537930 0.559910 -0.492002
O14   O     O_2   0.583120 0.462390 0.379940 -0.465351
O15   O     O_3   0.397255 0.347072 0.357941 -0.638130
O16   O     O_2   0.557690 0.757394 0.480604 -0.490258
O17   O     O_3   0.452070 0.745266 0.387640 -0.599269
O18   O     O_2   0.372717 0.417604 0.200636 -0.628044
O19   O     O_2   0.681090 0.384092 0.801791 -0.618803
O20   O     O_2   0.124027 0.634822 0.196454 -0.618040
O21   O     O_2   0.434103 0.601045 0.795201 -0.600915
O22   O     O_3   0.376230 0.370290 0.556910 -0.482019
O23   O     O_2   0.252278 0.242740 0.520093 -0.490941
O24   O     O_3   0.914621 0.307151 0.387851 -0.657165
O25   O     O_3   0.357724 0.256293 0.613312 -0.604797
O26   O     O_2   0.227190 0.537650 0.620070 -0.461501
O27   O     O_3   0.971110 0.406970 0.583250 -0.483684
O28   O     O_2   0.082633 0.466361 0.674723 -0.493670
P1    P     P_3+3 0.929380 0.335110 0.452880 0.979406
P2    P     P_3+3 0.398530 0.559060 0.613740 0.997595
P3    P     P_3+3 0.962336 0.409693 0.647774 0.954743
P4    P     P_3+3 0.880940 0.664900 0.547160 0.975700
P5    P     P_3+3 0.839638 0.597482 0.353002 0.954140
P6    P     P_3+3 0.394715 0.277115 0.554183 0.936523
P7    P     P_3+3 0.398953 0.440733 0.376978 0.948072
P8    P     P_3+3 0.415140 0.723182 0.446408 0.938970
C79   C     C_R   0.936110 0.364064 0.263854 -0.044132
C80   C     C_R   0.039805 0.352952 0.223450 -0.003184
C81   C     C_R   0.003520 0.384815 0.180755 -0.032286
C82   C     C_R   0.869062 0.431123 0.179042 -0.103289
C83   C     C_R   0.765794 0.442702 0.218977 -0.029515
C84   C     C_R   0.795506 0.407228 0.260283 -0.024346
H63   H     H_    0.145000 0.317183 0.223981 0.098533
H64   H     H_    0.080249 0.373745 0.148963 0.077633
H65   H     H_    0.843739 0.457218 0.146541 0.072553
H66   H     H_    0.661487 0.478320 0.217411 0.094532
H67   H     H_    0.707009 0.411996 0.288829 0.106678
H68   H     H_    0.832505 0.280712 0.621699 -0.077757

loop_
_geom_bond_atom_site_label_1
_geom_bond_atom_site_label_2
_ccdc_geom_bond_type
Ba2   O6    S    
C53   C54   A    
C6    H27   S    
C32   C35   A    
Ba1   O26   S    
C60   C75   A    
Ba1   O1    S    
C37   P1    S    
C17   C29   A    
C83   C84   A    
C5    C6    S    
C18   P8    S    
C28   H43   S    
C43   C44   S    
C73   H52   S    
C13   C17   A    
C35   P6    S    
Ba1   P1    S    
C24   C25   A    
O4    P4    D    
C10   C26   A    
C63   H47   S    
C55   H49   S    
C35   C36   A    
C22   C24   A    
Ba1   Ba2   S    
C26   H37   S    
C48   C72   A    
C3    C4    S    
O3    P3    S    
C41   C50   S    
C55   C57   A    
C65   P2    S    
Ba2   O4    S    
C38   C47   A    
C6    H28   S    
C9    C22   A    
C15   C18   A    
C82   C83   A    
Ba1   O8    S    
C1    H11   S    
C32   C33   A    
C40   C44   D    
C4    H21   S    
C84   H67   S    
C34   H62   S    
C80   C81   A    
O16   P8    D    
C77   H10   S    
Ba2   P4    S    
C9    C13   A    
C24   C32   A    
C46   C49   A    
C52   C69   A    
O15   P7    S    
C43   H45   S    
C14   C15   A    
C3    O15   S    
C31   H44   S    
C50   H58   S    
C61   N2    Am   
C5    H25   S    
Ba1   O5    S    
C1    H16   S    
O22   P6    S    
C45   H3    S    
C56   O24   S    
C7    C8    S    
C67   H7    S    
O28   P3    D    
C19   H35   S    
O13   P2    S    
C36   H40   S    
C42   C50   D    
Ba2   O5    S    
C57   C58   A    
C51   H59   S    
C19   C20   A    
Ba2   O8    S    
C21   C27   A    
C46   C70   A    
C62   O19   D    
C51   C65   D    
C14   H36   S    
C42   P7    S    
C77   O2    S    
O9    P5    S    
C7    H29   S    
O24   P1    S    
O12   P1    S    
C52   C54   A    
Ba1   P2    S    
C2    O25   S    
C2    H1    S    
C16   C21   A    
C83   H66   S    
C23   H60   S    
C74   C75   A    
C8    H34   S    
C25   C37   A    
C16   C17   A    
C62   N2    Am   
C57   H48   S    
C79   C80   A    
O27   P3    S    
C12   O3    S    
Ba1   O27   S    
C65   C66   D    
C58   C59   A    
C4    H20   S    
C78   H12   S    
Ba1   O12   S    
C7    O17   S    
O14   P7    D    
C22   C30   A    
C81   C82   A    
C38   O18   D    
C27   C28   A    
C56   H6    S    
C2    H15   S    
C11   H41   S    
C29   C30   A    
C66   H56   S    
C28   C29   A    
C71   C76   A    
C60   C61   A    
C15   C16   A    
C5    O11   S    
C8    H31   S    
C56   C67   S    
C45   H4    S    
C18   C19   A    
O17   P8    S    
C8    H32   S    
C51   C64   S    
C67   H8    S    
C40   H51   S    
Ba2   O14   S    
C48   H46   S    
C53   C74   A    
C1    H22   S    
C46   C47   A    
O1    P1    D    
C47   C48   A    
Ba2   O9    S    
C5    H24   S    
C11   C13   A    
C74   H53   S    
C34   C45   S    
C11   C14   A    
C40   C41   S    
C39   O20   D    
C78   H14   S    
C1    C2    S    
C76   H57   S    
C23   H54   S    
O25   P6    S    
C42   C43   D    
O6    P8    S    
O26   P2    D    
C7    H30   S    
C34   H61   S    
C41   P5    S    
Ba2   O12   S    
O7    P4    S    
C54   C59   A    
C38   N1    Am   
C45   H2    S    
C23   H23   S    
C49   C73   A    
C70   C71   A    
C6    H26   S    
C69   C72   A    
C20   P4    S    
C79   C84   A    
C34   O7    S    
C39   N1    Am   
C44   N1    S    
C39   C49   A    
C12   H33   S    
C27   H38   S    
C68   N2    S    
C56   H5    S    
C58   C62   A    
O5    P4    S    
C4    H19   S    
O8    P7    S    
Ba1   O13   S    
C12   H68   S    
C69   C70   A    
C81   H64   S    
C30   C31   A    
C33   H39   S    
C36   C37   A    
Ba1   O22   S    
Ba2   O13   S    
O2    P2    S    
C31   C33   A    
C72   H50   S    
C3    H17   S    
C80   H63   S    
C12   C23   S    
C59   C60   A    
C64   P3    S    
C73   C76   A    
C77   H9    S    
C77   C78   S    
C53   C71   A    
O11   P5    S    
C61   O21   D    
O23   P6    D    
C10   H42   S    
C3    H18   S    
C66   C68   S    
C63   C64   S    
O10   P5    D    
C25   C26   A    
C20   C21   A    
C75   H55   S    
C78   H13   S    
C82   H65   S    
C63   C68   D    
C9    C10   A    
C67   C79   S    
C52   C55   A    
