data_mof_unit_9877.cif
_audit_creation_date              2012-12-11T14:33:00-0500
_audit_creation_method            fapswitch 2.2
_symmetry_space_group_name_H-M    P1
_symmetry_Int_Tables_number       1
_space_group_crystal_system       triclinic
_cell_length_a                    6.944966
_cell_length_b                    14.008365
_cell_length_c                    17.893642
_cell_angle_alpha                 113.22671
_cell_angle_beta                  95.607593
_cell_angle_gamma                 90.48151
_cell_volume                      1589.98434697

loop_
_atom_site_label
_atom_site_type_symbol
_atom_type_description
_atom_site_fract_x
_atom_site_fract_y
_atom_site_fract_z
_atom_type_partial_charge
O1    O     O_R   0.484560 0.544530 0.414330 -0.537804
O2    O     O_R   0.197040 0.638810 0.585080 -0.542667
O3    O     O_R   0.026800 0.455470 0.585670 -0.545256
C1    C     C_R   0.374826 0.679905 0.609556 0.677837
O4    O     O_R   0.155000 0.556150 0.414940 -0.543944
O5    O     O_R   0.984450 0.372220 0.414320 -0.539602
C2    C     C_R   0.317891 0.564977 0.386604 0.755721
O6    O     O_R   0.526900 0.627780 0.585680 -0.535357
O7    O     O_3   0.339170 0.439750 0.499990 -0.374045
V1    V     V_3+5 0.064350 0.511180 0.500000 1.360795
O8    O     O_R   0.654880 0.361190 0.414920 -0.543301
C3    C     C_R   0.815408 0.327493 0.383900 0.768795
O9    O     O_R   0.696930 0.443850 0.585060 -0.543471
C4    C     C_R   0.873136 0.431186 0.610990 0.701021
V2    V     V_3+5 0.564340 0.488820 0.500000 1.369917
O10   O     O_3   0.839390 0.560250 0.500010 -0.375877
C5    C     C_R   0.040040 0.863130 0.824314 -0.090553
C6    C     C_R   0.906283 0.389487 0.675821 -0.118393
C7    C     C_R   0.941207 0.822059 0.681603 -0.138828
C8    C     C_R   0.994280 0.791255 0.744314 -0.193759
C9    C     C_R   0.023584 0.970330 0.842107 0.135541
C10   C     C_R   0.988905 0.004936 0.776072 0.094488
C11   C     C_R   0.945893 0.926777 0.695829 0.092314
C12   C     C_R   0.995255 0.111749 0.784518 0.078934
C13   C     C_R   0.949587 0.136895 0.713977 0.075580
C14   C     C_R   0.931266 0.053522 0.637203 -0.207269
C15   C     C_R   0.919797 0.951785 0.628269 -0.216254
C16   C     C_R   0.063096 0.193322 0.858903 -0.141281
C17   C     C_R   0.066440 0.294950 0.867422 -0.224157
C18   C     C_R   0.008178 0.321087 0.801821 0.051831
C19   C     C_R   0.945068 0.244196 0.722571 0.063880
C20   C     C_R   0.020764 0.425744 0.816746 -0.101708
C21   C     C_R   0.975562 0.459537 0.755241 0.160251
C22   C     C_R   0.883581 0.280959 0.658424 0.010525
H1    H     H_    0.901221 0.891341 0.566847 0.118957
H2    H     H_    0.121584 0.354363 0.926495 0.117951
H3    H     H_    0.905139 0.762971 0.620425 0.148156
H4    H     H_    0.999263 0.710219 0.728485 0.120813
H5    H     H_    0.943157 0.062522 0.581768 0.157088
H6    H     H_    0.130682 0.182532 0.911113 0.179419
H7    H     H_    0.071886 0.483013 0.877317 0.149533
H8    H     H_    0.110839 0.224050 0.307511 0.144122
C23   C     C_2   0.130022 0.039956 0.181546 -0.337616
C24   C     C_2   0.963700 0.089110 0.204035 0.235828
H9    H     H_    0.665454 0.191741 0.284594 0.125171
C25   C     C_2   0.807470 0.228909 0.311472 -0.340193
C26   C     C_2   0.969596 0.186828 0.278544 -0.192504
H10   H     H_    0.268130 0.075236 0.216089 0.081849
C27   C     C_R   0.412773 0.787031 0.676968 -0.059183
C28   C     C_R   0.537761 0.470063 0.828809 -0.055724
C29   C     C_R   0.526736 0.890937 0.819492 -0.134210
C30   C     C_R   0.479163 0.794411 0.755430 -0.135670
C31   C     C_R   0.403308 0.880716 0.663330 -0.200006
C32   C     C_R   0.453460 0.981559 0.728655 0.088961
C33   C     C_R   0.512662 0.983832 0.807333 0.103240
C34   C     C_R   0.446311 0.080102 0.719757 0.069106
C35   C     C_R   0.499243 0.177608 0.788991 0.057540
C36   C     C_R   0.554502 0.173163 0.865179 -0.179137
C37   C     C_R   0.559055 0.078737 0.874026 -0.187425
C38   C     C_R   0.385947 0.084630 0.644124 -0.183750
C39   C     C_R   0.370426 0.179097 0.636255 -0.239554
C40   C     C_R   0.423777 0.273636 0.701751 0.126321
C41   C     C_R   0.492044 0.276087 0.779666 0.104017
C42   C     C_R   0.412005 0.365669 0.688293 -0.155862
C43   C     C_R   0.468803 0.461897 0.750542 -0.131086
C44   C     C_R   0.548218 0.377059 0.843681 -0.226227
H11   H     H_    0.600359 0.080125 0.934432 0.123731
H12   H     H_    0.599048 0.385695 0.905003 0.095758
H13   H     H_    0.456630 0.531029 0.737606 0.091793
H14   H     H_    0.327860 0.177824 0.576188 0.109779
H15   H     H_    0.576050 0.893002 0.879435 0.140360
H16   H     H_    0.493707 0.724679 0.767428 0.093812
H17   H     H_    0.357578 0.872422 0.601687 0.093071
H18   H     H_    0.593242 0.242285 0.919717 0.125462
H19   H     H_    0.347026 0.015834 0.589416 0.125057
H20   H     H_    0.358442 0.363128 0.628577 0.137361
H21   H     H_    0.333985 0.667355 0.195088 0.152729
H22   H     H_    0.615320 0.591303 0.307815 0.153643
C45   C     C_2   0.314769 0.602195 0.319162 -0.349723
C46   C     C_2   0.476802 0.611186 0.285401 -0.129759
H23   H     H_    0.772655 0.636667 0.206470 0.125991
C47   C     C_2   0.634453 0.656326 0.183608 -0.347819
C48   C     C_2   0.472518 0.647449 0.217470 -0.129738
H24   H     H_    0.176606 0.621848 0.296262 0.126120
O11   O     O_R   0.421600 0.630430 0.917010 -0.531114
O12   O     O_R   0.793840 0.702190 0.087630 -0.546674
O13   O     O_R   0.964010 0.886170 0.088190 -0.508830
C49   C     C_R   0.631086 0.693408 0.116083 0.746280
O14   O     O_R   0.751460 0.619510 0.917500 -0.527974
O15   O     O_R   0.921330 0.802900 0.916840 -0.537914
C50   C     C_R   0.574289 0.577726 0.894854 0.682871
O16   O     O_R   0.464290 0.713700 0.088350 -0.541169
O17   O     O_3   0.609200 0.818520 0.002630 -0.367074
V3    V     V_3+5 0.884140 0.747190 0.002530 1.425401
O18   O     O_R   0.251150 0.814630 0.917340 -0.544225
C51   C     C_R   0.074350 0.824029 0.889839 0.729886
O19   O     O_R   0.293530 0.897310 0.087470 -0.550543
C52   C     C_R   0.130233 0.935448 0.114271 0.773926
V4    V     V_3+5 0.384070 0.769710 0.002370 1.402279
O20   O     O_3   0.109180 0.698190 0.002460 -0.371358
N1    N     N_3   0.781007 0.048060 0.155499 -0.619131
H25   H     H_    0.690175 0.027012 0.190353 0.222597
H26   H     H_    0.717794 0.105958 0.139699 0.215247
C53   C     C_3   0.770129 0.213801 0.576320 -0.373801
C54   C     C_3   0.891873 0.181091 0.503754 -0.320806
C55   C     C_3   0.783843 0.095848 0.428132 -0.783807
H27   H     H_    0.750649 0.026402 0.440920 0.223460
H28   H     H_    0.646358 0.124476 0.409467 0.228236
H29   H     H_    0.875483 0.072038 0.376962 0.230207
H30   H     H_    0.926718 0.248739 0.489830 0.195830
H31   H     H_    0.031914 0.152211 0.517759 0.183904
H32   H     H_    0.695158 0.145934 0.578949 0.195669
H33   H     H_    0.647645 0.256871 0.562894 0.178817
N2    N     N_3   0.001440 0.567862 0.775902 -0.650932
H34   H     H_    0.868640 0.593468 0.760180 0.205952
H35   H     H_    0.108514 0.577202 0.741909 0.210373
N3    N     N_3   0.026486 0.039985 0.926251 -0.709317
H36   H     H_    0.159996 0.036167 0.957259 0.213364
H37   H     H_    0.917358 0.015617 0.952049 0.228913

loop_
_geom_bond_atom_site_label_1
_geom_bond_atom_site_label_2
_ccdc_geom_bond_type
C39   H14   S    
C13   C19   A    
C44   H12   S    
C54   H30   S    
C27   C31   A    
O17   V3    S    
C33   C37   A    
C28   C43   A    
C4    C6    S    
O2    C1    A    
O18   C51   A    
C23   C52   S    
C1    O6    A    
H23   C47   S    
O11   C50   A    
C31   C32   A    
C17   H2    S    
C14   C15   A    
N1    H25   S    
O11   V4    S    
C16   C17   A    
N3    H37   S    
O5    C3    A    
C45   H24   S    
O18   V4    S    
C14   H5    S    
C55   H27   S    
H21   C48   S    
V2    O10   S    
O13   V3    S    
O19   C52   A    
C5    C8    A    
C34   C35   A    
O14   V3    S    
C40   C42   A    
C7    H3    S    
C37   H11   S    
C32   C33   A    
O8    V2    S    
C49   O16   A    
C9    N3    S    
C20   H7    S    
C35   C41   A    
O1    V2    S    
C11   C15   A    
O14   C50   A    
O12   V3    S    
C23   H10   S    
O17   V4    S    
C29   C33   A    
C24   C26   S    
O13   C52   A    
C54   H31   S    
C41   C44   A    
N1    H26   S    
O9    C4    A    
C29   H15   S    
C46   C48   S    
C53   C54   S    
O19   V4    S    
O15   V3    S    
O4    C2    A    
C32   C34   A    
O12   C49   A    
C29   C30   A    
C12   C13   A    
C3    C25   S    
C53   H32   S    
C15   H1    S    
C36   C37   A    
H9    C25   S    
C5    C9    A    
C34   C38   A    
C38   C39   A    
C7    C11   A    
C23   C24   D    
C17   C18   A    
C30   H16   S    
C8    H4    S    
V4    O20   S    
V3    O20   S    
C24   N1    S    
C27   C30   A    
C40   C41   A    
C42   H20   S    
C19   C22   A    
C5    C51   S    
C21   N2    S    
O15   C51   A    
C6    C22   A    
O3    C4    A    
O6    V2    S    
O9    V2    S    
C10   C12   A    
C45   C46   D    
O2    V1    S    
C36   H18   S    
C2    C45   S    
O7    V1    S    
C43   H13   S    
C25   C26   D    
O1    C2    A    
C31   H17   S    
C12   C16   A    
O5    V1    S    
N2    H35   S    
O8    C3    A    
C28   C44   A    
N2    H34   S    
C54   C55   S    
C38   H19   S    
C1    C27   S    
C42   C43   A    
C7    C8    A    
C13   C14   A    
O4    V1    S    
O3    V1    S    
V1    O10   S    
N3    H36   S    
C20   C21   A    
C18   C20   A    
C35   C36   A    
C18   C19   A    
C55   H28   S    
C47   C49   S    
H22   C46   S    
H8    C26   S    
O7    V2    S    
C39   C40   A    
C6    C21   A    
C22   C53   S    
C53   H33   S    
C28   C50   S    
C47   C48   D    
C16   H6    S    
C10   C11   A    
C9    C10   A    
O16   V4    S    
C55   H29   S    
