data_mof_unit_32160.cif
_audit_creation_date              2013-03-05T15:50:55-0500
_audit_creation_method            fapswitch 2.2
_symmetry_space_group_name_H-M    P1
_symmetry_Int_Tables_number       1
_space_group_crystal_system       triclinic
_cell_length_a                    12.009771
_cell_length_b                    12.793372
_cell_length_c                    15.72324
_cell_angle_alpha                 90.208847
_cell_angle_beta                  87.011196
_cell_angle_gamma                 94.014013
_cell_volume                      2406.600448

loop_
_atom_site_label
_atom_site_type_symbol
_atom_site_description
_atom_site_fract_x
_atom_site_fract_y
_atom_site_fract_z
_atom_type_partial_charge
O1    O     O_R   0.421690 0.658830 0.504140 -0.641294
O2    O     O_R   0.609320 0.646410 0.494190 -0.558690
C1    C     C_R   0.522717 0.700296 0.497981 0.949440
O3    O     O_R   0.406150 0.506210 0.627840 -0.645034
O4    O     O_R   0.593770 0.493790 0.617880 -0.552533
C2    C     C_R   0.500837 0.500163 0.661611 0.905926
Zn1   Zn    Zn3+2 0.374720 0.508290 0.506640 0.960186
Zn2   Zn    Zn3+2 0.625280 0.491710 0.493360 1.013402
O5    O     O_R   0.390680 0.353590 0.505810 -0.622444
O6    O     O_R   0.578310 0.341170 0.495860 -0.619702
O7    O     O_R   0.406230 0.506210 0.382120 -0.606164
O8    O     O_R   0.593850 0.493790 0.372160 -0.635859
C3    C     C_R   0.477341 0.299628 0.501035 0.905325
C4    C     C_R   0.499335 0.500394 0.338408 0.911100
C5    C     C_3   0.403272 0.562950 0.954608 0.377593
C6    C     C_3   0.618726 0.550086 0.947604 0.114724
C7    C     C_3   0.618279 0.550303 0.046890 0.186511
H1    H     H_    0.433048 0.655730 0.069840 0.213190
H2    H     H_    0.682954 0.496822 0.923374 0.159424
H3    H     H_    0.628278 0.632894 0.070085 0.133468
C8    C     C_1   0.498358 0.501792 0.249658 -0.126741
C9    C     C_3   0.503441 0.503082 0.917233 0.038408
C10   C     C_3   0.411569 0.572644 0.052227 -0.520507
C11   C     C_3   0.502229 0.502654 0.082733 0.042701
C12   C     C_3   0.483046 0.387904 0.048850 0.197394
C13   C     C_3   0.486280 0.388527 0.950165 -0.634446
C14   C     C_1   0.499530 0.502658 0.174336 0.024799
C15   C     C_1   0.503747 0.501795 0.825638 0.052364
C16   C     C_1   0.502846 0.500913 0.750367 -0.102446
H4    H     H_    0.408292 0.349491 0.926101 0.234924
H5    H     H_    0.555900 0.342216 0.924920 0.203298
H6    H     H_    0.325430 0.513641 0.941552 0.114196
H7    H     H_    0.328725 0.551003 0.084600 0.216657
H8    H     H_    0.553503 0.342662 0.068384 0.174458
C17   C     C_R   0.462682 0.188141 0.504496 -0.104536
C18   C     C_R   0.538018 0.811767 0.493334 -0.137813
C19   C     C_R   0.618686 0.968606 0.424484 -0.260918
C20   C     C_R   0.617982 0.860719 0.435458 0.458034
C21   C     C_R   0.462828 0.868336 0.541629 -0.293808
C22   C     C_R   0.460937 0.974815 0.529339 0.071560
C23   C     C_R   0.540284 0.025170 0.470548 0.054972
C24   C     C_R   0.539917 0.131585 0.458316 -0.214256
C25   C     C_R   0.381189 0.139080 0.560345 -0.297506
C26   C     C_R   0.379265 0.031437 0.572750 0.486550
H9    H     H_    0.601728 0.171255 0.414506 0.169586
H10   H     H_    0.322877 0.184555 0.597069 0.173613
H11   H     H_    0.676651 0.007195 0.377488 0.163571
H12   H     H_    0.402555 0.827867 0.586088 0.200894
N1    N     N_R   0.207800 0.519340 0.515510 -0.111509
N2    N     N_R   0.792190 0.480660 0.484490 -0.175067
C27   C     C_R   0.953641 0.424912 0.403693 0.207996
C28   C     C_R   0.837195 0.428581 0.416955 -0.161625
C29   C     C_R   0.858826 0.530315 0.542364 0.377011
C30   C     C_R   0.976476 0.528462 0.532854 -0.054118
C31   C     C_R   0.024657 0.474022 0.463416 -0.083727
C32   C     C_R   0.142273 0.469014 0.457636 0.037706
C33   C     C_R   0.162536 0.575542 0.580331 0.008969
C34   C     C_R   0.046976 0.580697 0.590495 -0.244786
H13   H     H_    0.182577 0.423730 0.408404 0.182711
H14   H     H_    0.216343 0.615458 0.625013 0.130216
H15   H     H_    0.013649 0.625475 0.643153 0.189797
H16   H     H_    0.782042 0.392244 0.371469 0.192495
O9    O     O_3   0.304226 0.983315 0.632513 -0.640684
C35   C     C_3   0.200790 0.962037 0.595009 0.061483
H17   H     H_    0.211497 0.918975 0.533552 0.141532
H18   H     H_    0.161115 0.036521 0.583579 0.156821
C36   C     C_3   0.124008 0.893466 0.655789 -0.335950
H19   H     H_    0.162787 0.818548 0.666452 0.218259
H20   H     H_    0.113801 0.934117 0.718021 0.247487
C37   C     C_3   0.009195 0.869636 0.620221 -0.896428
H21   H     H_    0.968280 0.943368 0.609607 0.269072
H22   H     H_    0.955704 0.820381 0.666292 0.304022
H23   H     H_    0.017180 0.826410 0.559163 0.256236
O10   O     O_3   0.680111 0.801031 0.379712 -0.644598
C38   C     C_3   0.793960 0.813118 0.398304 0.101807
H24   H     H_    0.805193 0.801118 0.467446 0.183127
H25   H     H_    0.830135 0.892541 0.379123 0.142497
C39   C     C_3   0.856152 0.731027 0.347691 -0.315674
H26   H     H_    0.818776 0.651553 0.364936 0.238492
H27   H     H_    0.846387 0.743175 0.278669 0.221588
C40   C     C_3   0.980258 0.737325 0.364849 -0.947930
H28   H     H_    0.019727 0.815996 0.347536 0.272651
H29   H     H_    0.022347 0.677385 0.326098 0.284993
H30   H     H_    0.991823 0.721794 0.433054 0.265283
O11   O     O_3   0.401884 0.663167 0.916270 -0.573721
C41   C     C_3   0.292719 0.698910 0.919516 0.123445
H31   H     H_    0.300607 0.785591 0.925779 0.191529
H32   H     H_    0.240067 0.668951 0.975993 0.116706
C42   C     C_3   0.235256 0.670811 0.836890 -0.404153
H33   H     H_    0.284356 0.708953 0.782161 0.238667
H34   H     H_    0.231653 0.584688 0.826717 0.221836
C43   C     C_3   0.116571 0.706664 0.839761 -0.888279
H35   H     H_    0.065140 0.666872 0.892470 0.277257
H36   H     H_    0.077462 0.686385 0.778981 0.267246
H37   H     H_    0.117728 0.792851 0.848935 0.267919
N3    N     N_R   0.997130 0.374728 0.328369 0.203117
O12   O     O_R   0.944418 0.290769 0.299393 -0.376659
O13   O     O_R   0.075780 0.422928 0.280196 -0.389150
N4    N     N_R   0.808776 0.582835 0.613411 0.219106
O14   O     O_R   0.781070 0.678512 0.605093 -0.410716
O15   O     O_R   0.810155 0.542728 0.689232 -0.368453
N5    N     N_R   0.650921 0.654551 0.911719 0.215250
O16   O     O_R   0.607775 0.738055 0.942658 -0.345237
O17   O     O_R   0.731223 0.665334 0.852931 -0.336793
O18   O     O_3   0.704028 0.488003 0.073461 -0.654679
C44   C     C_3   0.787171 0.546764 0.117494 0.107009
H38   H     H_    0.829572 0.490719 0.156413 0.207571
H39   H     H_    0.751533 0.603665 0.163432 0.120997
C45   C     C_3   0.874319 0.601231 0.054682 -0.352105
H40   H     H_    0.905408 0.542782 0.008363 0.252008
H41   H     H_    0.835379 0.662561 0.018905 0.247853
C46   C     C_3   0.973110 0.652107 0.100568 -0.905891
H42   H     H_    0.944755 0.713974 0.144588 0.265211
H43   H     H_    0.035642 0.688733 0.053251 0.260797
H44   H     H_    0.013812 0.592553 0.137122 0.292918
N6    N     N_R   0.378860 0.334510 0.084818 0.230104
O19   O     O_R   0.383367 0.255878 0.136477 -0.357571
O20   O     O_R   0.281717 0.360896 0.062741 -0.376866

loop_
_geom_bond_atom_site_label_1
_geom_bond_atom_site_label_2
_geom_bond_distance
_ccdc_geom_bond_type
C31   C32   1.416645 A    
C23   C24   1.375961 A    
C11   C14   1.438970 S    
C38   H24   1.114918 S    
C46   H43   1.109983 S    
C40   H28   1.110645 S    
C5    H6    1.118288 S    
C29   C30   1.414912 A    
C29   N4    1.428883 S    
Zn1   O7    1.975067 S    
C4    C8    1.396292 S    
C15   C16   1.184119 T    
C3    C17   1.425723 S    
C45   H41   1.110319 S    
C30   C34   1.407558 A    
O4    C2    1.287411 A    
O7    C4    1.288156 A    
C41   H32   1.115918 S    
C44   H38   1.111161 S    
C7    H3    1.117081 S    
N1    C33   1.357514 A    
N6    O19   1.301078 A    
C17   C24   1.389611 A    
O5    C3    1.287445 A    
C5    C9    1.559227 S    
C6    C7    1.560817 S    
C10   H7    1.111437 S    
N3    O13   1.301315 A    
N2    C28   1.359783 A    
C10   C11   1.552873 S    
C37   H21   1.110716 S    
C42   H34   1.110941 S    
C17   C25   1.396894 A    
C27   C31   1.417093 A    
C12   H8    1.114595 S    
C5    O11   1.420252 S    
C34   H15   1.080724 S    
C5    C10   1.547264 S    
C8    C14   1.183727 T    
C13   H5    1.113870 S    
C9    C15   1.440012 S    
O3    Zn1   1.962525 S    
C38   C39   1.528365 S    
C46   H42   1.109336 S    
C40   H29   1.110648 S    
C26   O9    1.382883 S    
N2    C29   1.368423 A    
O10   C38   1.410893 S    
C36   H19   1.111515 S    
C7    C11   1.559930 S    
C35   C36   1.527791 S    
C11   C12   1.565816 S    
Zn1   N1    2.017057 S    
O3    C2    1.287111 A    
C45   C46   1.526283 S    
C21   C22   1.378486 A    
C41   H31   1.110816 S    
C33   H14   1.081886 S    
C12   C13   1.550144 S    
O11   C41   1.416803 S    
O6    C3    1.288140 A    
C43   H37   1.110713 S    
H1    C10   1.113557 S    
O1    C1    1.288766 A    
C24   H9    1.086100 S    
C35   H18   1.114053 S    
C25   C26   1.389988 A    
C19   C20   1.390980 A    
C7    O18   1.425678 S    
N4    O14   1.299538 A    
Zn2   O8    1.962527 S    
N3    O12   1.301288 A    
C37   H23   1.109342 S    
C43   H36   1.108653 S    
C42   C43   1.526046 S    
N5    O17   1.301103 A    
C38   H25   1.113062 S    
C6    N5    1.471178 S    
C22   C23   1.415667 A    
N4    O15   1.300956 A    
O8    C4    1.286003 A    
C13   H4    1.113501 S    
C12   N6    1.470184 S    
C19   H11   1.084098 S    
Zn2   N2    2.016936 S    
C40   H30   1.108949 S    
C20   O10   1.383778 S    
Zn1   O5    2.001636 S    
C30   C31   1.413122 A    
C6    C9    1.567449 S    
O1    Zn1   1.968513 S    
C18   C21   1.389887 A    
O2    Zn2   2.001636 S    
C41   C42   1.532528 S    
O4    Zn2   1.975067 S    
N1    C32   1.364316 A    
O18   C44   1.415881 S    
C27   N3    1.436854 S    
C32   H13   1.079838 S    
C36   C37   1.525551 S    
C35   H17   1.116623 S    
C18   C20   1.404061 A    
O2    C1    1.286156 A    
C27   C28   1.407183 A    
C28   H16   1.081766 S    
C45   H40   1.111635 S    
C39   H26   1.110937 S    
C39   C40   1.525043 S    
C33   C34   1.394855 A    
C44   H39   1.114610 S    
C1    C18   1.426711 S    
C6    H2    1.116033 S    
C43   H35   1.110496 S    
N6    O20   1.301456 A    
C39   H27   1.110284 S    
C19   C23   1.398322 A    
N5    O16   1.301480 A    
C25   H10   1.083862 S    
O9    C35   1.411684 S    
C22   C26   1.406695 A    
C2    C16   1.396997 S    
Zn2   O6    1.968513 S    
C9    C13   1.552595 S    
C37   H22   1.110235 S    
C36   H20   1.111597 S    
C42   H33   1.111836 S    
C46   H44   1.111032 S    
C21   H12   1.085406 S    
C44   C45   1.533452 S    
