data_mof_unit_11200.cif
_audit_creation_date              2012-10-26T19:41:52-0400
_audit_creation_method            fapswitch 2.2
_symmetry_space_group_name_H-M    P1
_symmetry_Int_Tables_number       1
_space_group_crystal_system       triclinic
_cell_length_a                    10.684295
_cell_length_b                    10.877056
_cell_length_c                    9.688129
_cell_angle_alpha                 88.895022
_cell_angle_beta                  89.421694
_cell_angle_gamma                 97.059625
_cell_volume                      1117.06152891

loop_
_atom_site_label
_atom_site_type_symbol
_atom_type_description
_atom_site_fract_x
_atom_site_fract_y
_atom_site_fract_z
_atom_type_partial_charge
C1    C     C_R   0.509621 0.263148 0.501678 0.569943
C2    C     C_R   0.497285 0.056940 0.631760 0.012923
C3    C     C_R   0.518870 0.127866 0.506109 -0.008554
C4    C     C_R   0.260160 0.498988 0.500333 0.578026
C5    C     C_R   0.523985 0.064600 0.379921 0.109239
C6    C     C_R   0.487020 0.938004 0.375713 0.235035
C7    C     C_R   0.467260 0.867796 0.498831 -0.062593
C8    C     C_R   0.640984 0.701919 0.135248 0.114275
C9    C     C_R   0.666773 0.816006 0.063026 0.315288
C10   C     C_R   0.672280 0.814772 0.921601 0.113055
C11   C     C_R   0.644493 0.701992 0.853872 0.087854
C12   C     C_3   0.973487 0.610459 0.462770 0.169413
C13   C     C_R   0.571411 0.597321 0.922392 0.121856
C14   C     C_R   0.570476 0.597425 0.071535 0.101043
C15   C     C_R   0.421411 0.417552 0.078388 0.225777
C16   C     C_R   0.485731 0.735125 0.499298 0.511775
C17   C     C_R   0.421201 0.416476 0.930657 0.203301
C18   C     C_R   0.739789 0.499304 0.499886 0.614740
C19   C     C_3   0.027704 0.387072 0.538795 0.214279
C20   C     C_3   0.949833 0.415732 0.412517 0.188636
C21   C     C_3   0.875854 0.498778 0.501127 0.077695
C22   C     C_3   0.955210 0.470415 0.627450 0.072082
C23   C     C_3   0.046974 0.528380 0.370381 -0.164462
C24   C     C_3   0.051168 0.582254 0.588788 0.091967
C25   C     C_3   0.124356 0.499289 0.499974 0.011260
C26   C     C_R   0.521571 0.105321 0.765720 0.236343
C27   C     C_R   0.463465 0.041305 0.881701 -0.090675
C28   C     C_R   0.391685 0.926019 0.867158 0.235104
C29   C     C_R   0.393831 0.867695 0.741029 -0.052026
C30   C     C_R   0.453202 0.929446 0.623934 -0.117623
Cu1   Cu    Cu3+1 0.499990 0.499990 0.640660 1.019317
Cu2   Cu    Cu3+1 0.500010 0.500010 0.359340 1.019708
H1    H     H_    0.344742 0.775188 0.734904 0.192693
H2    H     H_    0.718229 0.744576 0.323856 0.262089
H3    H     H_    0.706483 0.916528 0.225724 0.352975
H4    H     H_    0.687863 0.938811 0.760582 0.232295
H5    H     H_    0.826992 0.906340 0.824655 0.230434
H6    H     H_    0.814199 0.690237 0.766617 0.226141
H7    H     H_    0.716564 0.760281 0.663138 0.234710
H8    H     H_    0.331280 0.335859 0.761674 0.309811
H9    H     H_    0.344894 0.241008 0.893978 0.197488
H10   H     H_    0.976898 0.217945 0.593390 0.342809
H11   H     H_    0.983677 0.424795 0.827805 0.264391
H12   H     H_    0.084735 0.552244 0.264777 0.142998
H13   H     H_    0.848869 0.355588 0.762432 0.270007
H14   H     H_    0.035135 0.707863 0.738370 0.250706
H15   H     H_    0.151591 0.748368 0.623758 0.216103
H16   H     H_    0.025514 0.776284 0.396936 0.329744
H17   H     H_    0.505131 0.171560 0.208070 0.244181
H18   H     H_    0.654032 0.185935 0.275216 0.282259
H19   H     H_    0.621227 0.223180 0.882753 0.331079
H20   H     H_    0.476070 0.080015 0.983296 0.125345
H21   H     H_    0.964926 0.290510 0.279159 0.344694
H22   H     H_    0.318924 0.925207 0.050565 0.343837
H23   H     H_    0.392840 0.821779 0.256743 0.340649
H24   H     H_    0.239768 0.359459 0.129731 0.238071
H25   H     H_    0.333694 0.245645 0.129139 0.195904
H26   H     H_    0.817861 0.697395 0.203683 0.252386
N1    N     N_R   0.501210 0.501210 0.147910 -0.213185
N2    N     N_3   0.573414 0.124803 0.254298 -0.545106
N3    N     N_R   0.501250 0.501290 0.852040 -0.221870
N4    N     N_3   0.329036 0.337312 0.156358 -0.548399
N5    N     N_3   0.725690 0.683386 0.243476 -0.529007
N6    N     N_3   0.735538 0.922805 0.851211 -0.539798
N7    N     N_3   0.720676 0.688432 0.735413 -0.527066
N8    N     N_3   0.326987 0.330402 0.867851 -0.602707
N9    N     N_3   0.906852 0.440037 0.766631 -0.586686
N10   N     N_3   0.108070 0.674184 0.683910 -0.585003
O1    O     O_R   0.499990 0.319640 0.618810 -0.473563
O2    O     O_3   0.324581 0.865279 0.975648 -0.685784
O3    O     O_3   0.466775 0.886279 0.248137 -0.673944
O4    O     O_3   0.720071 0.923275 0.124893 -0.621248
O5    O     O_3   0.058706 0.270251 0.577752 -0.687519
O6    O     O_3   0.944725 0.729035 0.428490 -0.728356
O7    O     O_3   0.614619 0.203674 0.783292 -0.668655
O8    O     O_R   0.500000 0.319660 0.381240 -0.498330
O9    O     O_R   0.316850 0.499960 0.618770 -0.495042
O10   O     O_R   0.316860 0.499980 0.381190 -0.494354
O11   O     O_R   0.500000 0.680340 0.618760 -0.506315
O12   O     O_R   0.500010 0.680360 0.381190 -0.490391
O13   O     O_R   0.683140 0.500020 0.618810 -0.450343
O14   O     O_R   0.683150 0.500040 0.381230 -0.445703
O15   O     O_3   0.893926 0.327282 0.322001 -0.689421

loop_
_geom_bond_atom_site_label_1
_geom_bond_atom_site_label_2
_ccdc_geom_bond_type
C12   O6    S    
C18   C21   S    
Cu1   N3    S    
C19   C20   S    
C9    O4    S    
C4    C25   S    
H25   N4    S    
C4    O10   A    
C14   N1    A    
C12   C23   S    
C17   N8    S    
H17   N2    S    
C21   C22   S    
C28   C29   A    
H19   O7    S    
C5    C6    A    
C29   H1    S    
C18   O13   A    
C17   N3    A    
C8    C9    A    
H13   N9    S    
C20   C23   S    
C9    C10   A    
C7    C30   A    
H8    N8    S    
C13   C14   A    
H7    N7    S    
Cu1   O9    S    
C6    O3    S    
C28   O2    S    
H16   O6    S    
C19   O5    S    
C19   C22   S    
C24   C25   S    
C12   C21   S    
C1    O1    A    
C23   H12   S    
C1    C3    S    
H14   N10   S    
C29   C30   A    
Cu2   O12   S    
Cu1   Cu2   S    
H22   O2    S    
H6    N7    S    
C26   O7    S    
C26   C27   A    
C2    C26   A    
H9    N8    S    
C7    C16   S    
H3    O4    S    
H24   N4    S    
H15   N10   S    
H5    N6    S    
C27   H20   S    
H26   N5    S    
C15   C17   A    
H10   O5    S    
C8    C14   A    
C5    N2    S    
C1    O8    A    
C15   N1    A    
C10   N6    S    
C3    C5    A    
Cu2   O8    S    
Cu1   O11   S    
C6    C7    A    
Cu2   O14   S    
C12   C24   S    
Cu1   O13   S    
H21   O15   S    
C2    C30   A    
C16   O11   A    
H18   N2    S    
C2    C3    A    
C4    O9    A    
C11   C13   A    
H2    N5    S    
C18   O14   A    
C15   N4    S    
C22   C24   S    
C23   C25   S    
C19   C25   S    
C22   N9    S    
C10   C11   A    
C24   N10   S    
C8    N5    S    
Cu2   O10   S    
Cu1   O1    S    
C13   N3    A    
C20   C21   S    
H11   N9    S    
C20   O15   S    
C27   C28   A    
Cu2   N1    S    
C16   O12   A    
H4    N6    S    
H23   O3    S    
C11   N7    S    
