data_mof_unit_24665.cif
_audit_creation_date              2012-12-10T17:51:23-0500
_audit_creation_method            fapswitch 2.2
_symmetry_space_group_name_H-M    P1
_symmetry_Int_Tables_number       1
_space_group_crystal_system       triclinic
_cell_length_a                    14.655985
_cell_length_b                    14.566706
_cell_length_c                    17.329911
_cell_angle_alpha                 106.239195
_cell_angle_beta                  73.512668
_cell_angle_gamma                 114.563207
_cell_volume                      3170.65226432

loop_
_atom_site_label
_atom_site_type_symbol
_atom_type_description
_atom_site_fract_x
_atom_site_fract_y
_atom_site_fract_z
_atom_type_partial_charge
C1    C     C_R   0.118423 0.689332 0.511883 0.795772
C2    C     C_R   0.881507 0.310526 0.486443 0.795472
C3    C     C_R   0.184110 0.799270 0.511252 -0.087596
C4    C     C_R   0.815763 0.199607 0.474671 -0.085362
C5    C     C_R   0.216379 0.978154 0.514218 -0.215936
C6    C     C_R   0.784669 0.016761 0.439711 -0.226449
C7    C     C_R   0.146416 0.878067 0.519391 0.136149
C8    C     C_R   0.852989 0.118234 0.455646 0.149970
C9    C     C_R   0.289964 0.824463 0.497733 -0.275917
C10   C     C_R   0.711038 0.175319 0.481156 -0.275249
C11   C     C_R   0.360399 0.923389 0.487326 0.052913
C12   C     C_R   0.642247 0.073592 0.464611 0.063099
C13   C     C_R   0.322262 0.002021 0.499287 0.091848
C14   C     C_R   0.680518 0.993209 0.443113 0.053909
C15   C     C_R   0.467853 0.946253 0.467530 0.015370
C16   C     C_R   0.535895 0.049943 0.471783 0.032855
C17   C     C_R   0.495473 0.126273 0.481722 -0.276446
C18   C     C_R   0.509000 0.868048 0.440093 -0.246401
C19   C     C_R   0.390506 0.103202 0.494959 0.233188
C20   C     C_R   0.614241 0.890134 0.426850 0.245281
C21   C     C_R   0.301070 0.335586 0.352569 0.044004
C22   C     C_R   0.700322 0.666290 0.646317 0.040662
C23   C     C_R   0.988522 0.500892 0.652391 0.828527
C24   C     C_R   0.011211 0.498751 0.347549 0.827201
C25   C     C_R   0.214352 0.363134 0.379753 0.073162
C26   C     C_R   0.786747 0.638280 0.619224 0.072696
C27   C     C_R   0.283448 0.486308 0.490735 -0.020455
C28   C     C_R   0.715507 0.512083 0.510377 -0.017501
C29   C     C_R   0.373284 0.462697 0.468485 -0.044116
C30   C     C_R   0.626110 0.536309 0.532313 -0.048569
C31   C     C_R   0.383406 0.389822 0.395608 0.099537
C32   C     C_R   0.617469 0.611582 0.603784 0.099128
C33   C     C_R   0.453603 0.510113 0.515134 0.088002
C34   C     C_R   0.545315 0.487988 0.486164 0.098531
C35   C     C_R   0.554727 0.420907 0.410576 -0.250756
C36   C     C_R   0.445426 0.579321 0.589706 -0.252051
C37   C     C_R   0.475948 0.372979 0.366879 -0.242753
C38   C     C_R   0.525795 0.630128 0.631707 -0.208812
C39   C     C_R   0.980554 0.493017 0.736597 -0.104292
C40   C     C_R   0.017078 0.503441 0.262889 -0.115293
C41   C     C_R   0.069168 0.503271 0.759637 -0.331046
C42   C     C_R   0.927792 0.493320 0.240895 -0.308737
C43   C     C_R   0.065162 0.487050 0.836144 0.296322
C44   C     C_R   0.928992 0.501751 0.162456 0.292085
C45   C     C_R   0.970938 0.463203 0.891664 0.087227
C46   C     C_R   0.021914 0.522614 0.105566 0.068316
C47   C     C_R   0.881921 0.450315 0.868452 -0.283837
C48   C     C_R   0.111815 0.536328 0.127841 -0.281476
C49   C     C_R   0.885822 0.466109 0.791543 0.243645
C50   C     C_R   0.110205 0.525492 0.205803 0.245692
C51   C     C_2   0.963634 0.456216 0.975759 -0.157928
C52   C     C_2   0.027863 0.529911 0.021869 -0.145778
Cu1   Cu    Cu3+1 0.916740 0.524770 0.521640 0.931858
Cu2   Cu    Cu3+1 0.083260 0.475230 0.478360 0.934149
H1    H     H_    0.141924 0.521978 0.717304 0.158174
H2    H     H_    0.856766 0.479981 0.285245 0.169463
H3    H     H_    0.543501 0.204828 0.477043 0.144249
H4    H     H_    0.460323 0.789253 0.424099 0.157641
H5    H     H_    0.489273 0.322161 0.309662 0.139831
H6    H     H_    0.513878 0.683567 0.687552 0.134840
H7    H     H_    0.725959 0.452426 0.459740 0.128332
H8    H     H_    0.271696 0.544134 0.542562 0.129590
H9    H     H_    0.850878 0.675718 0.650070 0.137544
H10   H     H_    0.150931 0.326410 0.348136 0.135790
H11   H     H_    0.623137 0.404315 0.382447 0.127412
H12   H     H_    0.377608 0.597050 0.617523 0.129157
H13   H     H_    0.089863 0.593480 0.996286 0.160134
H14   H     H_    0.901947 0.392355 0.000990 0.164980
H15   H     H_    0.809511 0.430829 0.911176 0.152192
H16   H     H_    0.183286 0.553527 0.083874 0.153656
H17   H     H_    0.683939 0.237900 0.501592 0.164210
H18   H     H_    0.316469 0.765601 0.497586 0.160276
H19   H     H_    0.187290 0.037804 0.520877 0.172842
H20   H     H_    0.813374 0.955351 0.426382 0.152838
N1    N     N_R   0.208390 0.438070 0.445820 -0.192782
N2    N     N_R   0.791610 0.561930 0.554180 -0.192636
O1    O     O_R   0.020090 0.662480 0.528530 -0.587250
O2    O     O_R   0.979910 0.337520 0.471470 -0.586061
O3    O     O_R   0.160710 0.620650 0.491980 -0.581248
O4    O     O_R   0.839290 0.379350 0.508020 -0.581389
O5    O     O_R   0.921540 0.523360 0.633990 -0.553081
O6    O     O_R   0.078460 0.476640 0.366010 -0.551783
O7    O     O_R   0.062170 0.481520 0.597440 -0.596892
O8    O     O_R   0.937830 0.518480 0.402560 -0.601879
C53   C     C_3   0.306970 0.249232 0.279383 -0.417361
C54   C     C_3   0.207917 0.183176 0.247270 -0.881413
H21   H     H_    0.145957 0.149428 0.297053 0.245536
H22   H     H_    0.184692 0.228800 0.220293 0.242043
H23   H     H_    0.220434 0.119204 0.198325 0.250226
H24   H     H_    0.366547 0.282748 0.228227 0.203498
H25   H     H_    0.330364 0.195959 0.297476 0.214356
C55   C     C_3   0.695229 0.753410 0.719011 -0.417182
C56   C     C_3   0.793525 0.816645 0.752839 -0.882623
H26   H     H_    0.813857 0.768833 0.779958 0.242997
H27   H     H_    0.857270 0.850227 0.703932 0.244925
H28   H     H_    0.781567 0.880695 0.801975 0.250265
H29   H     H_    0.674802 0.808100 0.699905 0.214932
H30   H     H_    0.633862 0.720924 0.769713 0.203711
N3    N     N_2   0.202976 0.541068 0.227213 -0.407925
H31   H     H_    0.262486 0.606006 0.210398 0.242373
C57   C     C_3   0.231718 0.451825 0.200082 -0.658740
H32   H     H_    0.252977 0.435715 0.132169 0.207392
H33   H     H_    0.167373 0.383805 0.220925 0.228022
H34   H     H_    0.298270 0.465991 0.226330 0.226717
N4    N     N_2   0.793958 0.451584 0.769165 -0.408197
H35   H     H_    0.734073 0.386095 0.784516 0.242161
C58   C     C_3   0.765041 0.540760 0.797173 -0.654734
H36   H     H_    0.742909 0.555500 0.865061 0.207521
H37   H     H_    0.699003 0.527319 0.770566 0.226844
H38   H     H_    0.829479 0.609415 0.777397 0.228298
N5    N     N_2   0.839500 0.498419 0.142880 -0.428946
H39   H     H_    0.823013 0.563756 0.170337 0.252068
C59   C     C_3   0.750630 0.405185 0.151732 -0.737317
H40   H     H_    0.691605 0.404275 0.122824 0.230570
H41   H     H_    0.717643 0.401511 0.217451 0.218576
H42   H     H_    0.770981 0.336482 0.120895 0.231678
N6    N     N_2   0.155685 0.493522 0.856256 -0.442695
H43   H     H_    0.222268 0.542115 0.826403 0.241732
C60   C     C_3   0.161244 0.395192 0.851531 -0.692791
H44   H     H_    0.231586 0.407467 0.871682 0.222432
H45   H     H_    0.163907 0.351981 0.787441 0.222892
H46   H     H_    0.094391 0.349097 0.892191 0.239318
N7    N     N_2   0.354146 0.182772 0.503129 -0.444631
H47   H     H_    0.397233 0.231493 0.462316 0.270811
C61   C     C_3   0.337332 0.238410 0.585896 -0.701279
H48   H     H_    0.303465 0.294509 0.587327 0.233559
H49   H     H_    0.410978 0.280915 0.607673 0.232425
H50   H     H_    0.283540 0.184828 0.627623 0.230027
N8    N     N_2   0.655343 0.810298 0.395730 -0.445110
H51   H     H_    0.708536 0.818079 0.341900 0.242594
C62   C     C_3   0.591146 0.705566 0.404481 -0.672658
H52   H     H_    0.639979 0.659950 0.392728 0.234925
H53   H     H_    0.539414 0.670443 0.359525 0.219415
H54   H     H_    0.546121 0.703606 0.467756 0.248129
C63   C     C_3   0.962821 0.133709 0.453235 -0.388655
C64   C     C_3   0.987303 0.165890 0.539116 -0.777117
H55   H     H_    0.068894 0.179437 0.534532 0.235938
H56   H     H_    0.973453 0.237283 0.572507 0.259609
H57   H     H_    0.939114 0.103817 0.574862 0.235510
H58   H     H_    0.977347 0.061329 0.424595 0.181623
H59   H     H_    0.017005 0.188766 0.413345 0.208691
C65   C     C_3   0.033947 0.861360 0.533718 -0.388789
C66   C     C_3   0.992457 0.815040 0.454247 -0.768157
H60   H     H_    0.030388 0.870486 0.411626 0.230427
H61   H     H_    0.005807 0.742746 0.423461 0.264649
H62   H     H_    0.908946 0.798365 0.467865 0.236143
H63   H     H_    0.988310 0.814764 0.581749 0.206633
H64   H     H_    0.022087 0.935565 0.558672 0.182161

loop_
_geom_bond_atom_site_label_1
_geom_bond_atom_site_label_2
_ccdc_geom_bond_type
C15   C18   A    
C56   H26   S    
C29   C33   A    
C66   H62   S    
C1    O1    A    
Cu1   O1    S    
N5    H39   S    
C9    H18   S    
C20   N8    S    
C4    C8    A    
C62   H54   S    
C53   H25   S    
C55   H30   S    
N7    H47   S    
C39   C41   A    
Cu1   Cu2   S    
N4    C58   S    
C19   N7    S    
C50   N3    S    
C57   H32   S    
C22   C32   A    
Cu1   O8    S    
C2    O2    A    
C35   C37   A    
C59   H40   S    
C3    C7    A    
N6    C60   S    
C36   H12   S    
N7    C61   S    
C27   C29   A    
C45   C51   S    
C15   C16   A    
C46   C52   S    
C33   C36   A    
Cu2   O2    S    
C18   C20   A    
Cu1   O5    S    
C34   C35   A    
C24   O6    A    
C47   H15   S    
C42   H2    S    
C11   C15   A    
C18   H4    S    
C41   H1    S    
C12   C16   A    
C16   C17   A    
C61   H50   S    
C26   N2    A    
C58   H36   S    
C32   C38   A    
C41   C43   A    
C5    C13   A    
C59   H42   S    
C10   H17   S    
C60   H45   S    
C57   H33   S    
C8    C63   S    
C5    H19   S    
C58   H37   S    
C42   C44   A    
C64   H57   S    
C27   N1    A    
C10   C12   A    
Cu2   O7    S    
C44   C46   A    
C55   H29   S    
C6    H20   S    
C21   C53   S    
C45   C47   A    
C63   H58   S    
C46   C48   A    
C30   C34   A    
C51   C52   D    
C65   H64   S    
C63   C64   S    
Cu1   O4    S    
C47   C49   A    
C5    C7    A    
C35   H11   S    
C13   C19   A    
C54   H21   S    
C17   C19   A    
C6    C8    A    
C53   C54   S    
C31   C37   A    
C59   H41   S    
C25   N1    A    
C25   H10   S    
C2    C4    S    
C26   H9    S    
C3    C9    A    
C27   H8    S    
C14   C20   A    
C6    C14   A    
C21   C31   A    
N3    H31   S    
C53   H24   S    
C33   C34   A    
N5    C59   S    
C48   C50   A    
C9    C11   A    
C37   H5    S    
C52   H13   S    
C23   O7    A    
C43   N6    S    
C38   H6    S    
C64   H56   S    
C39   C49   A    
C12   C14   A    
C56   H28   S    
C61   H48   S    
C1    O3    A    
C58   H38   S    
Cu1   N2    S    
C4    C10   A    
C62   H52   S    
C28   N2    A    
Cu2   O6    S    
Cu2   O3    S    
C60   H46   S    
C66   H61   S    
C21   C25   A    
C23   O5    A    
N3    C57   S    
C65   H63   S    
C48   H16   S    
C64   H55   S    
C62   H53   S    
C54   H23   S    
C49   N4    S    
C60   H44   S    
C57   H34   S    
N4    H35   S    
C28   C30   A    
N8    H51   S    
C43   C45   A    
N6    H43   S    
C28   H7    S    
C36   C38   A    
C30   C32   A    
C11   C13   A    
C56   H27   S    
C40   C50   A    
C40   C42   A    
C55   C56   S    
C24   C40   S    
C54   H22   S    
C51   H14   S    
C24   O8    A    
C2    O4    A    
Cu2   N1    S    
C44   N5    S    
C63   H59   S    
C29   C31   A    
C22   C26   A    
C61   H49   S    
C22   C55   S    
C65   C66   S    
C1    C3    S    
C23   C39   S    
C7    C65   S    
C66   H60   S    
C17   H3    S    
N8    C62   S    
