data_mof_unit_48347.cif
_audit_creation_date              2013-03-05T15:43:06-0500
_audit_creation_method            fapswitch 2.2
_symmetry_space_group_name_H-M    P1
_symmetry_Int_Tables_number       1
_space_group_crystal_system       triclinic
_cell_length_a                    11.071291
_cell_length_b                    19.318917
_cell_length_c                    18.410557
_cell_angle_alpha                 90.097179
_cell_angle_beta                  90.603741
_cell_angle_gamma                 89.255015
_cell_volume                      3937.19222475

loop_
_atom_site_label
_atom_site_type_symbol
_atom_site_description
_atom_site_fract_x
_atom_site_fract_y
_atom_site_fract_z
_atom_type_partial_charge
O1    O     O_R   0.575450 0.828820 0.667950 -0.510686
O2    O     O_R   0.575450 0.828820 0.832050 -0.483539
O3    O     O_R   0.575450 0.171180 0.332050 -0.514625
O4    O     O_R   0.575450 0.171180 0.167950 -0.530211
O5    O     O_R   0.075450 0.328820 0.667950 -0.492011
O6    O     O_R   0.075450 0.328820 0.832050 -0.515896
O7    O     O_R   0.075450 0.671180 0.332050 -0.512095
O8    O     O_R   0.075450 0.671180 0.167950 -0.521162
O9    O     O_R   0.416860 0.942890 0.674680 -0.492530
O10   O     O_R   0.416860 0.942890 0.825320 -0.518718
O11   O     O_R   0.416860 0.057110 0.325320 -0.511895
O12   O     O_R   0.416860 0.057110 0.174680 -0.483833
O13   O     O_R   0.916860 0.442890 0.674680 -0.509895
O14   O     O_R   0.916860 0.442890 0.825320 -0.493773
O15   O     O_R   0.916860 0.557110 0.325320 -0.514493
O16   O     O_R   0.916860 0.557110 0.174680 -0.500901
C1    C     C_R   0.318487 0.967219 0.644511 0.531234
C2    C     C_R   0.319540 0.967141 0.855167 0.579374
C3    C     C_R   0.322360 0.028656 0.351659 0.522782
C4    C     C_R   0.321463 0.028690 0.148107 0.596938
C5    C     C_R   0.818084 0.465477 0.643304 0.534483
C6    C     C_R   0.820053 0.468307 0.854340 0.581519
C7    C     C_R   0.823601 0.529119 0.351633 0.529171
C8    C     C_R   0.819710 0.529198 0.147622 0.589244
O17   O     O_R   0.213790 0.953680 0.668330 -0.522697
O18   O     O_R   0.213790 0.953680 0.831670 -0.521985
O19   O     O_R   0.213790 0.046320 0.331670 -0.517205
O20   O     O_R   0.213790 0.046320 0.168330 -0.528068
O21   O     O_R   0.713790 0.453680 0.668330 -0.505234
O22   O     O_R   0.713790 0.453680 0.831670 -0.527618
O23   O     O_R   0.713790 0.546320 0.331670 -0.510639
O24   O     O_R   0.713790 0.546320 0.168330 -0.534140
O25   O     O_R   0.121360 0.817890 0.672660 -0.485809
O26   O     O_R   0.121360 0.817890 0.827340 -0.496453
O27   O     O_R   0.121360 0.182110 0.327340 -0.516545
O28   O     O_R   0.121360 0.182110 0.172660 -0.510685
O29   O     O_R   0.621360 0.317890 0.672660 -0.501701
O30   O     O_R   0.621360 0.317890 0.827340 -0.494193
O31   O     O_R   0.621360 0.682110 0.327340 -0.509848
O32   O     O_R   0.621360 0.682110 0.172660 -0.511354
C9    C     C_R   0.184041 0.770742 0.636858 0.546443
C10   C     C_R   0.136365 0.758257 0.856738 0.573192
C11   C     C_R   0.128695 0.243382 0.353983 0.540455
C12   C     C_R   0.130231 0.242861 0.145391 0.561045
C13   C     C_R   0.632347 0.256714 0.644874 0.557563
C14   C     C_R   0.638400 0.258852 0.857372 0.573926
C15   C     C_R   0.681998 0.728698 0.364027 0.562242
C16   C     C_R   0.629214 0.743137 0.145486 0.561479
O33   O     O_R   0.206850 0.711370 0.665820 -0.452185
O34   O     O_R   0.206850 0.711370 0.834180 -0.520367
O35   O     O_R   0.206850 0.288630 0.334180 -0.450661
O36   O     O_R   0.206850 0.288630 0.165820 -0.485024
O37   O     O_R   0.706850 0.211370 0.665820 -0.479169
O38   O     O_R   0.706850 0.211370 0.834180 -0.528923
O39   O     O_R   0.706850 0.788630 0.334180 -0.446801
O40   O     O_R   0.706850 0.788630 0.165820 -0.462769
O41   O     O_R   0.457710 0.733190 0.672630 -0.456198
O42   O     O_R   0.457710 0.733190 0.827370 -0.466274
O43   O     O_R   0.457710 0.266810 0.327370 -0.476323
O44   O     O_R   0.457710 0.266810 0.172630 -0.459709
O45   O     O_R   0.957710 0.233190 0.672630 -0.406210
O46   O     O_R   0.957710 0.233190 0.827370 -0.500237
O47   O     O_R   0.957710 0.766810 0.327370 -0.469518
O48   O     O_R   0.957710 0.766810 0.172630 -0.461987
C17   C     C_R   0.543294 0.769314 0.646102 0.593666
C18   C     C_R   0.496615 0.788425 0.861729 0.561951
C19   C     C_R   0.493545 0.211812 0.362051 0.555710
C20   C     C_R   0.540753 0.230490 0.145069 0.556526
C21   C     C_R   0.993199 0.289142 0.637851 0.563494
C22   C     C_R   0.041457 0.270436 0.855205 0.608103
C23   C     C_R   0.042309 0.730486 0.355067 0.546056
C24   C     C_R   0.998331 0.714032 0.137154 0.548786
Cr1   Cr    Cr6+3 0.488160 0.884660 0.750000 1.061666
Cr2   Cr    Cr6+3 0.488160 0.115340 0.250000 1.043115
Cr3   Cr    Cr6+3 0.988160 0.384660 0.750000 1.066080
Cr4   Cr    Cr6+3 0.988160 0.615340 0.250000 1.037515
Cr5   Cr    Cr6+3 0.173480 0.883120 0.750000 1.061352
Cr6   Cr    Cr6+3 0.173480 0.116880 0.250000 1.012776
Cr7   Cr    Cr6+3 0.673480 0.383120 0.750000 1.066937
Cr8   Cr    Cr6+3 0.673480 0.616880 0.250000 1.020310
Cr9   Cr    Cr6+3 0.333410 0.727260 0.750000 1.113664
Cr10  Cr    Cr6+3 0.333410 0.272740 0.250000 1.112094
Cr11  Cr    Cr6+3 0.833410 0.227260 0.750000 1.108591
Cr12  Cr    Cr6+3 0.833410 0.772740 0.250000 1.125547
O49   O     O_3   0.331690 0.831680 0.750000 -0.352007
O50   O     O_3   0.331690 0.168320 0.250000 -0.307237
O51   O     O_3   0.831690 0.331680 0.750000 -0.335059
O52   O     O_3   0.831690 0.668320 0.250000 -0.325008
C25   C     C_3   0.024053 0.797493 0.483546 0.244444
C26   C     C_3   0.988805 0.792423 0.013503 0.212372
C27   C     C_3   0.059399 0.210977 0.529869 0.231809
C28   C     C_3   0.141580 0.206290 0.969174 0.199929
C29   C     C_3   0.468356 0.281924 0.491589 0.235411
C30   C     C_3   0.514107 0.300680 0.018562 0.217027
C31   C     C_3   0.587219 0.683114 0.536718 0.233199
C32   C     C_3   0.609021 0.720386 0.965246 0.222722
C33   C     C_3   0.150673 0.819301 0.507799 -0.127952
C34   C     C_3   0.119224 0.800746 0.990090 -0.131859
C35   C     C_3   0.157062 0.248981 0.489557 -0.047358
C36   C     C_3   0.192035 0.262252 0.018455 -0.061508
C37   C     C_3   0.597377 0.297299 0.514497 -0.112394
C38   C     C_3   0.639547 0.311129 0.987111 -0.120342
C39   C     C_3   0.711846 0.699717 0.505886 -0.149776
C40   C     C_3   0.666102 0.772507 0.015967 -0.043390
H1    H     H_    0.185186 0.867847 0.528825 0.125146
H2    H     H_    0.168859 0.849392 0.982013 0.122516
H3    H     H_    0.248960 0.227474 0.484018 0.127515
H4    H     H_    0.286117 0.263252 0.037528 0.178471
H5    H     H_    0.637674 0.348120 0.524423 0.130480
H6    H     H_    0.682074 0.360518 0.972124 0.128324
H7    H     H_    0.790019 0.663309 0.502469 0.105209
H8    H     H_    0.762139 0.768214 0.028064 0.172320
C41   C     C_3   0.148203 0.760912 0.562574 0.027752
C42   C     C_3   0.093503 0.748420 0.929463 0.020601
C43   C     C_3   0.069659 0.254357 0.424278 0.011596
C44   C     C_3   0.088037 0.249065 0.071157 0.030609
C45   C     C_3   0.584897 0.242894 0.573304 0.030916
C46   C     C_3   0.609538 0.253356 0.932764 0.025397
C47   C     C_3   0.645602 0.733371 0.440124 0.013638
C48   C     C_3   0.573609 0.753481 0.073825 0.021570
C49   C     C_3   0.021277 0.739775 0.539698 -0.103235
C50   C     C_3   0.962705 0.741266 0.951607 -0.058616
C51   C     C_3   0.971951 0.213905 0.465117 -0.126777
C52   C     C_3   0.040273 0.190769 0.022020 -0.123427
C53   C     C_3   0.455533 0.227663 0.551463 -0.128828
C54   C     C_3   0.484270 0.244286 0.962877 -0.077976
C55   C     C_3   0.520620 0.713751 0.470236 -0.127675
C56   C     C_3   0.518823 0.698772 0.022722 -0.124073
C57   C     C_3   0.078454 0.689765 0.484208 -0.152918
C58   C     C_3   0.002749 0.680304 0.002124 -0.110492
C59   C     C_3   0.922310 0.284067 0.495460 -0.197061
C60   C     C_3   0.961432 0.246301 0.982705 -0.196589
C61   C     C_3   0.502764 0.171283 0.498047 -0.181045
C62   C     C_3   0.537822 0.189129 0.015514 -0.103053
C63   C     C_3   0.516638 0.784927 0.508825 -0.187261
C64   C     C_3   0.431066 0.755850 0.993423 -0.213930
C65   C     C_3   0.206761 0.710067 0.508929 -0.125455
C66   C     C_3   0.134444 0.687790 0.978485 -0.127936
C67   C     C_3   0.018609 0.323331 0.452075 -0.129067
C68   C     C_3   0.009036 0.304055 0.033430 -0.153968
C69   C     C_3   0.634093 0.185876 0.522157 -0.104940
C70   C     C_3   0.663911 0.198039 0.983989 -0.138871
C71   C     C_3   0.640823 0.803879 0.478708 -0.065126
C72   C     C_3   0.485848 0.810160 0.046156 -0.147016
C73   C     C_3   0.208288 0.768655 0.452051 -0.188424
C74   C     C_3   0.157354 0.739885 0.040480 -0.167631
C75   C     C_3   0.106246 0.319004 0.517479 -0.056767
C76   C     C_3   0.113150 0.317384 0.980403 -0.111480
C77   C     C_3   0.644368 0.240729 0.462304 -0.158218
C78   C     C_3   0.691991 0.255516 0.040048 -0.191207
C79   C     C_3   0.706015 0.770712 0.544783 -0.103046
C80   C     C_3   0.579323 0.829606 0.988063 -0.111204
C81   C     C_3   0.080537 0.748570 0.427763 0.038211
C82   C     C_3   0.026416 0.732208 0.063355 0.021151
C83   C     C_3   0.011332 0.278991 0.559486 0.010121
C84   C     C_3   0.065918 0.259722 0.930912 0.035034
C85   C     C_3   0.514126 0.226318 0.438720 0.024947
C86   C     C_3   0.566680 0.246580 0.070968 0.029323
C87   C     C_3   0.582660 0.752398 0.574050 0.050678
C88   C     C_3   0.524414 0.775827 0.937123 0.020199
H9    H     H_    0.949782 0.726416 0.578714 0.122949
H10   H     H_    0.887179 0.745237 0.911821 0.210555
H11   H     H_    0.918460 0.170123 0.443425 0.125297
H12   H     H_    0.007839 0.140806 0.042825 0.129203
H13   H     H_    0.380083 0.222926 0.590276 0.176667
H14   H     H_    0.403349 0.242570 0.927079 0.196825
H15   H     H_    0.448094 0.688588 0.438088 0.135346
H16   H     H_    0.491049 0.647383 0.041789 0.129564
H17   H     H_    0.042424 0.638109 0.471344 0.143429
H18   H     H_    0.959771 0.630254 0.013074 0.178372
H19   H     H_    0.831964 0.306453 0.503458 0.109920
H20   H     H_    0.872098 0.241312 0.957494 0.143873
H21   H     H_    0.456897 0.122531 0.485894 0.136337
H22   H     H_    0.501262 0.138276 0.031109 0.190830
H23   H     H_    0.437894 0.820874 0.512835 0.111878
H24   H     H_    0.341286 0.749820 0.969784 0.125529
H25   H     H_    0.280878 0.673215 0.521998 0.178302
H26   H     H_    0.197688 0.645560 0.962721 0.128431
H27   H     H_    0.993128 0.365157 0.414781 0.118317
H28   H     H_    0.946800 0.341114 0.059949 0.163881
H29   H     H_    0.706484 0.147913 0.536144 0.164733
H30   H     H_    0.726354 0.155572 0.968001 0.125435
H31   H     H_    0.663059 0.853805 0.454180 0.211293
H32   H     H_    0.428173 0.844124 0.079942 0.170598
H33   H     H_    0.282551 0.781430 0.414542 0.121065
H34   H     H_    0.233985 0.739283 0.079883 0.148724
H35   H     H_    0.147637 0.366196 0.539856 0.218403
H36   H     H_    0.145910 0.367238 0.959857 0.196968
H37   H     H_    0.718222 0.245401 0.422419 0.141442
H38   H     H_    0.772830 0.260034 0.075686 0.135054
H39   H     H_    0.773987 0.791977 0.582772 0.191498
H40   H     H_    0.606998 0.881097 0.969272 0.180708
C89   C     C_R   0.335591 0.985154 0.417725 -0.057889
C90   C     C_R   0.333943 0.985545 0.081495 0.010267
C91   C     C_R   0.322948 0.995892 0.569788 -0.021324
C92   C     C_R   0.325361 0.995013 0.929537 0.083517
C93   C     C_R   0.844451 0.484364 0.415769 -0.052423
C94   C     C_R   0.824539 0.488620 0.079211 0.009184
C95   C     C_R   0.821543 0.490878 0.567160 -0.018392
C96   C     C_R   0.826673 0.499234 0.927449 0.067936
C97   C     C_R   0.559097 0.977627 0.427368 0.012253
C98   C     C_R   0.559145 0.981477 0.076646 0.012985
C99   C     C_R   0.542958 0.019953 0.573809 0.033606
C100  C     C_R   0.543332 0.024527 0.930240 0.017367
C101  C     C_R   0.068556 0.494898 0.429527 0.032975
C102  C     C_R   0.046454 0.469507 0.079959 0.021282
C103  C     C_R   0.033797 0.532955 0.576068 0.010022
C104  C     C_R   0.049445 0.515338 0.934363 0.006265
C105  C     C_R   0.662867 0.990022 0.469144 -0.112543
C106  C     C_R   0.661848 0.998912 0.037941 -0.135067
C107  C     C_R   0.654841 0.011014 0.541000 -0.104488
C108  C     C_R   0.653979 0.020304 0.966252 -0.162843
C109  C     C_R   0.165482 0.515050 0.473406 -0.098250
C110  C     C_R   0.154764 0.480282 0.044471 -0.140535
C111  C     C_R   0.148749 0.533958 0.545311 -0.119555
C112  C     C_R   0.156407 0.503921 0.973376 -0.171148
C113  C     C_R   0.436598 0.000147 0.535353 -0.047772
C114  C     C_R   0.437754 0.001513 0.966093 0.015911
C115  C     C_R   0.443921 0.986752 0.459350 -0.055096
C116  C     C_R   0.443638 0.988221 0.042255 -0.022100
C117  C     C_R   0.934915 0.505916 0.535175 -0.053076
C118  C     C_R   0.937389 0.498797 0.966911 -0.005994
C119  C     C_R   0.949666 0.494476 0.459316 -0.057474
C120  C     C_R   0.935792 0.484199 0.042642 -0.030249
H41   H     H_    0.750991 0.982799 0.446057 0.179529
H42   H     H_    0.749106 0.995305 0.063436 0.137235
H43   H     H_    0.736215 0.022932 0.570950 0.172948
H44   H     H_    0.734509 0.035260 0.938376 0.108600
H45   H     H_    0.254206 0.519116 0.450425 0.164151
H46   H     H_    0.238553 0.468894 0.072111 0.170687
H47   H     H_    0.225260 0.553237 0.575852 0.203105
H48   H     H_    0.241970 0.513379 0.948305 0.125762
C121  C     C_R   0.216650 0.992461 0.525792 0.000289
C122  C     C_R   0.218306 0.992555 0.970585 0.031349
C123  C     C_R   0.226920 0.973826 0.452627 -0.019396
C124  C     C_R   0.225596 0.973813 0.043713 -0.047262
C125  C     C_R   0.720124 0.476710 0.520813 -0.004429
C126  C     C_R   0.716675 0.503219 0.965265 0.032561
C127  C     C_R   0.739552 0.461267 0.447459 -0.014389
C128  C     C_R   0.715161 0.486133 0.038759 -0.038191
C129  C     C_R   0.098806 0.004465 0.551856 0.001926
C130  C     C_R   0.104863 0.014896 0.942474 -0.021184
C131  C     C_R   0.122491 0.956398 0.412171 -0.057681
C132  C     C_R   0.118523 0.959690 0.081007 -0.057619
C133  C     C_R   0.598010 0.480932 0.542969 -0.034654
C134  C     C_R   0.608296 0.527491 0.931647 0.002363
C135  C     C_R   0.643679 0.438265 0.402814 -0.097923
C136  C     C_R   0.601885 0.477751 0.071973 -0.034237
C137  C     C_R   0.000238 0.006935 0.504164 -0.047104
C138  C     C_R   0.003842 0.016209 0.986486 -0.092019
C139  C     C_R   0.012153 0.982841 0.433830 -0.042169
C140  C     C_R   0.010993 0.988730 0.056056 -0.024922
C141  C     C_R   0.504161 0.476223 0.492697 -0.049473
C142  C     C_R   0.501713 0.531737 0.970003 -0.100051
C143  C     C_R   0.526358 0.453441 0.422681 -0.060556
C144  C     C_R   0.498514 0.506805 0.040482 -0.039017
H49   H     H_    0.129546 0.934413 0.358104 0.136259
H50   H     H_    0.121550 0.937900 0.135249 0.144798
H51   H     H_    0.081825 0.018679 0.607183 0.230052
H52   H     H_    0.095640 0.038036 0.889233 0.186700
H53   H     H_    0.660038 0.421037 0.347647 0.137551
H54   H     H_    0.595187 0.455732 0.125851 0.163826
H55   H     H_    0.569815 0.494097 0.596754 0.236264
H56   H     H_    0.607494 0.548776 0.877309 0.197182
H57   H     H_    0.913774 0.024917 0.522566 0.138655
H58   H     H_    0.921830 0.040410 0.967212 0.099138
H59   H     H_    0.936220 0.983003 0.396534 0.157114
H60   H     H_    0.935345 0.991229 0.092120 0.135428
H61   H     H_    0.413775 0.487860 0.509887 0.180558
H62   H     H_    0.423457 0.556366 0.945435 0.095719
H63   H     H_    0.453813 0.448945 0.383314 0.193393
H64   H     H_    0.417178 0.511256 0.071599 0.128295
N1    N     N_R   0.924678 0.846665 0.475500 0.040858
O53   O     O_R   0.875828 0.859170 0.412476 -0.347628
O54   O     O_R   0.888983 0.881708 0.531824 -0.410329
N2    N     N_R   0.911252 0.852409 0.026800 0.040640
O55   O     O_R   0.872465 0.866303 0.091607 -0.368415
O56   O     O_R   0.865351 0.885814 0.971551 -0.385417
N3    N     N_R   0.076333 0.151854 0.576888 0.061354
O57   O     O_R   0.179934 0.142472 0.609635 -0.372404
O58   O     O_R   0.980147 0.123684 0.603340 -0.372766
N4    N     N_R   0.219453 0.156725 0.933938 0.043793
O59   O     O_R   0.306919 0.130111 0.972122 -0.410923
O60   O     O_R   0.220067 0.151269 0.863528 -0.303900
N5    N     N_R   0.380810 0.337806 0.487407 0.035771
O61   O     O_R   0.329863 0.355692 0.426504 -0.337211
O62   O     O_R   0.356166 0.371600 0.546680 -0.403996
N6    N     N_R   0.430698 0.357911 0.031632 0.040772
O63   O     O_R   0.396285 0.373634 0.096912 -0.379286
O64   O     O_R   0.379628 0.388499 0.976230 -0.402394
N7    N     N_R   0.557467 0.624015 0.580734 0.052736
O65   O     O_R   0.629260 0.608863 0.635026 -0.351157
O66   O     O_R   0.445312 0.605332 0.583736 -0.410814
N8    N     N_R   0.683273 0.675079 0.921036 0.046872
O67   O     O_R   0.769408 0.640672 0.952841 -0.420986
O68   O     O_R   0.680755 0.678517 0.850487 -0.285150
C145  C     C_2   0.573354 0.947129 0.353763 0.272704
H65   H     H_    0.497011 0.923589 0.326379 0.142561
O69   O     O_2   0.670823 0.947213 0.323321 -0.500185
C146  C     C_2   0.580116 0.950192 0.149603 0.287054
H66   H     H_    0.668820 0.953224 0.174989 0.155266
O70   O     O_2   0.501250 0.918961 0.181135 -0.545377
C147  C     C_2   0.538258 0.059621 0.643184 0.267157
H67   H     H_    0.454053 0.083146 0.660934 0.147080
O71   O     O_2   0.628543 0.066901 0.680942 -0.502532
C148  C     C_2   0.543035 0.061881 0.859677 0.286117
H68   H     H_    0.625747 0.064723 0.828778 0.140626
O72   O     O_2   0.453550 0.092819 0.837132 -0.429189
C149  C     C_2   0.096492 0.468356 0.355260 0.287672
H69   H     H_    0.027776 0.442707 0.323044 0.129710
O73   O     O_2   0.196857 0.474370 0.329251 -0.523101
C150  C     C_2   0.054906 0.436908 0.153184 0.252762
H70   H     H_    0.140457 0.436481 0.182537 0.153753
O74   O     O_2   0.968957 0.408077 0.180372 -0.559438
C151  C     C_2   0.016422 0.569575 0.646312 0.279611
H71   H     H_    0.927434 0.588231 0.661720 0.141887
O75   O     O_2   0.101380 0.579384 0.687690 -0.469601
C152  C     C_2   0.059828 0.553448 0.864688 0.280880
H72   H     H_    0.144870 0.552628 0.835874 0.134050
O76   O     O_2   0.976484 0.588918 0.840752 -0.441087

loop_
_geom_bond_atom_site_label_1
_geom_bond_atom_site_label_2
_geom_bond_distance
_ccdc_geom_bond_type
O46   Cr11  1.974378 S    
C72   H32   1.105112 S    
C47   C71   1.535728 S    
N7    O65   1.301817 A    
C48   C72   1.538276 S    
C52   H12   1.104755 S    
O1    Cr1   2.092295 S    
Cr7   O51   2.002589 S    
O6    Cr3   2.080197 S    
C16   C48   1.462905 S    
O45   C21   1.323434 A    
C59   H19   1.095832 S    
N4    O59   1.292365 A    
O31   C15   1.311887 A    
C34   C42   1.531604 S    
C138  C140  1.388394 A    
O46   C22   1.283018 A    
O3    Cr2   2.090546 S    
O48   Cr12  1.993137 S    
C142  C144  1.385798 A    
C111  H47   1.081607 S    
O26   C10   1.281795 A    
C78   C86   1.517177 S    
C33   H1    1.086472 S    
C102  C110  1.389825 A    
C71   C79   1.543835 S    
C8    C94   1.483464 S    
C25   N1    1.450738 S    
C122  C124  1.396004 A    
C20   C86   1.432538 S    
C9    O33   1.286629 A    
O38   Cr11  2.125557 S    
C136  H54   1.083592 S    
C109  C111  1.386360 A    
C29   C85   1.533264 S    
C126  C128  1.393610 A    
C43   C51   1.545109 S    
C99   C113  1.423905 A    
C2    C92   1.471513 S    
C132  H50   1.084400 S    
C97   C115  1.418940 A    
C147  O71   1.221001 D    
C29   C37   1.518033 S    
C4    O20   1.293844 A    
C5    O21   1.271184 A    
C101  C119  1.431394 A    
C7    O23   1.305386 A    
C8    O24   1.276254 A    
O24   Cr8   2.075931 S    
C51   H11   1.110176 S    
C92   C114  1.415343 A    
C147  H67   1.085061 S    
C74   C82   1.523003 S    
C49   H9    1.107708 S    
C100  C108  1.388282 A    
C148  H68   1.085154 S    
C125  C133  1.417558 A    
C55   H15   1.109288 S    
C123  C131  1.412784 A    
C70   H30   1.107424 S    
O47   C23   1.266394 A    
C32   C40   1.512005 S    
C93   C119  1.422514 A    
C41   C65   1.534357 S    
O28   C12   1.282635 A    
O29   C13   1.291820 A    
C58   C66   1.534680 S    
C139  H59   1.079803 S    
C109  H45   1.077471 S    
C146  H66   1.085386 S    
O4    C20   1.274627 A    
C6    C96   1.473206 S    
O32   C16   1.285856 A    
C35   C75   1.547471 S    
C62   H22   1.106873 S    
C33   C73   1.552980 S    
Cr12  O52   2.017621 S    
C9    C41   1.432990 S    
O11   Cr2   1.965442 S    
C75   C83   1.529752 S    
C76   H36   1.102475 S    
O27   Cr6   1.985126 S    
C77   H37   1.109366 S    
C34   H2    1.105845 S    
O47   Cr12  1.972581 S    
C1    O17   1.274079 A    
O31   Cr8   1.985126 S    
C40   C80   1.538754 S    
C28   C52   1.525524 S    
C96   C118  1.418239 A    
Cr8   O52   2.025066 S    
C80   H40   1.102010 S    
C93   C127  1.384520 A    
O10   C2    1.296466 A    
C68   H28   1.103989 S    
C69   H29   1.107941 S    
N3    O58   1.301640 A    
C67   H27   1.093537 S    
C57   C65   1.542438 S    
C12   C44   1.444325 S    
N5    O62   1.300275 A    
C73   H33   1.109773 S    
C26   N2    1.455234 S    
C61   C69   1.545062 S    
C60   H20   1.093427 S    
C37   H5    1.097914 S    
O34   Cr9   2.125557 S    
C79   C87   1.519659 S    
C64   H24   1.088436 S    
O43   Cr10  1.972581 S    
C14   C46   1.432016 S    
C31   C87   1.504095 S    
C127  C135  1.411499 A    
N7    O66   1.299359 A    
C110  C112  1.387370 A    
C104  C118  1.423700 A    
O8    Cr4   2.107836 S    
C150  H70   1.085458 S    
C52   C60   1.549753 S    
C137  H57   1.072201 S    
C28   N4    1.438493 S    
O43   C19   1.296136 A    
C10   C42   1.438931 S    
O13   Cr3   1.941816 S    
C102  C120  1.423896 A    
O1    C17   1.271272 A    
C31   N7    1.444743 S    
O27   C11   1.283776 A    
C12   O36   1.286279 A    
C63   C71   1.536765 S    
Cr5   O49   2.002589 S    
C27   C51   1.528455 S    
C145  O69   1.221226 D    
C99   C107  1.392448 A    
C5    C95   1.487078 S    
C97   C105  1.398824 A    
C31   C39   1.535411 S    
C29   C53   1.531411 S    
C149  O73   1.221572 D    
C36   H4    1.096099 S    
C131  C139  1.380434 A    
C58   C82   1.530248 S    
C40   H8    1.086162 S    
C30   N6    1.452693 S    
C100  C114  1.424932 A    
N6    O64   1.300178 A    
C53   H13   1.109748 S    
C114  C116  1.426598 A    
O41   C17   1.285099 A    
C19   C85   1.454780 S    
C27   N3    1.443418 S    
Cr1   O49   2.023522 S    
C135  H53   1.084575 S    
O2    Cr1   2.080197 S    
C94   C128  1.416246 A    
C10   O34   1.260599 A    
O22   Cr7   2.076738 S    
Cr3   O51   2.023522 S    
C62   C86   1.541033 S    
C122  C130  1.415814 A    
C103  C117  1.426286 A    
C106  C108  1.385220 A    
C133  H55   1.070628 S    
C91   C113  1.418301 A    
C134  H56   1.082153 S    
C13   C45   1.439206 S    
C89   C115  1.417106 A    
C118  C120  1.423293 A    
C6    O22   1.279070 A    
O16   Cr4   1.950961 S    
O2    C18   1.303287 A    
O7    Cr4   2.090546 S    
N4    O60   1.300455 A    
C50   H10   1.107790 S    
O14   C6    1.293355 A    
C72   C80   1.546222 S    
O13   C5    1.301975 A    
C57   C81   1.541504 S    
O25   Cr5   1.985931 S    
C92   C122  1.413717 A    
C66   C74   1.541611 S    
C104  C152  1.486348 S    
N1    O54   1.299655 A    
C61   C85   1.532837 S    
C42   C66   1.540494 S    
C60   C84   1.531833 S    
C96   C126  1.410304 A    
O30   C14   1.279260 A    
C59   C67   1.546309 S    
C64   C88   1.525022 S    
C41   C49   1.523376 S    
N2    O55   1.298756 A    
C27   C35   1.516041 S    
C45   C53   1.515901 S    
Cr9   O49   2.017126 S    
C61   H21   1.097398 S    
C47   C55   1.547962 S    
C151  O75   1.220659 D    
Cr11  O51   2.017126 S    
O12   Cr2   1.950961 S    
C36   C44   1.537543 S    
O19   Cr6   2.072464 S    
O23   Cr8   2.072464 S    
O11   C3    1.287817 A    
C65   C73   1.543643 S    
C55   C63   1.546986 S    
C56   C64   1.553690 S    
O26   Cr5   1.997678 S    
C35   C43   1.537797 S    
N8    O67   1.291181 A    
O10   Cr1   1.950947 S    
O30   Cr7   1.997678 S    
C97   C145  1.485846 S    
C32   C56   1.525081 S    
C39   H7    1.110358 S    
O33   Cr9   2.103151 S    
O5    C21   1.315272 A    
C140  H60   1.074790 S    
C141  H61   1.073612 S    
C148  O72   1.219750 D    
N3    O57   1.300891 A    
C26   C82   1.533615 S    
C132  C140  1.383847 A    
C39   C79   1.547086 S    
O15   Cr4   1.965442 S    
C101  C109  1.395444 A    
C151  H71   1.085050 S    
C30   C86   1.528973 S    
C105  H41   1.075642 S    
C95   C125  1.432055 A    
C146  O70   1.220242 D    
O40   Cr12  2.098595 S    
C133  C141  1.387944 A    
C39   C47   1.548536 S    
O8    C24   1.307205 A    
C130  C138  1.387946 A    
C24   C82   1.441997 S    
C138  H58   1.073162 S    
O45   Cr11  1.995470 S    
O42   Cr9   1.974378 S    
C90   C124  1.401098 A    
C90   C116  1.421180 A    
C134  C142  1.382993 A    
C75   H35   1.102965 S    
Cr10  O50   2.017621 S    
C71   H31   1.097644 S    
O5    Cr3   2.092295 S    
C94   C120  1.411463 A    
N5    O61   1.295267 A    
C62   C70   1.529332 S    
O29   Cr7   1.985931 S    
O21   Cr7   2.086872 S    
C14   O38   1.259157 A    
C103  C111  1.398766 A    
C129  C137  1.393800 A    
O9    C1    1.300162 A    
C38   C78   1.554567 S    
C22   C84   1.431945 S    
C38   H6    1.106123 S    
C110  H46   1.073784 S    
O6    C22   1.269482 A    
C44   C52   1.538922 S    
C51   C59   1.560735 S    
C74   H34   1.110399 S    
C49   C57   1.540184 S    
C54   H14   1.107417 S    
C101  C149  1.493488 S    
C48   C56   1.539952 S    
C60   C68   1.547946 S    
C35   H3    1.099660 S    
C98   C146  1.488583 S    
O37   Cr11  2.103151 S    
C37   C45   1.518806 S    
O14   Cr3   1.950947 S    
C70   C78   1.546987 S    
C59   C83   1.530978 S    
C106  H42   1.071093 S    
C64   C72   1.553036 S    
C11   O35   1.293501 A    
C25   C49   1.522652 S    
C58   H18   1.102998 S    
C150  O74   1.221088 D    
C32   N8    1.448242 S    
C108  H44   1.076395 S    
C31   C55   1.537580 S    
O44   C20   1.259734 A    
C128  C136  1.412347 A    
C91   C121  1.423801 A    
C76   C84   1.531747 S    
O39   Cr12  2.119527 S    
C77   C85   1.530392 S    
C89   C123  1.389926 A    
C40   C48   1.533778 S    
C135  C143  1.380799 A    
C29   N5    1.443028 S    
C80   C88   1.526316 S    
C145  H65   1.084262 S    
C45   C69   1.545434 S    
C17   C87   1.436461 S    
C68   C76   1.542832 S    
C18   C88   1.439034 S    
C69   C77   1.536201 S    
C143  H63   1.080385 S    
C149  H69   1.084154 S    
C144  H64   1.074798 S    
C67   C75   1.540092 S    
C21   C83   1.471181 S    
C103  C151  1.486116 S    
O17   Cr5   2.086872 S    
C57   H17   1.103932 S    
C100  C148  1.487105 S    
O7    C23   1.271850 A    
C78   H38   1.108400 S    
C98   C116  1.425516 A    
C23   C81   1.443169 S    
C131  H49   1.084745 S    
C37   C77   1.542904 S    
C11   C43   1.469791 S    
O44   Cr10  1.993137 S    
O42   C18   1.314632 A    
C152  O76   1.221138 D    
O32   Cr8   1.979463 S    
C95   C117  1.425570 A    
O20   Cr6   2.075931 S    
Cr4   O52   2.000607 S    
O4    Cr2   2.107836 S    
C38   C46   1.534945 S    
C73   C81   1.533393 S    
Cr6   O50   2.025066 S    
O15   C7    1.272436 A    
O16   C8    1.303338 A    
C107  H43   1.078509 S    
C26   C50   1.534736 S    
O12   C4    1.288243 A    
O9    Cr1   1.941816 S    
C98   C106  1.393536 A    
C54   C62   1.549525 S    
C4    C90   1.488252 S    
C102  C150  1.490452 S    
C30   C54   1.531508 S    
C137  C139  1.382311 A    
O18   Cr5   2.076738 S    
C99   C147  1.489402 S    
O25   C9    1.317893 A    
C141  C143  1.384805 A    
C34   C74   1.550425 S    
C142  H62   1.078589 S    
C25   C33   1.530874 S    
C63   H23   1.110500 S    
C27   C83   1.514117 S    
C152  H72   1.085477 S    
C63   C87   1.530782 S    
C25   C81   1.527731 S    
C126  C134  1.418942 A    
C2    O18   1.273725 A    
N1    O53   1.296736 A    
C28   C84   1.493647 S    
Cr2   O50   2.000607 S    
O36   Cr10  2.098595 S    
C121  C123  1.399116 A    
O35   Cr10  2.119527 S    
C121  C129  1.411082 A    
C32   C88   1.502740 S    
N2    O56   1.300827 A    
C3    C89   1.484477 S    
C125  C127  1.400771 A    
O41   Cr9   1.995470 S    
C1    C91   1.485436 S    
C33   C41   1.515045 S    
C66   H26   1.108484 S    
C3    O19   1.295049 A    
C15   C47   1.464177 S    
C28   C36   1.518464 S    
C15   O39   1.315998 A    
C53   C61   1.555417 S    
C16   O40   1.289616 A    
C129  H51   1.072413 S    
C130  H52   1.081319 S    
O3    C19   1.316849 A    
C43   C67   1.530071 S    
C46   C70   1.538999 S    
C136  C144  1.389734 A    
C113  C115  1.425506 A    
C7    C93   1.479068 S    
N6    O63   1.298946 A    
C124  C132  1.406178 A    
C117  C119  1.424385 A    
O28   Cr6   1.979463 S    
N8    O68   1.300632 A    
C36   C76   1.534071 S    
C79   H39   1.104640 S    
C105  C107  1.386424 A    
C26   C34   1.521808 S    
O48   C24   1.288592 A    
C13   O37   1.253833 A    
C42   C50   1.516633 S    
C65   H25   1.104220 S    
C104  C112  1.393811 A    
C56   H16   1.102170 S    
C112  H48   1.076020 S    
C46   C54   1.511402 S    
C50   C58   1.558850 S    
C30   C38   1.526231 S    
C44   C68   1.530208 S    
