data_mof_unit_43433.cif
_audit_creation_date              2012-10-26T20:08:18-0400
_audit_creation_method            fapswitch 2.2
_symmetry_space_group_name_H-M    P1
_symmetry_Int_Tables_number       1
_space_group_crystal_system       triclinic
_cell_length_a                    10.839432
_cell_length_b                    10.823753
_cell_length_c                    9.528905
_cell_angle_alpha                 89.620327
_cell_angle_beta                  89.731968
_cell_angle_gamma                 91.060874
_cell_volume                      1117.73385176

loop_
_atom_site_label
_atom_site_type_symbol
_atom_type_description
_atom_site_fract_x
_atom_site_fract_y
_atom_site_fract_z
_atom_type_partial_charge
C1    C     C_R   0.499711 0.262108 0.500234 0.571723
C2    C     C_R   0.495085 0.062947 0.627584 -0.138338
C3    C     C_R   0.500417 0.871760 0.499707 0.028023
C4    C     C_R   0.499568 0.128240 0.500293 0.027996
C5    C     C_R   0.426501 0.419177 0.076413 -0.002775
C6    C     C_R   0.573501 0.580821 0.923587 -0.002773
C7    C     C_R   0.426159 0.418854 0.927902 0.093208
C8    C     C_R   0.573843 0.581145 0.072098 0.093212
C9    C     C_R   0.262334 0.503332 0.499897 0.577547
C10   C     C_R   0.737666 0.496670 0.500103 0.577556
C11   C     C_R   0.244118 0.780061 0.153717 -0.078658
C12   C     C_R   0.500283 0.737892 0.499766 0.571726
C13   C     C_R   0.755873 0.219950 0.846300 -0.078664
C14   C     C_R   0.184644 0.727435 0.272004 0.157516
C15   C     C_R   0.815342 0.272580 0.728005 0.157526
C16   C     C_R   0.123412 0.611631 0.259518 0.085857
C17   C     C_R   0.876587 0.388380 0.740492 0.085856
C18   C     C_R   0.120054 0.552446 0.128827 -0.127608
C19   C     C_R   0.879956 0.447564 0.871189 -0.127617
C20   C     C_R   0.178526 0.606366 0.012106 -0.125206
C21   C     C_R   0.821485 0.393643 0.987916 -0.125200
C22   C     C_R   0.241206 0.719468 0.024739 -0.114108
C23   C     C_R   0.871586 0.493942 0.500680 0.018304
C24   C     C_R   0.758798 0.280540 0.975285 -0.114103
C25   C     C_R   0.934799 0.542961 0.384144 -0.163014
C26   C     C_R   0.065202 0.457049 0.615860 -0.163006
C27   C     C_1   0.346095 0.331313 0.858871 0.205665
C28   C     C_1   0.653906 0.668685 0.141128 0.205667
C29   C     C_R   0.128415 0.506064 0.499322 0.018300
C30   C     C_R   0.937384 0.448896 0.617512 -0.016851
C31   C     C_R   0.062617 0.551114 0.382493 -0.016861
C32   C     C_R   0.504399 0.064782 0.372667 -0.144682
C33   C     C_R   0.495582 0.935217 0.627333 -0.144676
C34   C     C_R   0.504894 0.937052 0.372415 -0.138318
Cu1   Cu    Cu3+1 0.500000 0.500020 0.640660 0.971304
Cu2   Cu    Cu3+1 0.500000 0.499980 0.359340 0.971306
H1    H     H_    0.287320 0.760446 0.934292 0.119872
H2    H     H_    0.115452 0.421155 0.704687 0.147617
H3    H     H_    0.508006 0.113525 0.273017 0.125560
H4    H     H_    0.491975 0.886475 0.726982 0.125561
H5    H     H_    0.508515 0.889763 0.272749 0.141974
H6    H     H_    0.491462 0.110236 0.727250 0.141979
H7    H     H_    0.367602 0.355038 0.134667 0.114789
H8    H     H_    0.632400 0.644960 0.865332 0.114790
H9    H     H_    0.095174 0.813987 0.427820 0.228551
H10   H     H_    0.236281 0.873359 0.396063 0.225267
H11   H     H_    0.904780 0.185987 0.572192 0.228553
H12   H     H_    0.712689 0.239560 0.065739 0.119874
H13   H     H_    0.763620 0.126689 0.603905 0.225262
H14   H     H_    0.292204 0.868308 0.161068 0.092897
H15   H     H_    0.707781 0.131703 0.838949 0.092894
H16   H     H_    0.073443 0.463687 0.117948 0.109123
H17   H     H_    0.926574 0.536323 0.882067 0.109122
H18   H     H_    0.176158 0.559901 0.911942 0.122571
H19   H     H_    0.823861 0.440108 0.088085 0.122571
H20   H     H_    0.884548 0.578857 0.295317 0.147617
N1    N     N_R   0.500030 0.500030 0.852070 -0.245361
N2    N     N_R   0.499970 0.499970 0.147930 -0.245360
N3    N     N_1   0.281438 0.260161 0.804677 -0.340886
N4    N     N_1   0.718564 0.739838 0.195323 -0.340889
N5    N     N_3   0.185991 0.790291 0.404378 -0.630480
N6    N     N_3   0.813972 0.209733 0.595618 -0.630466
O1    O     O_R   0.499990 0.319660 0.618740 -0.488024
O2    O     O_R   0.500010 0.680340 0.381260 -0.488026
O3    O     O_R   0.499990 0.319630 0.381170 -0.521334
O4    O     O_R   0.500010 0.680370 0.618830 -0.521338
O5    O     O_R   0.319650 0.500020 0.618780 -0.504352
O6    O     O_R   0.680350 0.499980 0.381220 -0.504350
O7    O     O_R   0.319640 0.500000 0.381210 -0.495707
O8    O     O_R   0.680360 0.500000 0.618790 -0.495704

loop_
_geom_bond_atom_site_label_1
_geom_bond_atom_site_label_2
_ccdc_geom_bond_type
C25   C31   A    
C18   C20   A    
C2    C4    A    
C9    O5    A    
H13   N6    S    
Cu1   O5    S    
C10   C23   S    
C5    C7    A    
C11   C22   A    
C1    O3    A    
Cu1   Cu2   S    
C27   N3    T    
C25   H20   S    
C9    C29   S    
Cu1   N1    S    
C1    C4    S    
Cu2   O3    S    
C19   H17   S    
H11   N6    S    
Cu2   O6    S    
C5    H7    S    
C18   H16   S    
C29   C31   A    
C11   H14   S    
C6    H8    S    
C16   C31   S    
C17   C30   S    
C22   H1    S    
C6    N1    A    
C4    C32   A    
C34   H5    S    
C5    N2    A    
C2    H6    S    
C12   O2    A    
C1    O1    A    
C2    C33   A    
C16   C18   A    
C13   C24   A    
C17   C19   A    
C15   N6    S    
C20   C22   A    
C26   C30   A    
C10   O6    A    
C13   C15   A    
C13   H15   S    
C8    C28   S    
C11   C14   A    
C14   C16   A    
C32   H3    S    
C33   H4    S    
C3    C33   A    
Cu2   N2    S    
C24   H12   S    
C23   C30   A    
C10   O8    A    
C23   C25   A    
C28   N4    T    
Cu2   O7    S    
Cu1   O4    S    
C26   C29   A    
C20   H18   S    
C21   C24   A    
H9    N5    S    
C15   C17   A    
C7    C27   S    
C26   H2    S    
C21   H19   S    
C6    C8    A    
C3    C12   S    
H10   N5    S    
C3    C34   A    
C8    N2    A    
Cu2   O2    S    
C14   N5    S    
C12   O4    A    
Cu1   O1    S    
C7    N1    A    
Cu1   O8    S    
C9    O7    A    
C19   C21   A    
C32   C34   A    
