data_mof_unit_65188.cif
_audit_creation_date              2012-12-10T17:26:38-0500
_audit_creation_method            fapswitch 2.2
_symmetry_space_group_name_H-M    P1
_symmetry_Int_Tables_number       1
_space_group_crystal_system       triclinic
_cell_length_a                    42.565099
_cell_length_b                    29.421845
_cell_length_c                    30.741851
_cell_angle_alpha                 90.073537
_cell_angle_beta                  136.270221
_cell_angle_gamma                 89.944634
_cell_volume                      26612.9748049

loop_
_atom_site_label
_atom_site_type_symbol
_atom_type_description
_atom_site_fract_x
_atom_site_fract_y
_atom_site_fract_z
_atom_type_partial_charge
C1    C     C_R   0.585493 0.499999 0.585920 0.826816
C2    C     C_R   0.085494 0.999999 0.585919 0.827008
C3    C     C_3   0.486250 0.545175 0.207913 -0.594447
C4    C     C_3   0.988862 0.045885 0.210512 -0.594577
C5    C     C_3   0.485288 0.545118 0.256889 -0.347360
C6    C     C_3   0.987900 0.045906 0.259488 -0.347212
C7    C     C_1   0.500607 0.499071 0.158805 0.033596
C8    C     C_1   0.000567 0.999009 0.158767 0.033643
C9    C     C_1   0.501036 0.499218 0.336428 0.033827
C10   C     C_1   0.000986 0.999197 0.336380 0.033783
C11   C     C_1   0.500456 0.499742 0.374166 -0.188242
C12   C     C_1   0.000436 0.999740 0.374146 -0.188298
C13   C     C_1   0.636538 0.499999 0.636848 -0.207704
C14   C     C_1   0.136538 0.999999 0.636846 -0.207535
C15   C     C_1   0.678859 0.500001 0.679078 0.000735
C16   C     C_1   0.178859 0.000001 0.679075 0.000842
C17   C     C_1   0.729022 0.500003 0.729151 0.002378
C18   C     C_1   0.229022 0.000002 0.729148 0.002485
C19   C     C_1   0.771343 0.500004 0.771413 0.002548
C20   C     C_1   0.271343 0.000003 0.771410 0.002638
C21   C     C_1   0.821507 0.500003 0.821525 0.002144
C22   C     C_1   0.321506 0.000002 0.821524 0.002204
C23   C     C_R   0.499883 0.499956 0.418708 0.860222
C24   C     C_R   0.999889 0.999957 0.418714 0.860322
C25   C     C_1   0.863828 0.500002 0.863822 -0.200221
C26   C     C_1   0.363828 0.000001 0.863821 -0.200184
C27   C     C_1   0.499978 0.500064 0.635283 -0.204452
C28   C     C_1   0.999978 0.000064 0.635283 -0.204451
C29   C     C_1   0.499982 0.500068 0.676669 0.012491
C30   C     C_1   0.999981 0.000068 0.676669 0.012489
C31   C     C_1   0.499987 0.500058 0.726098 0.001725
C32   C     C_1   0.999987 0.000058 0.726098 0.001722
C33   C     C_1   0.499992 0.500046 0.767486 0.001713
C34   C     C_1   0.999991 0.000046 0.767486 0.001708
C35   C     C_1   0.499998 0.500029 0.816917 0.012280
C36   C     C_1   0.999998 0.000029 0.816917 0.012271
C37   C     C_1   0.500006 0.500015 0.858307 -0.203514
C38   C     C_1   0.000006 0.000015 0.858307 -0.203520
C39   C     C_1   0.363416 0.499997 0.363734 -0.206469
C40   C     C_1   0.863416 0.999997 0.363729 -0.206639
C41   C     C_1   0.321097 0.499993 0.321342 0.001980
C42   C     C_1   0.821097 0.999993 0.321335 0.001782
C43   C     C_1   0.270937 0.499990 0.271113 0.003825
C44   C     C_1   0.770937 0.999990 0.271106 0.003687
C45   C     C_R   0.414458 0.500000 0.414875 0.827069
C46   C     C_R   0.914458 1.000000 0.414873 0.826982
C47   C     C_1   0.228618 0.499990 0.228749 0.003822
C48   C     C_1   0.728618 0.999990 0.228744 0.003723
C49   C     C_1   0.178457 0.499992 0.178546 0.003057
C50   C     C_1   0.678457 0.999992 0.178543 0.002983
C51   C     C_1   0.136137 0.499995 0.136197 -0.199611
C52   C     C_1   0.636137 0.999995 0.136196 -0.199665
C53   C     C_R   0.500032 0.585446 0.994560 0.823513
C54   C     C_R   0.500033 0.414556 0.994634 0.828124
C55   C     C_R   0.000032 0.085446 0.994560 0.823464
C56   C     C_R   0.000033 0.914556 0.994630 0.828519
C57   C     C_R   0.500042 0.500356 0.074821 0.858677
C58   C     C_R   0.000041 0.000349 0.074822 0.859020
C59   C     C_R   0.500022 0.500001 0.908660 0.811990
C60   C     C_R   0.000022 0.000001 0.908660 0.811987
C61   C     C_R   0.000015 0.414865 0.999106 0.816147
C62   C     C_R   0.000014 0.585138 0.999156 0.816154
C63   C     C_R   0.500015 0.914865 0.999106 0.816143
C64   C     C_R   0.500014 0.085138 0.999156 0.816163
C65   C     C_R   0.914874 0.500000 0.914875 0.816189
C66   C     C_R   0.414874 0.000000 0.914875 0.816204
C67   C     C_R   0.085094 0.499998 0.085126 0.816474
C68   C     C_R   0.585094 0.999998 0.085126 0.816462
C69   C     C_1   0.500044 0.636498 0.995377 -0.206803
C70   C     C_1   0.500043 0.363509 0.995545 -0.208234
C71   C     C_1   0.000044 0.136498 0.995377 -0.206875
C72   C     C_1   0.000043 0.863508 0.995536 -0.207989
C73   C     C_R   0.499974 0.500025 0.584943 0.812343
C74   C     C_R   0.999974 0.000025 0.584943 0.812346
C75   C     C_1   0.500046 0.678821 0.996084 0.002251
C76   C     C_1   0.500039 0.321188 0.996308 0.000584
C77   C     C_1   0.000046 0.178821 0.996084 0.002216
C78   C     C_1   0.000039 0.821188 0.996297 0.000741
C79   C     C_1   0.500043 0.728989 0.996924 0.003750
C80   C     C_1   0.500032 0.271021 0.997174 0.002827
C81   C     C_1   0.000043 0.228989 0.996924 0.003736
C82   C     C_1   0.000032 0.771021 0.997163 0.002914
C83   C     C_1   0.000038 0.271312 0.997608 0.003648
C84   C     C_1   0.000027 0.728698 0.997842 0.003018
C85   C     C_1   0.500039 0.771312 0.997608 0.003651
C86   C     C_1   0.500028 0.228698 0.997851 0.002970
C87   C     C_1   0.000032 0.321482 0.998349 0.002967
C88   C     C_1   0.000023 0.678526 0.998550 0.002578
C89   C     C_1   0.500032 0.821482 0.998349 0.002959
C90   C     C_1   0.500024 0.178526 0.998555 0.002558
C91   C     C_1   0.000025 0.363808 0.998841 -0.199705
C92   C     C_1   0.000020 0.636198 0.998991 -0.199951
C93   C     C_1   0.500025 0.863808 0.998841 -0.199718
C94   C     C_1   0.500020 0.136198 0.998993 -0.199959
C95   C     C_3   0.550905 0.488676 0.323617 0.146321
C96   C     C_3   0.469346 0.460185 0.241500 0.192690
C97   C     C_3   0.050181 0.985803 0.322902 0.146313
C98   C     C_3   0.967127 0.962024 0.239295 0.192656
C99   C     C_3   0.467043 0.461709 0.188716 0.248611
C100  C     C_3   0.550480 0.488017 0.271836 0.253848
C101  C     C_3   0.964926 0.963653 0.186615 0.248731
C102  C     C_3   0.049729 0.985159 0.271094 0.253871
C103  C     C_1   0.500193 0.499831 0.120077 -0.191235
C104  C     C_1   0.000186 0.999793 0.120072 -0.191337
C105  C     C_3   0.501649 0.498423 0.290493 0.111992
C106  C     C_3   0.001561 0.998359 0.290407 0.111957
C107  C     C_3   0.501310 0.497885 0.206015 0.093554
C108  C     C_3   0.001203 0.997806 0.205911 0.093537
Cu1   Cu    Cu3+1 0.499970 0.542470 0.500570 0.963004
Cu2   Cu    Cu3+1 0.499970 0.457530 0.500570 0.952132
Cu3   Cu    Cu3+1 0.999970 0.042470 0.500570 0.963042
Cu4   Cu    Cu3+1 0.999970 0.957530 0.500570 0.952061
Cu5   Cu    Cu3+1 0.542500 0.500000 0.035600 0.966386
Cu6   Cu    Cu3+1 0.042500 0.000000 0.035600 0.966217
Cu7   Cu    Cu3+1 0.457550 0.500000 0.950640 0.951897
Cu8   Cu    Cu3+1 0.957550 0.000000 0.950640 0.951728
Cu9   Cu    Cu3+1 0.999990 0.500000 0.958110 0.961580
Cu10  Cu    Cu3+1 0.499990 0.000000 0.958110 0.961561
Cu11  Cu    Cu3+1 0.999980 0.500000 0.041890 0.958430
Cu12  Cu    Cu3+1 0.499980 0.000000 0.041890 0.958411
H1    H     H_    0.560327 0.455814 0.348313 0.026850
H2    H     H_    0.484634 0.427074 0.267188 0.065651
H3    H     H_    0.057703 0.952458 0.345702 0.026989
H4    H     H_    0.980496 0.928097 0.263074 0.065621
H5    H     H_    0.432110 0.473411 0.144483 0.102861
H6    H     H_    0.571303 0.517661 0.282156 0.144339
H7    H     H_    0.930722 0.977324 0.143093 0.102841
H8    H     H_    0.072206 0.013569 0.283066 0.144438
H9    H     H_    0.507277 0.572975 0.291467 0.216688
H10   H     H_    0.450113 0.552256 0.233166 0.210348
H11   H     H_    0.011448 0.072463 0.295615 0.216645
H12   H     H_    0.953191 0.055051 0.236232 0.210427
H13   H     H_    0.510018 0.572005 0.220082 0.204753
H14   H     H_    0.451865 0.553936 0.160891 0.199740
H15   H     H_    0.014120 0.071312 0.224160 0.204795
H16   H     H_    0.955033 0.056587 0.164044 0.199670
O1    O     O_R   0.561950 0.535860 0.562460 -0.560425
O2    O     O_R   0.561950 0.464140 0.562460 -0.563011
O3    O     O_R   0.061950 0.035860 0.562460 -0.560410
O4    O     O_R   0.061950 0.964140 0.562460 -0.562965
O5    O     O_R   0.464160 0.500000 0.896130 -0.558686
O6    O     O_R   0.964160 0.000000 0.896130 -0.558716
O7    O     O_R   0.000010 0.438010 0.963800 -0.558408
O8    O     O_R   0.000010 0.561990 0.963800 -0.557926
O9    O     O_R   0.500010 0.938010 0.963800 -0.558421
O10   O     O_R   0.500010 0.061990 0.963800 -0.557913
O11   O     O_R   1.000000 0.438000 0.034540 -0.558899
O12   O     O_R   1.000000 0.562000 0.034540 -0.559524
O13   O     O_R   0.500000 0.938000 0.034540 -0.558895
O14   O     O_R   0.500000 0.062000 0.034540 -0.559537
O15   O     O_R   0.938010 0.500000 0.902650 -0.558599
O16   O     O_R   0.438010 0.000000 0.902650 -0.558566
O17   O     O_R   0.938010 0.500000 0.973390 -0.559053
O18   O     O_R   0.438010 0.000000 0.973390 -0.559064
O19   O     O_R   0.061960 0.500000 0.026610 -0.558096
O20   O     O_R   0.561960 0.000000 0.026610 -0.558135
O21   O     O_R   0.061960 0.500000 0.097350 -0.559103
O22   O     O_R   0.561960 0.000000 0.097350 -0.559094
O23   O     O_R   0.499980 0.535870 0.439370 -0.571438
O24   O     O_R   0.499980 0.464130 0.439370 -0.583404
O25   O     O_R   0.999980 0.035870 0.439370 -0.571480
O26   O     O_R   0.999980 0.964130 0.439370 -0.583524
O27   O     O_R   0.438000 0.535860 0.438500 -0.560786
O28   O     O_R   0.438000 0.464140 0.438500 -0.562761
O29   O     O_R   0.938000 0.035860 0.438500 -0.560736
O30   O     O_R   0.938000 0.964140 0.438500 -0.562858
O31   O     O_R   0.499970 0.535850 0.561590 -0.557688
O32   O     O_R   0.499970 0.464150 0.561590 -0.557598
O33   O     O_R   0.999970 0.035850 0.561590 -0.557684
O34   O     O_R   0.999970 0.964150 0.561590 -0.557598
O35   O     O_R   0.535890 0.561890 0.029840 -0.561640
O36   O     O_R   0.535890 0.438110 0.029840 -0.558746
O37   O     O_R   0.035890 0.061890 0.029840 -0.561671
O38   O     O_R   0.035890 0.938110 0.029840 -0.558636
O39   O     O_R   0.464160 0.561920 0.958100 -0.562123
O40   O     O_R   0.464160 0.438080 0.958100 -0.563149
O41   O     O_R   0.964160 0.061920 0.958100 -0.562180
O42   O     O_R   0.964160 0.938080 0.958100 -0.563156
O43   O     O_R   0.535890 0.500000 0.090110 -0.564415
O44   O     O_R   0.035890 0.000000 0.090110 -0.564884
O45   O     O_R   0.464150 0.500000 0.018360 -0.584877
O46   O     O_R   0.964150 0.000000 0.018360 -0.584884
O47   O     O_R   0.535900 0.500000 0.967880 -0.558893
O48   O     O_R   0.035900 0.000000 0.967880 -0.558883
O49   O     O_3   0.569814 0.450259 0.268186 -0.561702
C109  C     C_3   0.581258 0.411723 0.304576 0.114158
H17   H     H_    0.551632 0.398941 0.293641 0.164034
H18   H     H_    0.610269 0.419447 0.355534 0.102163
C110  C     C_3   0.596197 0.373871 0.288994 -0.742167
H19   H     H_    0.626193 0.384935 0.299809 0.241425
H20   H     H_    0.605466 0.343238 0.317380 0.185693
H21   H     H_    0.568120 0.365018 0.238298 0.258822
O50   O     O_3   0.477732 0.418107 0.182226 -0.582199
C111  C     C_3   0.443135 0.402168 0.119628 0.064868
H22   H     H_    0.436109 0.426979 0.086120 0.143802
H23   H     H_    0.411383 0.395813 0.106524 0.131751
C112  C     C_3   0.458363 0.357814 0.114058 -0.770421
H24   H     H_    0.466195 0.332355 0.147465 0.243026
H25   H     H_    0.430930 0.344343 0.065403 0.199476
H26   H     H_    0.489180 0.363683 0.124808 0.247449
O51   O     O_3   0.066890 0.946360 0.265278 -0.561854
C113  C     C_3   0.076102 0.907233 0.299440 0.114100
H27   H     H_    0.045790 0.896170 0.287818 0.164110
H28   H     H_    0.105503 0.913285 0.350791 0.102197
C114  C     C_3   0.088853 0.868585 0.281672 -0.742222
H29   H     H_    0.119440 0.877908 0.293084 0.241448
H30   H     H_    0.096343 0.837471 0.308280 0.185746
H31   H     H_    0.060321 0.861357 0.230515 0.258775
O52   O     O_3   0.973123 0.919504 0.177654 -0.582255
C115  C     C_3   0.937622 0.905496 0.114249 0.064750
H32   H     H_    0.932022 0.930583 0.082092 0.144446
H33   H     H_    0.905577 0.901059 0.100904 0.131686
C116  C     C_3   0.950228 0.860258 0.106191 -0.770281
H34   H     H_    0.956598 0.834482 0.138217 0.242920
H35   H     H_    0.922034 0.848324 0.056849 0.199382
H36   H     H_    0.981311 0.864253 0.117161 0.247435
O53   O     O_3   0.425114 0.466848 0.214803 -0.584386
C117  C     C_3   0.405435 0.425024 0.207368 0.064164
H37   H     H_    0.424420 0.410039 0.254200 0.145921
H38   H     H_    0.405250 0.400614 0.179495 0.143586
C118  C     C_3   0.356614 0.433125 0.172733 -0.776068
H39   H     H_    0.336745 0.447829 0.125564 0.245344
H40   H     H_    0.340835 0.400448 0.166835 0.198530
H41   H     H_    0.355806 0.456965 0.199962 0.252368
O54   O     O_3   0.580089 0.523747 0.368096 -0.573064
C119  C     C_3   0.625479 0.508323 0.415936 0.060091
H42   H     H_    0.637819 0.496870 0.395857 0.147185
H43   H     H_    0.628656 0.480053 0.442968 0.138460
C120  C     C_3   0.655620 0.547190 0.461292 -0.764112
H44   H     H_    0.644501 0.559096 0.482778 0.250905
H45   H     H_    0.691439 0.535501 0.499221 0.197589
H46   H     H_    0.653565 0.575888 0.435879 0.247424
O55   O     O_3   0.923342 0.971219 0.213032 -0.584385
C121  C     C_3   0.901361 0.930611 0.203455 0.063948
H47   H     H_    0.919527 0.914664 0.249479 0.145637
H48   H     H_    0.899743 0.906169 0.174217 0.143647
C122  C     C_3   0.853106 0.941499 0.169457 -0.775970
H49   H     H_    0.834041 0.957224 0.123088 0.245398
H50   H     H_    0.835527 0.909796 0.161878 0.198604
H51   H     H_    0.853706 0.965428 0.198030 0.252274
O56   O     O_3   0.081322 0.019148 0.369336 -0.573145
C123  C     C_3   0.125753 0.001152 0.416229 0.059982
H52   H     H_    0.137432 0.989020 0.395491 0.147247
H53   H     H_    0.127297 0.972739 0.441620 0.138524
C124  C     C_3   0.158060 0.038226 0.463777 -0.764093
H54   H     H_    0.147624 0.050736 0.485947 0.250814
H55   H     H_    0.193151 0.024505 0.500987 0.197626
H56   H     H_    0.157662 0.067001 0.440030 0.247467

loop_
_geom_bond_atom_site_label_1
_geom_bond_atom_site_label_2
_ccdc_geom_bond_type
C60   O48   A    
C83   C87   S    
C96   C105  S    
Cu7   O5    S    
C124  H55   S    
C46   O29   A    
C87   C91   T    
C27   C29   T    
C58   O44   A    
C55   O41   A    
O51   C113  S    
Cu4   O4    S    
C111  H23   S    
C24   O25   A    
Cu3   O25   S    
C79   C85   T    
C73   O31   A    
C28   C74   S    
Cu10  Cu12  S    
C57   O45   A    
Cu9   O7    S    
O49   C109  S    
Cu3   O3    S    
C118  H41   S    
Cu5   O35   S    
C62   C92   S    
C5    C105  S    
C114  H29   S    
C112  H26   S    
C98   H4    S    
C4    C108  S    
Cu12  O13   S    
C118  H39   S    
C75   C79   S    
C121  H48   S    
Cu9   O15   S    
C100  H6    S    
C2    O3    A    
C67   O19   A    
C35   C37   T    
C45   O28   A    
O54   C119  S    
C120  H46   S    
Cu8   O42   S    
Cu9   Cu11  S    
C33   C35   S    
C1    O1    A    
C116  H36   S    
C111  C112  S    
C9    C105  S    
C96   O53   S    
C96   C99   S    
C101  O52   S    
Cu1   O1    S    
O56   C123  S    
C63   C93   S    
C54   O40   A    
C110  H20   S    
C119  C120  S    
C55   O37   A    
C74   O33   A    
C80   C86   T    
Cu1   O31   S    
C60   O6    A    
Cu2   O32   S    
C61   O7    A    
Cu6   O37   S    
Cu4   O34   S    
C88   C92   T    
C56   C72   S    
C113  C114  S    
C23   O23   A    
Cu9   O19   S    
C50   C52   T    
C31   C33   T    
Cu10  O20   S    
Cu3   O29   S    
C95   C105  S    
O55   C121  S    
C18   C20   T    
C97   C102  S    
C52   C68   S    
C39   C45   S    
C64   O10   A    
C95   H1    S    
C101  C108  S    
C40   C42   T    
C111  H22   S    
C53   C69   S    
Cu11  O17   S    
C118  H40   S    
C62   O12   A    
C124  H54   S    
C7    C107  S    
C89   C93   T    
C41   C43   S    
C112  H24   S    
C42   C44   S    
C99   C107  S    
C73   O32   A    
C68   O22   A    
C8    C108  S    
Cu7   O45   S    
C90   C94   T    
Cu5   O36   S    
C10   C12   T    
C116  H35   S    
C57   C103  S    
C123  C124  S    
C74   O34   A    
C113  H27   S    
C61   O11   A    
C101  H7    S    
C26   C66   S    
C54   O36   A    
Cu2   O2    S    
Cu9   O8    S    
C25   C65   S    
C99   H5    S    
C86   C90   S    
C66   O18   A    
Cu2   O28   S    
C95   C100  S    
Cu10  O10   S    
C56   O42   A    
C6    H12   S    
C49   C51   T    
Cu11  O12   S    
C116  H34   S    
Cu8   O46   S    
Cu3   O33   S    
C121  C122  S    
C32   C34   T    
C65   O15   A    
C110  H21   S    
C59   O47   A    
C95   O54   S    
C66   O16   A    
C120  H44   S    
C64   O14   A    
C8    C104  T    
C81   C83   T    
C78   C82   S    
C123  H53   S    
C54   C70   S    
C77   C81   S    
Cu11  O21   S    
Cu4   O30   S    
C23   O24   A    
Cu12  O18   S    
O52   C115  S    
C6    C106  S    
Cu7   O39   S    
C67   O21   A    
C16   C18   S    
C51   C67   S    
C112  H25   S    
C102  C108  S    
C48   C50   S    
C9    C11   T    
C59   O5    A    
C37   C59   S    
C113  H28   S    
C4    H15   S    
C38   C60   S    
C97   C106  S    
C115  H33   S    
C4    C6    S    
C5    H10   S    
Cu5   O43   S    
C20   C22   S    
C119  H42   S    
C119  H43   S    
C122  H50   S    
Cu1   O27   S    
C120  H45   S    
C14   C16   T    
C5    H9    S    
C10   C106  S    
C1    C13   S    
C121  H47   S    
C40   C46   S    
C70   C76   T    
C109  H18   S    
C36   C38   T    
Cu1   O23   S    
C102  H8    S    
C3    C5    S    
C71   C77   T    
Cu2   O24   S    
C53   O39   A    
C117  C118  S    
C57   O43   A    
C98   O55   S    
C114  H31   S    
C65   O17   A    
C15   C17   S    
C21   C25   T    
C122  H51   S    
C100  C107  S    
C85   C89   S    
C46   O30   A    
Cu3   Cu4   S    
C19   C21   S    
C45   O27   A    
Cu12  O14   S    
C102  O51   S    
Cu10  O9    S    
C24   O26   A    
C76   C80   S    
C62   O8    A    
C6    H11   S    
C68   O20   A    
Cu8   O6    S    
Cu6   Cu8   S    
C47   C49   S    
C115  C116  S    
Cu4   O26   S    
C99   O50   S    
C82   C84   T    
C98   C106  S    
C98   C101  S    
C96   H2    S    
C117  H38   S    
C58   O46   A    
C3    H14   S    
C2    O4    A    
C109  C110  S    
C13   C15   T    
C100  O49   S    
O53   C117  S    
C64   C94   S    
C28   C30   T    
C29   C31   S    
C27   C73   S    
Cu1   Cu2   S    
Cu10  O16   S    
C30   C32   S    
Cu7   O40   S    
C117  H37   S    
Cu5   O47   S    
C84   C88   S    
C43   C47   T    
Cu6   O48   S    
C123  H52   S    
C11   C23   S    
C17   C19   T    
C69   C75   T    
C34   C36   S    
C115  H32   S    
C63   O13   A    
C110  H19   S    
C2    C14   S    
C122  H49   S    
Cu6   O44   S    
C53   O35   A    
C97   O56   S    
Cu12  O22   S    
C44   C48   T    
C4    H16   S    
Cu6   O38   S    
C58   C104  S    
C56   O38   A    
C39   C41   T    
C97   H3    S    
O50   C111  S    
C22   C26   T    
C124  H56   S    
C72   C78   T    
C7    C103  T    
C12   C24   S    
C3    H13   S    
C109  H17   S    
Cu8   O41   S    
C114  H30   S    
Cu11  O11   S    
C63   O9    A    
C55   C71   S    
C1    O2    A    
C61   C91   S    
Cu5   Cu7   S    
C3    C107  S    
