data_mof_unit_37822.cif
_audit_creation_date              2012-12-10T18:51:30-0500
_audit_creation_method            fapswitch 2.2
_symmetry_space_group_name_H-M    P1
_symmetry_Int_Tables_number       1
_space_group_crystal_system       triclinic
_cell_length_a                    10.728213
_cell_length_b                    9.884833
_cell_length_c                    10.618512
_cell_angle_alpha                 89.984062
_cell_angle_beta                  92.581073
_cell_angle_gamma                 88.872486
_cell_volume                      1124.69607309

loop_
_atom_site_label
_atom_site_type_symbol
_atom_type_description
_atom_site_fract_x
_atom_site_fract_y
_atom_site_fract_z
_atom_type_partial_charge
C1    C     C_R   0.869902 0.496529 0.462477 -0.116556
C2    C     C_R   0.125537 0.504214 0.490500 -0.101281
C3    C     C_R   0.259496 0.501550 0.500175 0.907767
C4    C     C_R   0.738514 0.498861 0.485781 0.894387
C5    C     C_R   0.501000 0.499526 0.257935 0.876722
C6    C     C_R   0.497001 0.499829 0.741889 0.896342
C7    C     C_3   0.382494 0.518991 0.038446 0.048516
C8    C     C_3   0.612887 0.475686 0.961244 0.045382
C9    C     C_3   0.453947 0.618062 0.958289 0.072251
C10   C     C_3   0.541178 0.377376 0.041456 0.086749
C11   C     C_3   0.423307 0.399804 0.956323 0.068307
C12   C     C_3   0.572790 0.595448 0.042805 0.039976
C13   C     C_3   0.494948 0.498654 0.875574 -0.117836
C14   C     C_3   0.500802 0.497293 0.124113 -0.121603
C15   C     C_R   0.574652 0.071420 0.585564 0.352347
C16   C     C_R   0.425517 0.929621 0.415079 0.346825
C17   C     C_R   0.423010 0.075132 0.416862 0.356967
C18   C     C_R   0.576117 0.925688 0.584134 0.355539
C19   C     C_R   0.063077 0.386234 0.521209 0.031317
C20   C     C_R   0.929909 0.616614 0.431551 0.034411
C21   C     C_R   0.938937 0.375788 0.481759 0.018399
C22   C     C_R   0.059785 0.617782 0.438600 0.016283
N1    N     N_R   0.500000 0.857200 0.500000 -0.183495
N2    N     N_R   0.500000 0.142800 0.500000 -0.187280
O1    O     O_R   0.316770 0.614620 0.499990 -0.571797
O2    O     O_R   0.683230 0.385380 0.500010 -0.602638
O3    O     O_R   0.683230 0.614620 0.500010 -0.553470
O4    O     O_R   0.316770 0.385380 0.499990 -0.581497
O5    O     O_R   0.499970 0.614650 0.313950 -0.585952
O6    O     O_R   0.500030 0.385350 0.686050 -0.581926
O7    O     O_R   0.500030 0.614650 0.686050 -0.592268
O8    O     O_R   0.499970 0.385350 0.313950 -0.602588
Zn1   Zn    Zn3+2 0.500000 0.653120 0.500000 1.037229
Zn2   Zn    Zn3+2 0.500000 0.346880 0.500000 1.013681
O9    O     O_3   0.632212 0.142390 0.683843 -0.577965
C23   C     C_3   0.763507 0.131400 0.682956 -0.208747
H1    H     H_    0.801015 0.233994 0.672563 0.196890
H2    H     H_    0.800329 0.063121 0.609228 0.158163
H3    H     H_    0.800713 0.096134 0.776407 0.138554
O10   O     O_3   0.350160 0.859563 0.330601 -0.565487
C24   C     C_3   0.397509 0.870143 0.209637 -0.259250
H4    H     H_    0.350295 0.793541 0.149839 0.203799
H5    H     H_    0.499823 0.849977 0.210059 0.185920
H6    H     H_    0.376418 0.970425 0.166211 0.162731
O11   O     O_3   0.350461 0.151504 0.330533 -0.571782
C25   C     C_3   0.222934 0.117532 0.330578 -0.233988
H7    H     H_    0.166270 0.212437 0.332236 0.170333
H8    H     H_    0.197508 0.053652 0.411540 0.129076
H9    H     H_    0.195574 0.064848 0.241732 0.168391
O12   O     O_3   0.663931 0.851703 0.656177 -0.577435
C26   C     C_3   0.643009 0.863257 0.785962 -0.178955
H10   H     H_    0.628498 0.761116 0.823091 0.204874
H11   H     H_    0.562822 0.930345 0.810056 0.154123
H12   H     H_    0.728609 0.898906 0.836443 0.139211
N3    N     N_3   0.341470 0.293551 0.909170 -0.459441
H13   H     H_    0.395672 0.225033 0.859114 0.224196
H14   H     H_    0.276884 0.338076 0.844391 0.179782
N4    N     N_3   0.656231 0.698244 0.094201 -0.479035
H15   H     H_    0.713357 0.728311 0.022819 0.175162
H16   H     H_    0.715349 0.650998 0.162378 0.185908
N5    N     N_3   0.257690 0.541568 0.083948 -0.469205
H17   H     H_    0.195497 0.543031 0.005341 0.175493
H18   H     H_    0.236402 0.457125 0.137594 0.202012
N6    N     N_3   0.737970 0.453009 0.916717 -0.468390
H19   H     H_    0.798022 0.439784 0.996183 0.171660
H20   H     H_    0.737708 0.361125 0.868214 0.212701
N7    N     N_3   0.404060 0.745493 0.905966 -0.463864
H21   H     H_    0.307167 0.746610 0.912179 0.183701
H22   H     H_    0.438906 0.824415 0.961386 0.165436
N8    N     N_3   0.589712 0.245961 0.084920 -0.456632
H23   H     H_    0.519468 0.199223 0.133093 0.231255
H24   H     H_    0.663407 0.263230 0.150294 0.168889
N9    N     N_3   0.121534 0.286982 0.604885 -0.449646
H25   H     H_    0.128637 0.193754 0.560297 0.176383
H26   H     H_    0.065791 0.275775 0.682360 0.171889
N10   N     N_3   0.859130 0.734499 0.389604 -0.430379
H27   H     H_    0.879357 0.814600 0.450958 0.196026
H28   H     H_    0.884747 0.760615 0.299127 0.155150
N11   N     N_3   0.883680 0.246395 0.457211 -0.457333
H29   H     H_    0.950347 0.168181 0.462065 0.148309
H30   H     H_    0.849297 0.247100 0.363465 0.178488
N12   N     N_3   0.124300 0.733747 0.395682 -0.371674
H31   H     H_    0.096592 0.818799 0.446566 0.172327
H32   H     H_    0.101150 0.749225 0.300028 0.193165

loop_
_geom_bond_atom_site_label_1
_geom_bond_atom_site_label_2
_ccdc_geom_bond_type
C15   C18   A    
N3    H13   S    
C16   O10   S    
C1    C21   A    
C8    C13   S    
C24   H5    S    
N9    H25   S    
O9    C23   S    
O11   C25   S    
O3    Zn1   S    
C7    C11   S    
C25   H9    S    
C22   N12   S    
C23   H1    S    
C19   C21   A    
N10   H28   S    
N4    H16   S    
O5    Zn1   S    
C20   N10   S    
C24   H4    S    
N5    H18   S    
C9    C13   S    
C7    N5    S    
O2    Zn2   S    
C7    C14   S    
C16   C17   A    
N1    Zn1   S    
C2    C22   A    
O7    Zn1   S    
N8    H23   S    
C5    O8    A    
C12   N4    S    
C6    O7    A    
O4    Zn2   S    
N9    H26   S    
C15   O9    S    
C5    O5    A    
C17   O11   S    
C25   H8    S    
C17   N2    A    
N8    H24   S    
O6    Zn2   S    
C18   N1    A    
C3    O1    A    
N10   H27   S    
C10   C14   S    
N11   H30   S    
N4    H15   S    
N2    Zn2   S    
N7    H21   S    
N7    H22   S    
N6    H20   S    
C9    N7    S    
C19   N9    S    
C8    C12   S    
C21   N11   S    
O12   C26   S    
C5    C14   S    
C8    N6    S    
C10   N8    S    
C15   N2    A    
C6    O6    A    
C20   C22   A    
C16   N1    A    
N12   H32   S    
N3    H14   S    
C24   H6    S    
C4    O3    A    
C11   N3    S    
C18   O12   S    
C7    C9    S    
C25   H7    S    
C3    O4    A    
C1    C20   A    
C2    C19   A    
C23   H3    S    
C12   C14   S    
C4    O2    A    
C26   H12   S    
N6    H19   S    
C1    C4    S    
C23   H2    S    
C2    C3    S    
C26   H10   S    
C6    C13   S    
C11   C13   S    
N5    H17   S    
C9    C12   S    
C10   C11   S    
N11   H29   S    
C8    C10   S    
N12   H31   S    
O1    Zn1   S    
O10   C24   S    
C26   H11   S    
O8    Zn2   S    
