data_mof_unit_29707.cif
_audit_creation_date              2012-12-11T15:19:52-0500
_audit_creation_method            fapswitch 2.2
_symmetry_space_group_name_H-M    P1
_symmetry_Int_Tables_number       1
_space_group_crystal_system       triclinic
_cell_length_a                    16.639076
_cell_length_b                    16.639012
_cell_length_c                    42.904657
_cell_angle_alpha                 89.999515
_cell_angle_beta                  90.000583
_cell_angle_gamma                 120.000419
_cell_volume                      10287.0292036

loop_
_atom_site_label
_atom_site_type_symbol
_atom_type_description
_atom_site_fract_x
_atom_site_fract_y
_atom_site_fract_z
_atom_type_partial_charge
C1    C     C_R   0.583248 0.426407 0.794496 0.546175
C2    C     C_R   0.426270 0.583498 0.205405 0.543972
C3    C     C_R   0.956055 0.556193 0.426890 0.422055
C4    C     C_R   0.556121 0.051972 0.068409 0.423197
C5    C     C_R   0.443806 0.399855 0.426890 0.422055
C6    C     C_R   0.608603 0.071898 0.557438 0.431972
C7    C     C_R   0.059427 0.564988 0.930503 0.423739
C8    C     C_R   0.463292 0.391395 0.557438 0.431972
C9    C     C_R   0.583563 0.105919 0.938400 0.429612
C10   C     C_R   0.928098 0.536705 0.557437 0.431971
C11   C     C_R   0.522432 0.416500 0.938398 0.429611
C12   C     C_R   0.948026 0.504025 0.068402 0.423194
C13   C     C_R   0.416702 0.843243 0.294343 0.595497
C14   C     C_R   0.463889 0.059079 0.425700 0.429359
C15   C     C_R   0.407892 0.521182 0.060585 0.430412
C16   C     C_R   0.940922 0.404808 0.425700 0.429359
C17   C     C_R   0.478885 0.886661 0.060581 0.430399
C18   C     C_R   0.595192 0.536109 0.425700 0.429358
C19   C     C_R   0.489707 0.113856 0.555993 0.426792
C20   C     C_R   0.894116 0.477599 0.938392 0.429616
C21   C     C_R   0.624148 0.510294 0.555994 0.426793
C22   C     C_R   0.505630 0.940610 0.930506 0.423735
C23   C     C_R   0.886142 0.375850 0.555994 0.426792
C24   C     C_R   0.157230 0.573731 0.205405 0.543986
C25   C     C_R   0.435032 0.494409 0.930508 0.423736
C26   C     C_R   0.933126 0.499489 0.036033 0.036673
C27   C     C_R   0.474421 0.081578 0.457705 0.036692
C28   C     C_R   0.411079 0.512119 0.028121 0.032092
C29   C     C_R   0.918423 0.392841 0.457706 0.036692
C30   C     C_R   0.487953 0.898920 0.028117 0.032086
C31   C     C_R   0.607158 0.525578 0.457705 0.036692
C32   C     C_R   0.485538 0.106032 0.523220 0.036221
C33   C     C_R   0.906216 0.486364 0.970848 0.032690
C34   C     C_R   0.620494 0.514462 0.523221 0.036221
C35   C     C_R   0.067741 0.478763 0.125388 -0.074199
C36   C     C_R   0.501187 0.925848 0.962901 0.036471
C37   C     C_R   0.893967 0.379505 0.523221 0.036221
C38   C     C_R   0.424737 0.498867 0.962904 0.036473
C39   C     C_R   0.010382 0.541323 0.015811 -0.033171
C40   C     C_R   0.543963 0.076205 0.474760 -0.033528
C41   C     C_R   0.458706 0.469039 0.015817 -0.033172
C42   C     C_R   0.923794 0.467756 0.474760 -0.033528
C43   C     C_R   0.531048 0.989631 0.015816 -0.033172
C44   C     C_R   0.532243 0.456035 0.474760 -0.033528
C45   C     C_R   0.547681 0.085617 0.507610 -0.033524
C46   C     C_R   0.480414 0.030097 0.355056 -0.092402
C47   C     C_R   0.996908 0.534620 0.983137 -0.033319
C48   C     C_R   0.537936 0.452317 0.507610 -0.033523
C49   C     C_R   0.537809 0.003115 0.983142 -0.033318
C50   C     C_R   0.914380 0.462062 0.507609 -0.033523
C51   C     C_R   0.465407 0.462266 0.983143 -0.033318
C52   C     C_R   0.177321 0.631028 0.007713 -0.132241
C53   C     C_R   0.676660 0.052470 0.476463 -0.135805
C54   C     C_R   0.546899 0.389952 0.023420 -0.128041
C55   C     C_R   0.947526 0.624188 0.476461 -0.135804
C56   C     C_R   0.610165 0.156912 0.023424 -0.128037
C57   C     C_R   0.521263 0.588957 0.125394 -0.074193
C58   C     C_R   0.375811 0.323334 0.476462 -0.135807
C59   C     C_R   0.677195 0.056901 0.508866 -0.130436
C60   C     C_R   0.164115 0.624046 0.975532 -0.130479
C61   C     C_R   0.379706 0.322801 0.508865 -0.130436
C62   C     C_R   0.617132 0.170143 0.991259 -0.127677
C63   C     C_R   0.943094 0.620292 0.508864 -0.130436
C64   C     C_R   0.553138 0.382967 0.991256 -0.127676
C65   C     C_R   0.843100 0.453138 0.023413 -0.128052
C66   C     C_R   0.414232 0.104392 0.473418 -0.122306
C67   C     C_R   0.368989 0.546259 0.007718 -0.132236
C68   C     C_R   0.969905 0.450314 0.355056 -0.092401
C69   C     C_R   0.895609 0.309838 0.473419 -0.122306
C70   C     C_R   0.453793 0.822694 0.007711 -0.132233
C71   C     C_R   0.690161 0.585768 0.473419 -0.122307
C72   C     C_R   0.420608 0.117757 0.505683 -0.125396
C73   C     C_R   0.829878 0.446899 0.991248 -0.127681
C74   C     C_R   0.697151 0.579393 0.505684 -0.125397
C75   C     C_R   0.460010 0.835909 0.975531 -0.130474
C76   C     C_R   0.882243 0.302848 0.505684 -0.125396
C77   C     C_R   0.375971 0.540035 0.975537 -0.130483
C78   C     C_3   0.978607 0.649083 0.796704 0.019408
C79   C     C_R   0.410955 0.932030 0.125358 -0.074205
C80   C     C_3   0.059201 0.736897 0.810958 -0.274148
C81   C     C_3   0.134637 0.791256 0.786844 -0.478015
C82   C     C_3   0.779321 0.151029 0.665223 0.022962
C83   C     C_3   0.759022 0.092450 0.694840 -0.259323
C84   C     C_3   0.808102 0.035768 0.694319 -0.496072
C85   C     C_3   0.350922 0.329526 0.796710 0.019409
C86   C     C_3   0.263110 0.322303 0.810967 -0.274147
C87   C     C_3   0.208750 0.343388 0.786855 -0.478013
C88   C     C_3   0.848964 0.628291 0.665220 0.022963
C89   C     C_3   0.907541 0.666574 0.694838 -0.259324
C90   C     C_R   0.549684 0.519586 0.355056 -0.092400
C91   C     C_3   0.964219 0.772338 0.694315 -0.496073
C92   C     C_3   0.670380 0.021319 0.796693 0.019398
C93   C     C_3   0.677571 0.940704 0.810943 -0.274139
C94   C     C_3   0.656430 0.865251 0.786829 -0.478015
C95   C     C_3   0.371706 0.220676 0.665222 0.022960
C96   C     C_3   0.333427 0.240973 0.694839 -0.259323
C97   C     C_3   0.227664 0.191891 0.694318 -0.496073
C98   C     C_3   0.564445 0.785325 0.353560 0.031509
C99   C     C_3   0.642831 0.844416 0.330526 -0.273414
C100  C     C_3   0.729928 0.839197 0.337686 -0.465292
C101  C     C_R   0.474077 0.062905 0.625251 -0.086919
C102  C     C_3   0.017295 0.666463 0.201731 0.017945
C103  C     C_3   0.937193 0.671571 0.186038 -0.274785
C104  C     C_3   0.857922 0.647210 0.208865 -0.475875
C105  C     C_3   0.220880 0.435549 0.353558 0.031516
C106  C     C_3   0.201586 0.357165 0.330522 -0.273418
C107  C     C_3   0.109270 0.270066 0.337681 -0.465302
C108  C     C_3   0.649074 0.983117 0.201805 0.017890
C109  C     C_3   0.734211 0.063385 0.186139 -0.274733
C110  C     C_3   0.788866 0.142700 0.208977 -0.475880
C111  C     C_3   0.214674 0.779121 0.353558 0.031515
C112  C     C_R   0.839799 0.414976 0.704698 0.564720
C113  C     C_R   0.940451 0.415388 0.873491 -0.075264
C114  C     C_3   0.155583 0.798415 0.330524 -0.273417
C115  C     C_3   0.160802 0.890731 0.337683 -0.465299
C116  C     C_3   0.333509 0.350819 0.201734 0.017941
C117  C     C_3   0.328390 0.265601 0.186043 -0.274789
C118  C     C_3   0.352726 0.210678 0.208873 -0.475884
C119  C     C_R   0.588824 0.525922 0.625251 -0.086919
C120  C     C_R   0.475001 0.059631 0.873505 -0.075259
C121  C     C_R   0.937093 0.411174 0.625251 -0.086919
C122  C     C_R   0.584633 0.525044 0.873496 -0.075263
C123  C     C_R   0.095409 0.484109 0.156307 -0.177582
C124  C     C_R   0.453969 0.982058 0.326715 -0.234480
C125  C     C_R   0.515907 0.611283 0.156312 -0.177599
C126  C     C_R   0.017944 0.471908 0.326716 -0.234475
C127  C     C_R   0.388608 0.904369 0.156276 -0.177555
C128  C     C_R   0.573593 0.156842 0.794496 0.546169
C129  C     C_R   0.528090 0.546032 0.326715 -0.234474
C130  C     C_R   0.480669 0.076593 0.657600 -0.174173
C131  C     C_R   0.910309 0.391852 0.842839 -0.176787
C132  C     C_R   0.595921 0.519331 0.657600 -0.174175
C133  C     C_R   0.481587 0.089758 0.842852 -0.176782
C134  C     C_R   0.923406 0.404078 0.657600 -0.174172
C135  C     C_R   0.608161 0.518446 0.842842 -0.176783
C136  C     C_R   0.083848 0.623199 0.163449 0.245205
C137  C     C_R   0.480915 0.862073 0.348139 0.257157
C138  C     C_R   0.376802 0.460641 0.163451 0.245250
C139  C     C_R   0.585024 0.424824 0.704698 0.564724
C140  C     C_R   0.137928 0.618841 0.348138 0.257157
C141  C     C_R   0.539422 0.916346 0.163480 0.245217
C142  C     C_R   0.381159 0.519082 0.348138 0.257154
C143  C     C_R   0.648733 0.158819 0.653662 0.234437
C144  C     C_R   0.918810 0.541219 0.835876 0.245343
C145  C     C_R   0.510084 0.351266 0.653661 0.234437
C146  C     C_R   0.622401 0.081172 0.835873 0.245337
C147  C     C_R   0.841178 0.489914 0.653661 0.234436
C148  C     C_R   0.458791 0.377582 0.835880 0.245333
C149  C     C_R   0.058535 0.618324 0.132091 -0.037949
C150  C     C_R   0.843161 0.416753 0.794495 0.546174
C151  C     C_R   0.498723 0.906558 0.377205 -0.066319
C152  C     C_R   0.381686 0.440198 0.132095 -0.037923
C153  C     C_R   0.093443 0.592164 0.377204 -0.066318
C154  C     C_R   0.559895 0.941657 0.132123 -0.037923
C155  C     C_R   0.407836 0.501272 0.377204 -0.066321
C156  C     C_R   0.641019 0.152517 0.621227 -0.052671
C157  C     C_R   0.946810 0.562911 0.866982 -0.036242
C158  C     C_R   0.511497 0.358981 0.621227 -0.052670
C159  C     C_R   0.616114 0.053187 0.866980 -0.036241
C160  C     C_R   0.847479 0.488500 0.621227 -0.052672
C161  C     C_R   0.575176 0.160201 0.704698 0.564720
C162  C     C_R   0.437107 0.383881 0.866987 -0.036246
C163  C     C_R   0.052082 0.547327 0.112978 0.199544
C164  C     C_R   0.501614 0.991816 0.380744 0.179353
C165  C     C_R   0.452696 0.504736 0.112983 0.199541
C166  C     C_R   0.008185 0.509796 0.380744 0.179353
C167  C     C_R   0.495285 0.947899 0.112979 0.199513
C168  C     C_R   0.490203 0.498383 0.380743 0.179352
C169  C     C_R   0.554408 0.103501 0.606598 0.178446
C170  C     C_R   0.955748 0.499472 0.885924 0.198748
C171  C     C_R   0.549090 0.445592 0.606598 0.178446
C172  C     C_R   0.426542 0.583298 0.294343 0.595503
C173  C     C_R   0.543773 0.044298 0.885930 0.198748
C174  C     C_R   0.896496 0.450907 0.606598 0.178446
C175  C     C_R   0.500551 0.456254 0.885929 0.198751
C176  C     C_R   0.894754 0.452182 0.824105 0.004928
C177  C     C_R   0.567778 0.127126 0.672107 0.032155
C178  C     C_R   0.547826 0.442566 0.824107 0.004923
C179  C     C_R   0.872873 0.440654 0.672107 0.032157
C180  C     C_R   0.557437 0.105261 0.824108 0.004921
C181  C     C_R   0.559345 0.432221 0.672107 0.032157
C182  C     C_R   0.453393 0.897787 0.323136 0.018638
C183  C     C_R   0.416499 0.842770 0.205405 0.543970
C184  C     C_R   0.107926 0.558404 0.175346 0.004668
C185  C     C_R   0.444396 0.546607 0.323136 0.018638
C186  C     C_R   0.450465 0.892066 0.175345 0.004674
C187  C     C_R   0.102214 0.555604 0.323136 0.018643
C188  C     C_R   0.441601 0.549513 0.175349 0.004683
C189  C     C_R   0.101089 0.588945 0.028116 0.032092
C190  C     C_R   0.608368 0.058980 0.459196 0.036475
C191  C     C_R   0.500545 0.433624 0.036039 0.036669
C192  C     C_R   0.941019 0.549386 0.459195 0.036476
C193  C     C_R   0.566485 0.066882 0.036040 0.036674
C194  C     C_R   0.156757 0.573458 0.294343 0.595506
C195  C     C_R   0.450613 0.391627 0.459195 0.036475
C196  C     C_R   0.611943 0.071915 0.524755 0.044464
C197  C     C_R   0.074180 0.575285 0.962899 0.036471
C198  C     C_R   0.459972 0.388054 0.524754 0.044464
C199  C     C_R   0.580244 0.093810 0.970855 0.032683
C200  C     C_R   0.928081 0.540026 0.524753 0.044463
C201  C     C_R   0.513668 0.419835 0.970854 0.032687
C202  C     C_R   0.113338 0.592132 0.060580 0.430394
C203  C     C_R   0.600140 0.043945 0.426891 0.422053
C204  C     C_R   0.496009 0.443989 0.068409 0.423194
Cr1   Cr    Cr6+3 0.530290 0.262330 0.750000 1.034907
Cr2   Cr    Cr6+3 0.732040 0.469710 0.750000 1.034909
Cr3   Cr    Cr6+3 0.737670 0.267960 0.750000 1.034927
Cr4   Cr    Cr6+3 0.262330 0.530290 0.250000 1.035256
Cr5   Cr    Cr6+3 0.469710 0.732040 0.250000 1.035345
Cr6   Cr    Cr6+3 0.267960 0.737670 0.250000 1.035246
H1    H     H_    0.759618 0.410314 0.982371 0.155238
H2    H     H_    0.421399 0.752468 0.016592 0.158167
H3    H     H_    0.203489 0.216027 0.674141 0.159240
H4    H     H_    0.202320 0.207824 0.716096 0.136518
H5    H     H_    0.197972 0.115567 0.692730 0.147321
H6    H     H_    0.554187 0.714239 0.353709 0.174850
H7    H     H_    0.585426 0.811210 0.377726 0.131239
H8    H     H_    0.620121 0.819648 0.306373 0.199091
H9    H     H_    0.660125 0.918044 0.331960 0.156955
H10   H     H_    0.754778 0.864778 0.361659 0.176405
H11   H     H_    0.785540 0.883081 0.320893 0.142022
H12   H     H_    0.715251 0.766528 0.335548 0.164611
H13   H     H_    0.889328 0.250445 0.460882 0.166103
H14   H     H_    0.041123 0.713868 0.222156 0.148718
H15   H     H_    0.992615 0.595302 0.211127 0.108135
H16   H     H_    0.962821 0.742884 0.176960 0.175488
H17   H     H_    0.910302 0.622309 0.166138 0.172660
H18   H     H_    0.830369 0.575583 0.217890 0.151254
H19   H     H_    0.800977 0.651190 0.196793 0.159520
H20   H     H_    0.882340 0.696744 0.228705 0.143196
H21   H     H_    0.160052 0.445805 0.353707 0.174851
H22   H     H_    0.225784 0.414565 0.377724 0.131238
H23   H     H_    0.199528 0.379878 0.306370 0.199076
H24   H     H_    0.331148 0.578640 0.016600 0.158175
H25   H     H_    0.257920 0.339873 0.331957 0.156957
H26   H     H_    0.110001 0.245214 0.361654 0.176408
H27   H     H_    0.097542 0.214456 0.320888 0.142009
H28   H     H_    0.051278 0.284742 0.335544 0.164606
H29   H     H_    0.672706 0.959390 0.222243 0.148712
H30   H     H_    0.602405 0.007593 0.211179 0.108131
H31   H     H_    0.780096 0.037966 0.177088 0.175487
H32   H     H_    0.711778 0.090162 0.166222 0.172740
H33   H     H_    0.744591 0.170048 0.217976 0.151254
H34   H     H_    0.849740 0.199763 0.196923 0.159514
H35   H     H_    0.224666 0.656390 0.960579 0.162601
H36   H     H_    0.814047 0.118404 0.228833 0.143206
H37   H     H_    0.285759 0.839949 0.353708 0.174852
H38   H     H_    0.188788 0.774216 0.377724 0.131238
H39   H     H_    0.180352 0.800473 0.306371 0.199079
H40   H     H_    0.081956 0.742080 0.331958 0.156959
H41   H     H_    0.135221 0.890000 0.361656 0.176408
H42   H     H_    0.116918 0.902459 0.320889 0.142010
H43   H     H_    0.233470 0.948724 0.335545 0.164610
H44   H     H_    0.286098 0.327248 0.222158 0.148717
H45   H     H_    0.404669 0.397291 0.211132 0.108134
H46   H     H_    0.728770 0.048196 0.521459 0.162826
H47   H     H_    0.257078 0.219927 0.176962 0.175490
H48   H     H_    0.377659 0.287966 0.166145 0.172645
H49   H     H_    0.424350 0.254741 0.217902 0.151251
H50   H     H_    0.348737 0.149747 0.196802 0.159522
H51   H     H_    0.303184 0.185568 0.228710 0.143191
H52   H     H_    0.589724 0.349294 0.982379 0.155239
H53   H     H_    0.951798 0.680572 0.521457 0.162825
H54   H     H_    0.650803 0.240406 0.982384 0.155227
H55   H     H_    0.319426 0.271225 0.521458 0.162826
H56   H     H_    0.727446 0.039890 0.465073 0.160920
H57   H     H_    0.372510 0.134388 0.516974 0.161115
H58   H     H_    0.247543 0.668865 0.016596 0.158168
H59   H     H_    0.312444 0.272547 0.465071 0.160920
H60   H     H_    0.638446 0.217471 0.038375 0.160461
H61   H     H_    0.960106 0.687555 0.465070 0.160920
H62   H     H_    0.579195 0.361686 0.038370 0.160450
H63   H     H_    0.958569 0.627971 0.876726 0.133228
H64   H     H_    0.703817 0.186398 0.607399 0.192739
H65   H     H_    0.372048 0.330580 0.876732 0.133227
H66   H     H_    0.813598 0.517417 0.607398 0.192739
H67   H     H_    0.669402 0.041397 0.876718 0.133235
H68   H     H_    0.343622 0.568236 0.960583 0.162599
H69   H     H_    0.482579 0.296182 0.607399 0.192737
H70   H     H_    0.508940 0.874231 0.397526 0.132145
H71   H     H_    0.046178 0.671269 0.122378 0.131825
H72   H     H_    0.365291 0.491053 0.397525 0.132145
H73   H     H_    0.625278 0.954176 0.122434 0.131888
H74   H     H_    0.125769 0.634708 0.397526 0.132144
H75   H     H_    0.328739 0.374899 0.122381 0.131833
H76   H     H_    0.112346 0.432949 0.164680 0.166453
H77   H     H_    0.433616 0.010421 0.307551 0.122924
H78   H     H_    0.567071 0.679378 0.164686 0.166343
H79   H     H_    0.865612 0.238120 0.516976 0.161116
H80   H     H_    0.989581 0.423192 0.307551 0.122925
H81   H     H_    0.320441 0.887265 0.164624 0.166549
H82   H     H_    0.576806 0.566387 0.307551 0.122933
H83   H     H_    0.417635 0.049517 0.671222 0.123907
H84   H     H_    0.893680 0.323801 0.834514 0.165267
H85   H     H_    0.631878 0.582365 0.671222 0.123902
H86   H     H_    0.430180 0.106416 0.834532 0.165304
H87   H     H_    0.950483 0.368121 0.671223 0.123907
H88   H     H_    0.676210 0.569870 0.834516 0.165286
H89   H     H_    0.062858 0.423754 0.110597 0.141267
H90   H     H_    0.431793 0.775362 0.960576 0.162606
H91   H     H_    0.482416 0.095901 0.357136 0.168462
H92   H     H_    0.576281 0.639078 0.110605 0.141266
H93   H     H_    0.904101 0.386511 0.357137 0.168461
H94   H     H_    0.360779 0.936749 0.110544 0.141293
H95   H     H_    0.613487 0.517585 0.357136 0.168463
H96   H     H_    0.406212 0.022740 0.614718 0.156085
H97   H     H_    0.947086 0.366041 0.888154 0.140548
H98   H     H_    0.616525 0.593788 0.614718 0.156083
H99   H     H_    0.419046 0.053032 0.888174 0.140555
H100  H     H_    0.977258 0.383474 0.614719 0.156085
H101  H     H_    0.761879 0.627492 0.516976 0.161116
H102  H     H_    0.633983 0.581023 0.888159 0.140549
H103  H     H_    0.950784 0.669498 0.776543 0.146210
H104  H     H_    0.004010 0.603375 0.787140 0.106833
H105  H     H_    0.032903 0.781832 0.820220 0.175462
H106  H     H_    0.089922 0.717624 0.830549 0.172172
H107  H     H_    0.162766 0.747952 0.777562 0.150292
H108  H     H_    0.192129 0.854112 0.797891 0.158738
H109  H     H_    0.106236 0.813296 0.767304 0.139093
H110  H     H_    0.759673 0.105729 0.644148 0.141007
H111  H     H_    0.855394 0.198662 0.663603 0.148927
H112  H     H_    0.361121 0.110674 0.460880 0.166104
H113  H     H_    0.782975 0.138768 0.715552 0.184973
H114  H     H_    0.683063 0.044347 0.696982 0.147076
H115  H     H_    0.783966 0.987458 0.674142 0.159238
H116  H     H_    0.792168 0.994489 0.716097 0.136521
H117  H     H_    0.884425 0.082399 0.692731 0.147324
H118  H     H_    0.330503 0.281291 0.776548 0.146211
H119  H     H_    0.396629 0.400638 0.787147 0.106835
H120  H     H_    0.218175 0.251067 0.820227 0.175461
H121  H     H_    0.282387 0.372292 0.830559 0.172179
H122  H     H_    0.252053 0.414823 0.777574 0.150295
H123  H     H_    0.782537 0.420846 0.038363 0.160437
H124  H     H_    0.145896 0.338021 0.797904 0.158736
H125  H     H_    0.186707 0.292951 0.767314 0.139095
H126  H     H_    0.801329 0.656728 0.663600 0.148928
H127  H     H_    0.894264 0.653943 0.644146 0.141007
H128  H     H_    0.861223 0.644209 0.715550 0.184966
H129  H     H_    0.955646 0.638722 0.696981 0.147081
H130  H     H_    0.012529 0.796513 0.674139 0.159241
H131  H     H_    0.005497 0.797685 0.716093 0.136516
H132  H     H_    0.917586 0.802027 0.692727 0.147322
H133  H     H_    0.718599 0.049120 0.776527 0.146207
H134  H     H_    0.749554 0.638879 0.460881 0.166102
H135  H     H_    0.599265 0.995945 0.787138 0.106834
H136  H     H_    0.748810 0.966974 0.820195 0.175461
H137  H     H_    0.627596 0.910008 0.830540 0.172189
H138  H     H_    0.584990 0.837149 0.777556 0.150297
H139  H     H_    0.661775 0.807745 0.797873 0.158733
H140  H     H_    0.706850 0.893628 0.767282 0.139096
H141  H     H_    0.343266 0.144603 0.663602 0.148926
H142  H     H_    0.346054 0.240324 0.644148 0.141006
H143  H     H_    0.355793 0.217020 0.715552 0.184967
H144  H     H_    0.361282 0.316932 0.696982 0.147081
N1    N     N_R   0.037256 0.548896 0.080092 -0.392452
N2    N     N_R   0.545356 0.029709 0.918839 -0.392380
N3    N     N_R   0.905061 0.454599 0.572866 -0.377376
N4    N     N_R   0.484405 0.454686 0.918840 -0.392383
N5    N     N_R   0.524295 0.036636 0.410985 -0.375672
N6    N     N_R   0.451131 0.488342 0.080098 -0.392455
N7    N     N_R   0.963365 0.487657 0.410985 -0.375673
N8    N     N_R   0.511737 0.962737 0.080096 -0.392448
N9    N     N_R   0.512343 0.475702 0.410984 -0.375672
N10   N     N_R   0.549536 0.094936 0.572866 -0.377375
N11   N     N_R   0.970330 0.515620 0.918834 -0.392385
N12   N     N_R   0.545398 0.450464 0.572866 -0.377376
O1    O     O_R   0.509640 0.171340 0.784000 -0.514708
O2    O     O_R   0.171340 0.509640 0.216000 -0.515436
O3    O     O_R   0.490360 0.661700 0.284000 -0.518070
O4    O     O_R   0.338300 0.828660 0.216000 -0.515470
O5    O     O_R   0.539230 0.345420 0.781810 -0.459775
O6    O     O_R   0.806190 0.460770 0.718190 -0.470906
O7    O     O_R   0.654580 0.193810 0.781810 -0.459761
O8    O     O_R   0.539230 0.345420 0.718190 -0.470902
O9    O     O_R   0.806190 0.460770 0.781810 -0.459770
O10   O     O_R   0.654580 0.193810 0.718190 -0.470901
O11   O     O_R   0.345420 0.539230 0.281810 -0.478725
O12   O     O_R   0.661700 0.490360 0.716000 -0.494025
O13   O     O_R   0.460770 0.806190 0.218190 -0.459258
O14   O     O_R   0.193810 0.654580 0.281810 -0.478720
O15   O     O_R   0.345420 0.539230 0.218190 -0.459283
O16   O     O_R   0.460770 0.806190 0.281810 -0.478708
O17   O     O_R   0.193810 0.654580 0.218190 -0.459299
O18   O     O_3   0.666667 0.333333 0.750000 -0.245893
O19   O     O_3   0.333333 0.666667 0.250000 -0.238219
O20   O     O_2   0.191625 0.632573 0.071581 -0.460108
O21   O     O_2   0.658974 0.034503 0.412923 -0.527812
O22   O     O_2   0.532575 0.414470 0.086227 -0.507035
O23   O     O_R   0.828660 0.338300 0.784000 -0.514710
O24   O     O_2   0.965496 0.624469 0.412921 -0.527812
O25   O     O_2   0.585656 0.118054 0.086230 -0.507070
O26   O     O_2   0.375531 0.341019 0.412922 -0.527810
O27   O     O_2   0.657481 0.049955 0.572243 -0.532409
O28   O     O_2   0.125555 0.598975 0.912657 -0.505557
O29   O     O_2   0.392471 0.342516 0.572242 -0.532409
O30   O     O_2   0.619734 0.184194 0.927431 -0.461167
O31   O     O_2   0.950039 0.607526 0.572242 -0.532409
O32   O     O_2   0.564535 0.380332 0.927428 -0.461169
O33   O     O_2   0.881939 0.467463 0.086220 -0.507038
O34   O     O_R   0.509640 0.171340 0.716000 -0.494023
O35   O     O_2   0.399142 0.056121 0.411278 -0.528866
O36   O     O_2   0.367447 0.559025 0.071585 -0.460057
O37   O     O_2   0.943881 0.343018 0.411280 -0.528867
O38   O     O_2   0.441027 0.808369 0.071579 -0.460074
O39   O     O_2   0.656982 0.600858 0.411279 -0.528868
O40   O     O_2   0.440640 0.138135 0.569457 -0.534519
O41   O     O_2   0.815844 0.435500 0.927421 -0.461152
O42   O     O_2   0.697494 0.559362 0.569458 -0.534519
O43   O     O_2   0.473477 0.874485 0.912658 -0.505570
O44   O     O_2   0.861863 0.302504 0.569458 -0.534520
O45   O     O_R   0.661700 0.490360 0.784000 -0.514706
O46   O     O_2   0.401039 0.526544 0.912663 -0.505566
O47   O     O_3   0.905698 0.603948 0.818581 -0.557553
O48   O     O_3   0.736362 0.206121 0.666783 -0.540122
O49   O     O_3   0.396057 0.301744 0.818584 -0.557563
O50   O     O_3   0.793875 0.530238 0.666782 -0.540122
O51   O     O_3   0.698211 0.094239 0.818569 -0.557559
O52   O     O_3   0.469758 0.263636 0.666783 -0.540122
O53   O     O_3   0.478857 0.778014 0.344660 -0.528587
O54   O     O_3   0.093501 0.697122 0.181094 -0.558542
O55   O     O_3   0.299157 0.521138 0.344660 -0.528586
O56   O     O_R   0.828660 0.338300 0.716000 -0.494021
O57   O     O_3   0.603765 0.906902 0.181158 -0.558528
O58   O     O_3   0.221985 0.700844 0.344660 -0.528586
O59   O     O_3   0.302868 0.396378 0.181094 -0.558495
O60   O     O_R   0.171340 0.509640 0.284000 -0.518084
O61   O     O_R   0.490360 0.661700 0.216000 -0.515481
O62   O     O_R   0.338300 0.828660 0.284000 -0.518078

loop_
_geom_bond_atom_site_label_1
_geom_bond_atom_site_label_2
_ccdc_geom_bond_type
C165  N6    S    
C106  H23   S    
C129  C185  A    
C29   C42   A    
C24   C184  S    
C120  H99   S    
C5    N9    Am   
C93   H137  S    
C56   H60   S    
C6    C196  A    
C152  C165  A    
C102  H14   S    
C116  H44   S    
C125  C188  A    
C126  C187  A    
C153  C166  A    
Cr6   O17   S    
C118  H50   S    
C106  C107  S    
C150  O23   A    
C103  H17   S    
C58   C195  A    
C112  O6    A    
C108  C109  S    
C143  O48   S    
C120  C133  A    
C32   C45   A    
C75   H90   S    
Cr1   O5    S    
C10   N3    Am   
C66   C72   A    
C121  H100  S    
C15   O36   D    
C128  C180  S    
C134  C179  A    
C53   C190  A    
C156  H64   S    
C139  C181  S    
C12   O33   D    
C101  C130  A    
C58   C61   A    
Cr6   O19   S    
C17   C30   A    
C46   C124  A    
C14   N5    Am   
Cr5   O13   S    
C19   C32   A    
C107  H28   S    
C170  N11   S    
C104  H18   S    
C11   N4    Am   
C29   C69   A    
C106  H25   S    
C135  H88   S    
C81   H109  S    
C111  O58   S    
C85   O49   S    
C82   H110  S    
C144  O47   S    
C23   C37   A    
C102  H15   S    
C35   C163  A    
C63   H53   S    
C22   O43   D    
C140  O58   S    
C124  C182  A    
C130  C177  A    
C132  C181  A    
C95   H142  S    
C115  H43   S    
C98   O53   S    
C146  C180  A    
C203  N5    Am   
C14   O35   D    
C8    O29   D    
C20   C33   A    
Cr6   O14   S    
C68   H93   S    
C97   H4    S    
Cr3   O56   S    
C33   C47   A    
C174  N3    S    
C56   C62   A    
C154  C167  A    
C183  C186  S    
C55   H61   S    
C161  C177  S    
C57   H92   S    
C133  C180  A    
C39   C47   A    
Cr1   O8    S    
C1    O45   A    
C79   C127  A    
C18   N9    Am   
C84   H116  S    
C140  C187  A    
C113  C170  A    
C38   C51   A    
C18   O39   D    
C22   C36   A    
Cr4   O60   S    
C148  C162  A    
C80   H106  S    
C27   C66   A    
C37   C50   A    
C104  H19   S    
C109  H32   S    
C168  N9    S    
Cr3   O23   S    
C91   H132  S    
C52   C189  A    
C26   C39   A    
C139  O12   A    
C124  H77   S    
C147  C179  A    
C88   C89   S    
C98   C99   S    
C95   O52   S    
C12   C26   A    
C83   H114  S    
C149  H71   S    
C18   C31   A    
C79   C167  A    
C79   H94   S    
C41   C51   A    
Cr2   O6    S    
C44   C48   A    
C119  C171  A    
C25   O46   D    
C68   C166  A    
C94   H139  S    
C78   H104  S    
C183  O4    A    
C70   H2    S    
C86   H120  S    
C78   O47   S    
C8    C198  A    
C67   C77   A    
C112  O56   A    
C166  N7    S    
C85   C86   S    
C13   O16   A    
C100  H11   S    
C123  H76   S    
C203  O21   D    
C62   C199  A    
C57   C125  A    
C39   C189  A    
C78   C80   S    
C115  H41   S    
C145  C181  A    
C131  C176  A    
C69   C76   A    
C74   H101  S    
C52   C60   A    
C139  O8    A    
C55   C63   A    
C7    O28   D    
C54   H62   S    
C108  H29   S    
C89   C91   S    
C27   C40   A    
Cr5   O19   S    
Cr2   O18   S    
C45   C196  A    
C31   C71   A    
C60   H35   S    
C89   H129  S    
C164  N5    S    
C147  C160  A    
C105  O55   S    
C11   O32   D    
C41   C191  A    
C105  H22   S    
C22   N2    Am   
C23   O44   D    
Cr1   O1    S    
C111  H38   S    
C162  C175  A    
C114  H39   S    
C48   C198  A    
C91   H130  S    
C69   H13   S    
C77   H68   S    
C138  C188  A    
C151  H70   S    
C36   C75   A    
C25   C38   A    
C1    C178  S    
C83   C84   S    
C99   H8    S    
C172  C185  S    
C144  C176  A    
Cr1   O34   S    
C175  N4    S    
C3    N7    Am   
C42   C50   A    
Cr5   O61   S    
C121  C134  A    
C145  O52   S    
Cr4   O19   S    
C19   O40   D    
C49   C199  A    
C142  C185  A    
C148  C178  A    
C90   C168  A    
C73   H1    S    
C93   H136  S    
C24   O17   A    
C87   H124  S    
C114  C115  S    
C15   N6    Am   
C34   C48   A    
C2    O61   A    
C43   C193  A    
C19   N10   Am   
C35   C123  A    
C46   H91   S    
C3    C192  A    
C128  O1    A    
C117  H48   S    
C118  H51   S    
C54   C64   A    
C6    O27   D    
C159  H67   S    
C128  O7    A    
C172  O3    A    
C88   H127  S    
C143  C177  A    
C102  C103  S    
Cr2   O45   S    
C100  H10   S    
C107  H26   S    
C111  H37   S    
C151  C164  A    
C70   C75   A    
C115  H42   S    
C47   C197  A    
C141  C186  A    
C144  C157  A    
C9    C199  A    
C142  O55   S    
C173  N2    S    
C64   C201  A    
C67   H24   S    
C82   O48   S    
C96   H143  S    
Cr2   O9    S    
C90   H95   S    
C143  C156  A    
C32   C72   A    
C16   O37   D    
C202  N1    Am   
Cr3   O7    S    
C66   H112  S    
C108  O57   S    
C161  O34   A    
C157  H63   S    
C64   H52   S    
C81   H108  S    
C57   C165  A    
C28   C41   A    
C63   C200  A    
C161  O10   A    
C133  H86   S    
Cr5   O3    S    
C98   H6    S    
C126  H80   S    
C110  H33   S    
C95   H141  S    
C129  H82   S    
C204  N6    Am   
C167  N8    S    
Cr3   O18   S    
C101  C169  A    
C160  H66   S    
C14   C27   A    
C85   H118  S    
C140  C153  A    
C97   H3    S    
C153  H74   S    
C154  H73   S    
C4    C193  A    
C30   C70   A    
C116  O59   S    
C202  O20   D    
C40   C45   A    
Cr4   O15   S    
C20   N11   Am   
C101  H96   S    
C62   H54   S    
C6    N10   Am   
C86   C87   S    
C21   C34   A    
C1    O5    A    
C138  C152  A    
C194  O60   A    
C42   C192  A    
C131  H84   S    
C92   O51   S    
C5    O26   D    
C123  C184  A    
C157  C170  A    
C104  H20   S    
C121  C174  A    
C24   O2    A    
C100  H12   S    
C155  C168  A    
C136  C184  A    
C122  H102  S    
C21   N12   Am   
C91   H131  S    
C60   C197  A    
C34   C74   A    
C163  N1    S    
C37   C76   A    
C99   H9    S    
C187  C194  S    
C83   H113  S    
C150  O9    A    
C189  C202  A    
C9    O30   D    
C25   N4    Am   
C191  C204  A    
C21   O42   D    
C94   H140  S    
C44   C195  A    
C59   H46   S    
C152  H75   S    
C160  C174  A    
C86   H121  S    
C13   O62   A    
C135  C178  A    
C10   C200  A    
C61   C198  A    
C71   C74   A    
C118  H49   S    
C38   C77   A    
C59   C196  A    
C35   H89   S    
C105  C106  S    
C132  H85   S    
C55   C192  A    
C109  C110  S    
C138  O59   S    
C145  C158  A    
C87   H125  S    
C15   C28   A    
Cr1   O18   S    
C147  O50   S    
C92   C93   S    
C111  C114  S    
Cr6   O62   S    
C158  C171  A    
C146  O51   S    
C2    C188  S    
C122  C135  A    
C65   H123  S    
C17   O38   D    
C82   C83   S    
C97   H5    S    
C98   H7    S    
C103  C104  S    
C82   H111  S    
C117  C118  S    
C36   C49   A    
C51   C201  A    
C116  H45   S    
C150  C176  S    
C7    C197  A    
C93   C94   S    
C8    N12   Am   
C84   H115  S    
C95   C96   S    
C85   H119  S    
C53   C59   A    
C103  H16   S    
C107  H27   S    
C130  H83   S    
C16   N7    Am   
C4    O25   D    
C105  H21   S    
C171  N12   S    
C80   H105  S    
C9    N2    Am   
C11   C201  A    
C92   H135  S    
Cr2   O12   S    
C190  C203  A    
C122  C175  A    
C114  H40   S    
C156  C169  A    
C127  C186  A    
C65   C73   A    
C116  C117  S    
C136  O54   S    
C108  H30   S    
C149  C163  A    
C169  N10   S    
C109  H31   S    
Cr5   O16   S    
C20   O41   D    
C5    C195  A    
C3    O24   D    
C110  H36   S    
C94   H138  S    
C125  H78   S    
C78   H103  S    
C46   C164  A    
C17   N8    Am   
C90   C129  A    
C23   N3    Am   
C88   O50   S    
C31   C44   A    
C71   H134  S    
C2    O15   A    
C172  O11   A    
C28   C67   A    
C92   H133  S    
C102  O54   S    
C50   C200  A    
C43   C49   A    
C127  H81   S    
C146  C159  A    
C16   C29   A    
C72   H57   S    
C134  H87   S    
C110  H34   S    
C117  H47   S    
C162  H65   S    
C87   H122  S    
C99   C100  S    
C96   C97   S    
C119  C132  A    
C137  C182  A    
C204  O22   D    
C61   H55   S    
C76   H79   S    
C88   H126  S    
C112  C179  S    
C52   H58   S    
Cr4   O11   S    
C84   H117  S    
C142  C155  A    
C183  O13   A    
C68   C126  A    
C119  H98   S    
Cr6   O4    S    
C33   C73   A    
C136  C149  A    
C12   N1    Am   
C113  C131  A    
C26   C65   A    
C80   C81   S    
C96   H144  S    
C58   H59   S    
Cr3   O10   S    
Cr4   O2    S    
C155  H72   S    
C81   H107  S    
C158  H69   S    
C113  H97   S    
C30   C43   A    
C194  O14   A    
C141  O57   S    
C53   H56   S    
C56   C193  A    
C7    N11   Am   
C120  C173  A    
C40   C190  A    
C54   C191  A    
C13   C182  S    
C159  C173  A    
C137  O53   S    
C89   H128  S    
C137  C151  A    
C141  C154  A    
C4    N8    Am   
C10   O31   D    
C148  O49   S    
