data_mof_unit_31047.cif
_audit_creation_date              2012-12-11T17:15:52-0500
_audit_creation_method            fapswitch 2.2
_symmetry_space_group_name_H-M    P1
_symmetry_Int_Tables_number       1
_space_group_crystal_system       triclinic
_cell_length_a                    14.614994
_cell_length_b                    7.231427
_cell_length_c                    13.461842
_cell_angle_alpha                 89.951556
_cell_angle_beta                  99.401051
_cell_angle_gamma                 90.052312
_cell_volume                      1403.63563499

loop_
_atom_site_label
_atom_site_type_symbol
_atom_type_description
_atom_site_fract_x
_atom_site_fract_y
_atom_site_fract_z
_atom_type_partial_charge
O1    O     O_R   0.398210 0.494340 0.401550 -0.530653
O2    O     O_R   0.601790 0.994340 0.598450 -0.531873
O3    O     O_R   0.586310 0.821730 0.403360 -0.543630
O4    O     O_R   0.413690 0.321730 0.596640 -0.544759
C1    C     C_R   0.615288 0.655429 0.381712 0.664067
C2    C     C_R   0.384747 0.155646 0.618394 0.662811
O5    O     O_R   0.397970 0.823900 0.389580 -0.533969
O6    O     O_R   0.602030 0.323900 0.610420 -0.534433
O7    O     O_R   0.412100 0.996500 0.584560 -0.539127
O8    O     O_R   0.587900 0.496500 0.415440 -0.540267
C3    C     C_R   0.365037 0.655229 0.363032 0.719986
C4    C     C_R   0.634967 0.155240 0.636959 0.719764
O9    O     O_3   0.504860 0.661550 0.563990 -0.375723
O10   O     O_3   0.495140 0.161550 0.436010 -0.374112
V1    V     V_3+5 0.499100 0.935510 0.488130 1.396832
V2    V     V_3+5 0.500900 0.435510 0.511870 1.395727
C5    C     C_1   0.716035 0.144659 0.716848 -0.186009
C6    C     C_1   0.283971 0.644656 0.283144 -0.182781
C7    C     C_1   0.783928 0.134125 0.783209 -0.181131
C8    C     C_1   0.216075 0.634156 0.216786 -0.174276
C9    C     C_3   0.215769 0.337694 0.793657 -0.292797
C10   C     C_3   0.721318 0.724272 0.135266 -0.294580
H1    H     H_    0.153653 0.418537 0.759728 0.125562
H2    H     H_    0.736118 0.867248 0.111910 0.130357
H3    H     H_    0.244528 0.405327 0.866316 0.172358
H4    H     H_    0.692646 0.647444 0.065538 0.165634
C11   C     C_3   0.288632 0.345360 0.722679 -0.319205
C12   C     C_3   0.647832 0.730869 0.206737 -0.331810
H5    H     H_    0.352164 0.415537 0.762056 0.146802
H6    H     H_    0.584727 0.653650 0.172178 0.137209
H7    H     H_    0.261000 0.430561 0.655549 0.136459
H8    H     H_    0.626783 0.876955 0.215767 0.145401
H9    H     H_    0.085347 0.125203 0.673073 0.141665
H10   H     H_    0.867254 0.887330 0.263043 0.161117
H11   H     H_    0.193694 0.133902 0.567184 0.135481
H12   H     H_    0.758693 0.901836 0.367294 0.149281
C13   C     C_3   0.148577 0.048809 0.707954 -0.427180
C14   C     C_3   0.849306 0.744502 0.284043 -0.423046
C15   C     C_3   0.276542 0.024803 0.857154 0.232125
C16   C     C_3   0.787480 0.432793 0.222042 0.250652
C17   C     C_3   0.187407 0.134475 0.812182 0.110884
C18   C     C_3   0.812313 0.631058 0.187810 0.105274
H13   H     H_    0.257080 0.876799 0.865119 0.066925
H14   H     H_    0.852049 0.367410 0.262950 0.054644
C19   C     C_3   0.313236 0.147992 0.689094 0.085320
C20   C     C_3   0.686801 0.646230 0.311193 0.082221
C21   C     C_3   0.222094 0.055573 0.636558 -0.333726
C22   C     C_3   0.775981 0.754451 0.355510 -0.338720
C23   C     C_3   0.350320 0.035440 0.785499 -0.358559
C24   C     C_3   0.715336 0.443002 0.294340 -0.337067
H15   H     H_    0.415387 0.100233 0.824813 0.148893
H16   H     H_    0.652668 0.360743 0.263452 0.164338
H17   H     H_    0.368355 0.892718 0.764648 0.115367
H18   H     H_    0.745472 0.379075 0.367673 0.101755
H19   H     H_    0.236546 0.912465 0.613046 0.143987
H20   H     H_    0.805883 0.696428 0.430365 0.130487
O11   O     O_R   0.912140 0.786650 0.084610 -0.544061
O12   O     O_R   0.087860 0.286650 0.915390 -0.540169
O13   O     O_R   0.102040 0.454810 0.110430 -0.533883
O14   O     O_R   0.897960 0.954810 0.889570 -0.538264
C25   C     C_R   0.134990 0.623574 0.136925 0.717294
C26   C     C_R   0.865009 0.123556 0.863079 0.727791
O15   O     O_R   0.913690 0.457060 0.096650 -0.522550
O16   O     O_R   0.086310 0.957060 0.903350 -0.549478
O17   O     O_R   0.898200 0.284560 0.901540 -0.527616
O18   O     O_R   0.101800 0.784560 0.098460 -0.529524
C27   C     C_R   0.884546 0.624888 0.117700 0.664645
C28   C     C_R   0.115087 0.125656 0.881987 0.684496
O19   O     O_3   0.995160 0.617270 0.936040 -0.381525
O20   O     O_3   0.004840 0.117270 0.063960 -0.373011
V3    V     V_3+5 0.000900 0.343280 0.011870 1.443830
V4    V     V_3+5 0.999100 0.843280 0.988130 1.405920
H21   H     H_    0.127669 0.902631 0.717317 0.144781
H22   H     H_    0.913994 0.680159 0.324415 0.125271
O21   O     O_3   0.313532 0.095154 0.952630 -0.654018
H23   H     H_    0.357982 0.001328 0.985652 0.281298
O22   O     O_3   0.752124 0.323887 0.137882 -0.644491
H24   H     H_    0.756413 0.193210 0.160797 0.273314

loop_
_geom_bond_atom_site_label_1
_geom_bond_atom_site_label_2
_ccdc_geom_bond_type
C3    C6    S    
C2    C19   S    
C11   H5    S    
O1    C3    A    
H11   C21   S    
C2    O7    A    
C15   C17   S    
O22   H24   S    
O5    C3    A    
C12   C20   S    
C24   H18   S    
O16   C28   A    
C14   C18   S    
C16   C24   S    
O12   V3    S    
O14   V4    S    
C7    C26   S    
O14   C26   A    
C8    C25   S    
C13   H21   S    
C25   O18   A    
O18   V4    S    
C23   H15   S    
C4    C5    S    
C24   H16   S    
O20   V3    S    
C15   O21   S    
C13   C21   S    
C14   C22   S    
C11   C19   S    
C16   C18   S    
C9    C11   S    
O2    C4    A    
O6    V2    S    
C10   C12   S    
O11   C27   A    
C17   C28   S    
C20   C22   S    
C19   C21   S    
O15   C27   A    
O13   C25   A    
C11   H7    S    
C12   H8    S    
O4    C2    A    
C15   H13   S    
O17   V3    S    
H9    C13   S    
O4    V2    S    
O19   V4    S    
O21   H23   S    
C19   C23   S    
O6    C4    A    
O1    V2    S    
O2    V1    S    
C9    C17   S    
O12   C28   A    
C15   C23   S    
O15   V3    S    
C9    H1    S    
C18   C27   S    
C10   H2    S    
O3    V1    S    
C21   H19   S    
C14   H22   S    
C22   H20   S    
C9    H3    S    
C26   O17   A    
H10   C14   S    
O3    C1    A    
C1    C20   S    
C20   C24   S    
C12   H6    S    
O7    V1    S    
C1    O8    A    
O8    V2    S    
C16   O22   S    
C10   C18   S    
C23   H17   S    
O5    V1    S    
C5    C7    T    
H12   C22   S    
C6    C8    T    
O16   V4    S    
O11   V4    S    
C13   C17   S    
C16   H14   S    
C10   H4    S    
O9    V2    S    
O10   V1    S    
O13   V3    S    
