data_mof_unit_49539.cif
_audit_creation_date              2012-12-11T20:30:28-0500
_audit_creation_method            fapswitch 2.2
_symmetry_space_group_name_H-M    P1
_symmetry_Int_Tables_number       1
_space_group_crystal_system       triclinic
_cell_length_a                    8.220962
_cell_length_b                    17.337759
_cell_length_c                    18.757159
_cell_angle_alpha                 102.867112
_cell_angle_beta                  91.428582
_cell_angle_gamma                 98.274504
_cell_volume                      2574.74589202

loop_
_atom_site_label
_atom_site_type_symbol
_atom_type_description
_atom_site_fract_x
_atom_site_fract_y
_atom_site_fract_z
_atom_type_partial_charge
Ba1   Ba    Ba6+2 0.853800 0.535410 0.467450 1.646266
Ba2   Ba    Ba6+2 0.336030 0.464660 0.532560 1.641850
C1    C     C_3   0.713325 0.822620 0.304446 -0.165919
C2    C     C_R   0.893162 0.423833 0.090459 0.047601
C3    C     C_R   0.732282 0.388139 0.064353 -0.090128
C4    C     C_3   0.130741 0.698927 0.277559 0.315779
C5    C     C_R   0.671484 0.392734 0.995394 -0.077733
C6    C     C_R   0.771855 0.431195 0.950238 0.035106
C7    C     C_R   0.933587 0.467361 0.975544 0.003842
C8    C     C_R   0.712956 0.432975 0.879985 -0.075544
C9    C     C_R   0.816282 0.465690 0.831818 -0.057726
C10   C     C_R   0.977566 0.504745 0.857850 -0.001934
C11   C     C_R   0.034511 0.506753 0.930425 -0.004495
C12   C     C_3   0.664064 0.739660 0.319763 0.334421
C13   C     C_R   0.763065 0.460862 0.758402 -0.012981
C14   C     C_R   0.870954 0.491602 0.711760 -0.289687
C15   C     C_R   0.027328 0.533406 0.736811 0.022644
C16   C     C_3   0.152634 0.734634 0.210035 -0.222644
C17   C     C_R   0.081082 0.542201 0.811720 -0.047626
C18   C     C_R   0.151711 0.503725 0.073512 0.040582
C19   C     C_R   0.209726 0.503471 0.145624 0.009839
C20   C     C_R   0.108059 0.463302 0.190672 -0.040832
C21   C     C_R   0.953171 0.420686 0.160493 -0.033991
C22   C     C_R   0.233996 0.587188 0.841953 -0.050160
C23   C     C_3   0.461242 0.335601 0.304749 0.312854
C24   C     C_R   0.291766 0.590863 0.914625 0.024784
C25   C     C_R   0.192291 0.547586 0.957970 -0.000266
C26   C     C_R   0.249654 0.546002 0.029639 0.019423
C27   C     C_R   0.446137 0.635877 0.946141 0.056164
C28   C     C_3   0.244057 0.708797 0.628546 0.298993
C29   C     C_R   0.497657 0.633979 0.017486 -0.081770
C30   C     C_R   0.404575 0.587793 0.058040 0.008958
C31   C     C_R   0.369374 0.543834 0.172397 -0.055345
C32   C     C_R   0.464951 0.584803 0.127518 -0.098763
C33   C     C_R   0.427162 0.544082 0.243998 -0.011989
C34   C     C_3   0.444154 0.310047 0.221624 -0.389963
C35   C     C_R   0.321743 0.509443 0.289626 -0.288135
C36   C     C_R   0.163738 0.468856 0.264685 0.041739
C37   C     C_2   0.442936 0.717953 0.478715 -0.269976
C38   C     C_3   0.363228 0.766382 0.434043 -0.020773
C39   C     C_2   0.415539 0.854689 0.459157 -0.099940
C40   C     C_3   0.294795 0.799224 0.649868 -0.392027
C41   C     C_2   0.555424 0.883615 0.501697 -0.000313
C42   C     C_2   0.641889 0.827132 0.532736 -0.128869
C43   C     C_1   0.577844 0.750319 0.521358 0.063398
C44   C     C_R   0.803919 0.137829 0.531064 -0.101575
C45   C     C_3   0.087979 0.315775 0.724120 0.400054
C46   C     C_R   0.858888 0.219942 0.543829 0.028595
C47   C     C_R   0.618900 0.236949 0.474925 0.033704
C48   C     C_R   0.564009 0.154633 0.461078 -0.121421
C49   C     C_R   0.654335 0.104783 0.490440 0.005583
C50   C     C_2   0.623486 0.970116 0.518653 -0.078811
C51   C     C_2   0.593929 0.018117 0.473848 -0.080636
C52   C     C_3   0.951626 0.287956 0.366821 0.302679
C53   C     C_R   0.763386 0.269679 0.518295 -0.267871
C54   C     C_3   0.919633 0.197026 0.343240 -0.378410
C55   C     C_3   0.778379 0.671173 0.696875 0.322169
C56   C     C_3   0.126614 0.304825 0.800929 -0.313044
C57   C     C_3   0.885219 0.729385 0.758614 -0.366123
C58   C     C_2   0.601610 0.836886 0.245757 0.871488
C59   C     C_2   0.668234 0.233004 0.762862 0.810911
C60   C     C_3   0.563094 0.688704 0.909396 -0.202625
C61   C     C_3   0.724935 0.655359 0.895519 -0.398549
C62   C     C_2   0.000960 0.714338 0.159389 0.910196
C63   C     C_3   0.588741 0.265125 0.704358 0.361396
C64   C     C_3   0.480357 0.195410 0.651972 -0.314989
C65   C     C_R   0.993245 0.464719 0.046414 0.041080
H1    H     H_    0.722719 0.740238 0.373974 0.068119
H2    H     H_    0.858567 0.637997 0.659009 0.019381
H3    H     H_    0.695702 0.627289 0.719458 0.007033
H4    H     H_    0.705165 0.868369 0.355685 0.018960
H5    H     H_    0.967156 0.773574 0.736166 0.133337
H6    H     H_    0.961551 0.696802 0.787574 0.070255
H7    H     H_    0.806467 0.762611 0.797655 0.118413
H8    H     H_    0.528566 0.727923 0.321377 -0.099911
H9    H     H_    0.341746 0.351132 0.324907 0.014053
H10   H     H_    0.557900 0.389149 0.320228 0.059984
H11   H     H_    0.343623 0.258469 0.204142 0.131842
H12   H     H_    0.407722 0.814754 0.687056 0.132610
H13   H     H_    0.414882 0.360343 0.198409 0.051150
H14   H     H_    0.561385 0.292400 0.200194 0.120899
H15   H     H_    0.842955 0.830581 0.288711 0.122717
H16   H     H_    0.254317 0.710428 0.178782 0.041603
H17   H     H_    0.175047 0.367574 0.715682 0.094023
H18   H     H_    0.960442 0.329364 0.720829 -0.072790
H19   H     H_    0.149324 0.364282 0.840328 0.059483
H20   H     H_    0.022027 0.267173 0.819258 0.138304
H21   H     H_    0.238165 0.275476 0.802119 0.171698
H22   H     H_    0.688141 0.290232 0.672569 -0.118211
H23   H     H_    0.319209 0.822829 0.600363 0.074023
H24   H     H_    0.550799 0.145617 0.631916 0.078689
H25   H     H_    0.437955 0.216398 0.603936 0.149238
H26   H     H_    0.047980 0.640398 0.263962 0.100379
H27   H     H_    0.371584 0.172361 0.680087 0.142222
H28   H     H_    0.652490 0.357436 0.097651 0.064807
H29   H     H_    0.546395 0.365036 0.976884 0.095748
H30   H     H_    0.829524 0.485646 0.655303 0.071543
H31   H     H_    0.586817 0.406823 0.863010 0.134020
H32   H     H_    0.875434 0.386205 0.191456 0.093115
H33   H     H_    0.308113 0.618424 0.808040 0.103117
H34   H     H_    0.194671 0.828324 0.677829 0.121477
H35   H     H_    0.613130 0.669643 0.041831 0.120587
H36   H     H_    0.586145 0.616437 0.146385 0.141293
H37   H     H_    0.254182 0.686741 0.293210 -0.080628
H38   H     H_    0.365660 0.511871 0.345058 0.068008
H39   H     H_    0.519179 0.993988 0.423214 0.112987
H40   H     H_    0.756169 0.849973 0.565874 0.088442
H41   H     H_    0.881233 0.099995 0.549900 0.084513
H42   H     H_    0.700633 0.994050 0.568690 0.091517
H43   H     H_    0.344086 0.893432 0.437968 0.086145
H44   H     H_    0.452408 0.129454 0.426893 0.083006
H45   H     H_    0.837773 0.310177 0.386234 0.004182
H46   H     H_    0.404500 0.653622 0.465031 0.078818
H47   H     H_    0.807729 0.333175 0.527480 0.066747
H48   H     H_    0.188285 0.800618 0.227647 0.109454
H49   H     H_    0.349115 0.680463 0.605792 0.025667
H50   H     H_    0.141046 0.694642 0.586319 0.082500
H51   H     H_    0.428734 0.899629 0.220227 0.310431
H52   H     H_    0.690391 0.229547 0.869548 0.306772
H53   H     H_    0.758109 0.623059 0.937231 0.134476
H54   H     H_    0.714866 0.613576 0.841080 0.120622
H55   H     H_    0.827299 0.705125 0.897849 0.128183
H56   H     H_    0.048539 0.305696 0.411978 0.077912
H57   H     H_    0.512806 0.699130 0.857853 0.101488
H58   H     H_    0.590355 0.749101 0.946845 0.129931
H59   H     H_    0.844584 0.627698 0.090724 0.294942
H60   H     H_    0.813729 0.177399 0.302104 0.135062
H61   H     H_    0.891691 0.170723 0.390954 0.065112
H62   H     H_    0.030512 0.174591 0.318900 0.131689
O1    O     O_2   0.871520 0.445720 0.321500 -0.467034
O2    O     O_2   0.192091 0.221607 0.534984 -0.492126
O3    O     O_3   0.106220 0.246100 0.671575 -0.582148
O4    O     O_3   0.121030 0.451930 0.411150 -0.492724
O5    O     O_3   0.581210 0.598010 0.542960 -0.479976
O6    O     O_2   0.335820 0.303580 0.452320 -0.461131
O7    O     O_3   0.504653 0.272293 0.332844 -0.637303
O8    O     O_2   0.427194 0.467484 0.756173 -0.501230
O9    O     O_3   0.487108 0.321029 0.736705 -0.610089
O10   O     O_3   0.662190 0.593100 0.375060 -0.487328
O11   O     O_2   0.762369 0.532236 0.244880 -0.469687
O12   O     O_3   0.681626 0.715214 0.664055 -0.634631
O13   O     O_3   0.000959 0.318221 0.306403 -0.640060
O14   O     O_3   0.717938 0.680790 0.265419 -0.579460
O15   O     O_2   0.853880 0.696450 0.547730 -0.479382
O16   O     O_3   0.085100 0.636210 0.413950 -0.480557
O17   O     O_2   0.036411 0.783752 0.477591 -0.488720
O18   O     O_2   0.606995 0.800674 0.181813 -0.570738
O19   O     O_R   0.493280 0.892769 0.264645 -0.780403
O20   O     O_2   0.768151 0.186986 0.745970 -0.635714
O21   O     O_R   0.624882 0.253539 0.835513 -0.760603
O22   O     O_2   0.935239 0.767733 0.143713 -0.576553
O23   O     O_3   0.066122 0.752363 0.334163 -0.597234
O24   O     O_R   0.939472 0.634246 0.128084 -0.763425
O25   O     O_2   0.318180 0.554310 0.678550 -0.450873
O26   O     O_3   0.068680 0.548140 0.588860 -0.497637
O27   O     O_3   0.527520 0.406960 0.624950 -0.458023
O28   O     O_3   0.196260 0.681796 0.690885 -0.643599
O29   O     O_3   0.608500 0.402060 0.457050 -0.482503
O30   O     O_3   0.104610 0.363860 0.586060 -0.497980
P1    P     P_3+3 0.038810 0.422920 0.331160 0.972999
P2    P     P_3+3 0.678260 0.686080 0.568600 0.983005
P3    P     P_3+3 0.136314 0.737419 0.418219 0.961078
P4    P     P_3+3 0.150900 0.577150 0.668860 0.964804
P5    P     P_3+3 0.065841 0.262036 0.584126 0.961214
P6    P     P_3+3 0.640741 0.586772 0.281280 0.964519
P7    P     P_3+3 0.517518 0.301378 0.428605 0.952299
P8    P     P_3+3 0.553161 0.415557 0.719343 0.949252

loop_
_geom_bond_atom_site_label_1
_geom_bond_atom_site_label_2
_ccdc_geom_bond_type
C46   C53   A    
C21   H32   S    
C52   H56   S    
O12   P2    S    
Ba2   O26   S    
O15   P2    D    
C28   O28   S    
Ba1   O26   S    
C18   C65   A    
Ba1   O16   S    
C56   H20   S    
C60   H57   S    
C5    C6    A    
C28   H49   S    
C42   C43   D    
C35   H38   S    
C5    H29   S    
O17   P3    D    
C24   C25   A    
C35   C36   A    
C23   H10   S    
C45   H18   S    
O1    P1    D    
Ba1   O29   S    
C33   C35   A    
C22   C24   A    
C41   C50   S    
C55   C57   S    
C19   C31   A    
O16   P3    S    
C13   C14   A    
C20   C36   A    
O10   P6    S    
Ba1   Ba2   S    
C54   H60   S    
C8    H31   S    
C23   O7    S    
C43   P2    S    
O14   P6    S    
C7    C11   A    
C15   P4    S    
C3    H28   S    
C27   C60   S    
C9    C13   A    
C51   H39   S    
C14   C15   A    
C37   H46   S    
C44   H41   S    
C58   O18   D    
C4    H37   S    
C55   H3    S    
C59   O21   S    
O28   P4    S    
C54   H62   S    
Ba1   O10   S    
C57   H5    S    
C64   H27   S    
C4    O23   S    
C1    C58   S    
H52   O21   S    
Ba1   P2    S    
C40   H12   S    
Ba2   O25   S    
C19   C20   A    
C39   C41   D    
C13   P8    S    
Ba1   O4    S    
C56   H19   S    
C61   H54   S    
C48   C49   A    
C44   C46   A    
O3    P5    S    
C4    C16   S    
C52   C54   S    
Ba2   O4    S    
C62   O22   D    
C29   H35   S    
O25   P4    D    
C26   C30   A    
Ba1   O1    S    
C34   H13   S    
C37   C38   S    
C3    C5    A    
C2    C21   A    
C6    C7    A    
C64   H25   S    
C18   C26   A    
O27   P8    S    
O26   P4    S    
C47   C53   A    
C44   C49   A    
C49   C51   S    
O9    P8    S    
C40   H23   S    
C30   C32   A    
Ba2   P4    S    
C1    H4    S    
C41   C42   S    
C7    C65   A    
C38   P3    S    
C60   C61   S    
C60   H58   S    
C29   C30   A    
O30   P5    S    
C34   H14   S    
Ba2   O29   S    
C4    H26   S    
C1    H15   S    
C16   H16   S    
C52   H45   S    
Ba2   O5    S    
C45   H17   S    
C10   C11   A    
C57   H7    S    
C1    C12   S    
C63   O9    S    
C38   C39   S    
C52   O13   S    
C63   C64   S    
C39   H43   S    
C53   H47   S    
Ba2   O30   S    
C15   C17   A    
Ba1   O5    S    
C40   H34   S    
O8    P8    D    
C61   H55   S    
C50   C51   D    
O29   P7    S    
C42   H40   S    
O11   P6    D    
C57   H6    S    
C12   O14   S    
Ba2   O27   S    
C22   H33   S    
Ba1   P1    S    
C28   C40   S    
Ba2   O6    S    
O13   P1    S    
C2    C3    A    
C56   H21   S    
C16   H48   S    
C2    C65   A    
C9    C10   A    
C64   H24   S    
C46   P5    S    
C28   H50   S    
C50   H42   S    
C63   H22   S    
C32   H36   S    
O5    P2    S    
C55   O12   S    
C45   O3    S    
O4    P1    S    
C12   H8    S    
C23   H9    S    
H51   O19   S    
C17   C22   A    
C36   P1    S    
C47   P7    S    
C27   C29   A    
Ba1   O15   S    
C34   H11   S    
C45   C56   S    
C61   H53   S    
C16   C62   S    
O7    P7    S    
O2    P5    D    
C62   O24   S    
C10   C17   A    
C48   H44   S    
C31   C33   A    
O6    P7    D    
C31   C32   A    
C54   H61   S    
C12   H1    S    
C14   H30   S    
C8    C9    A    
C23   C34   S    
H59   O24   S    
C59   C63   S    
C18   C19   A    
C24   C27   A    
C6    C8    A    
C47   C48   A    
C25   C26   A    
C33   P6    S    
C20   C21   A    
C11   C25   A    
C58   O19   S    
C55   H2    S    
C59   O20   D    
O23   P3    S    
C37   C43   D    
