data_mof_unit_25120.cif
_audit_creation_date              2012-12-10T18:06:49-0500
_audit_creation_method            fapswitch 2.2
_symmetry_space_group_name_H-M    P1
_symmetry_Int_Tables_number       1
_space_group_crystal_system       triclinic
_cell_length_a                    12.593254
_cell_length_b                    13.22333
_cell_length_c                    15.420309
_cell_angle_alpha                 83.300648
_cell_angle_beta                  98.73733
_cell_angle_gamma                 96.574582
_cell_volume                      2508.45410823

loop_
_atom_site_label
_atom_site_type_symbol
_atom_type_description
_atom_site_fract_x
_atom_site_fract_y
_atom_site_fract_z
_atom_type_partial_charge
Br1   Br    Br    0.912607 0.524973 0.909260 -0.567326
Br2   Br    Br    0.476475 0.897596 0.701495 -0.564810
C1    C     C_R   0.442864 0.308636 0.508040 0.868078
C2    C     C_R   0.688647 0.551993 0.927418 0.099614
C3    C     C_R   0.577598 0.556750 0.894188 0.064101
C4    C     C_R   0.436318 0.515699 0.335743 0.854413
C5    C     C_R   0.760127 0.527972 0.872093 0.269442
C6    C     C_R   0.720132 0.505058 0.786310 -0.217703
C7    C     C_R   0.539669 0.527984 0.810145 -0.238192
C8    C     C_R   0.673546 0.946251 0.398966 -0.194163
C9    C     C_R   0.588029 0.800039 0.479194 -0.061274
C10   C     C_R   0.351908 0.162984 0.590305 -0.243450
C11   C     C_R   0.362115 0.066121 0.633871 -0.150766
C12   C     C_R   0.459958 0.577994 0.095813 0.090745
C13   C     C_R   0.432812 0.003703 0.610245 0.244349
C14   C     C_R   0.481405 0.032365 0.531657 0.014006
C15   C     C_R   0.470542 0.131373 0.487778 0.065139
C16   C     C_R   0.556384 0.691227 0.490031 0.872404
C17   C     C_R   0.542474 0.968412 0.495751 0.097026
C18   C     C_R   0.607225 0.008580 0.429490 0.176725
C19   C     C_R   0.595972 0.106560 0.388221 -0.240125
C20   C     C_R   0.521869 0.163751 0.412382 -0.180124
C21   C     C_R   0.528928 0.863255 0.514677 -0.196475
C22   C     C_R   0.665497 0.841731 0.425384 -0.191465
C23   C     C_R   0.352415 0.596166 0.060385 0.160861
C24   C     C_R   0.413673 0.198821 0.522906 -0.114753
C25   C     C_R   0.138029 0.639438 0.623776 -0.278261
C26   C     C_R   0.757814 0.380998 0.395536 0.026415
C27   C     C_R   0.853318 0.355459 0.373532 -0.243851
C28   C     C_R   0.565603 0.490378 0.663871 0.896291
C29   C     C_R   0.950965 0.400307 0.413494 -0.186069
C30   C     C_R   0.952909 0.471370 0.475843 0.017600
C31   C     C_R   0.853317 0.494380 0.496059 0.231826
C32   C     C_R   0.048981 0.520426 0.518599 -0.011888
C33   C     C_R   0.043751 0.590579 0.580865 0.184308
C34   C     C_R   0.539242 0.581314 0.039357 0.071646
C35   C     C_R   0.944576 0.611485 0.599459 -0.257562
C36   C     C_R   0.850656 0.564239 0.557191 -0.215287
C37   C     C_R   0.150939 0.503003 0.502088 -0.049945
C38   C     C_R   0.236411 0.618620 0.604420 0.013791
C39   C     C_R   0.404115 0.540983 0.241236 -0.058694
C40   C     C_R   0.609555 0.504094 0.755582 -0.111834
C41   C     C_R   0.273464 0.591598 0.116249 -0.175970
C42   C     C_R   0.299309 0.564427 0.206497 -0.190512
C43   C     C_R   0.483094 0.548244 0.185869 -0.258755
C44   C     C_R   0.505199 0.582438 0.947954 0.091263
C45   C     C_R   0.399327 0.606981 0.913700 -0.197429
C46   C     C_R   0.324722 0.615698 0.969517 -0.208976
C47   C     C_R   0.650657 0.580982 0.071084 -0.240055
C48   C     C_R   0.724384 0.569130 0.015340 -0.172821
H1    H     H_    0.243731 0.632708 0.941298 0.173750
H2    H     H_    0.454228 0.521010 0.786883 0.167245
H3    H     H_    0.939466 0.664874 0.646628 0.174732
H4    H     H_    0.135568 0.692896 0.671475 0.160881
H5    H     H_    0.163654 0.451629 0.456281 0.126099
H6    H     H_    0.681372 0.347144 0.364497 0.130818
H7    H     H_    0.851715 0.301332 0.325702 0.151994
H8    H     H_    0.777027 0.584101 0.573612 0.216313
H9    H     H_    0.775604 0.488546 0.743793 0.191761
H10   H     H_    0.808583 0.568900 0.043036 0.193044
H11   H     H_    0.191436 0.606948 0.089903 0.161739
H12   H     H_    0.712027 0.792959 0.397411 0.163827
H13   H     H_    0.237365 0.560811 0.248703 0.161665
H14   H     H_    0.372959 0.621416 0.843779 0.159941
H15   H     H_    0.683175 0.592071 0.138611 0.150600
H16   H     H_    0.022788 0.377835 0.394152 0.138855
H17   H     H_    0.561976 0.526326 0.213515 0.161656
H18   H     H_    0.638972 0.136309 0.333400 0.140668
H19   H     H_    0.725913 0.976990 0.350551 0.142605
H20   H     H_    0.463571 0.828993 0.549335 0.193582
H21   H     H_    0.306508 0.213997 0.616895 0.179010
H22   H     H_    0.323315 0.043915 0.692195 0.181558
H23   H     H_    0.507134 0.235214 0.372775 0.148241
H24   H     H_    0.310785 0.655227 0.636768 0.153600
N1    N     N_R   0.239390 0.551900 0.544730 -0.106743
N2    N     N_R   0.759950 0.448600 0.455730 -0.129946
O1    O     O_R   0.374950 0.371210 0.521360 -0.615248
O2    O     O_R   0.542050 0.338030 0.492790 -0.603621
O3    O     O_R   0.368720 0.526070 0.390200 -0.615237
O4    O     O_R   0.535820 0.492890 0.361630 -0.630533
O5    O     O_R   0.457950 0.661970 0.507210 -0.612477
O6    O     O_R   0.625050 0.628790 0.478640 -0.640007
O7    O     O_R   0.464180 0.507110 0.638370 -0.614685
O8    O     O_R   0.631280 0.473930 0.609800 -0.629478
Zn1   Zn    Zn3+2 0.388420 0.522150 0.519080 0.947560
Zn2   Zn    Zn3+2 0.611580 0.477850 0.480920 0.934724

loop_
_geom_bond_atom_site_label_1
_geom_bond_atom_site_label_2
_ccdc_geom_bond_type
C29   H16   S    
C9    C16   S    
C17   C18   A    
C23   C41   A    
C26   H6    S    
C25   H4    S    
C5    C6    A    
C7    C40   A    
C47   H15   S    
C15   C24   A    
C26   C27   A    
C33   C35   A    
C6    C40   A    
C6    H9    S    
C12   C34   A    
C13   C14   A    
C9    C22   A    
C16   O5    A    
C32   C33   A    
C28   O7    A    
O4    Zn2   S    
C36   H8    S    
N1    Zn1   S    
C46   H1    S    
C37   H5    S    
C45   C46   A    
C8    C18   A    
C14   C15   A    
C4    C39   S    
C43   H17   S    
C34   C44   A    
C37   N1    A    
C35   H3    S    
O2    Zn2   S    
O1    Zn1   S    
C19   C20   A    
C21   H20   S    
C7    H2    S    
C2    C5    A    
C12   C43   A    
C42   H13   S    
C32   C37   A    
C45   H14   S    
C25   C33   A    
O6    Zn2   S    
C10   C24   A    
C30   C32   A    
C17   C21   A    
C41   C42   A    
C3    C7    A    
C35   C36   A    
C31   N2    A    
C4    O4    A    
C29   C30   A    
C25   C38   A    
C18   C19   A    
Br2   C13   S    
C23   C46   A    
O7    Zn1   S    
C10   H21   S    
C27   H7    S    
C11   C13   A    
C19   H18   S    
C39   C42   A    
C26   N2    A    
N2    Zn2   S    
O3    Zn1   S    
C41   H11   S    
C44   C45   A    
C22   H12   S    
Br1   C5    S    
C1    C24   S    
C31   C36   A    
O8    Zn2   S    
C2    C3    A    
C11   H22   S    
C3    C44   A    
C15   C20   A    
C38   N1    A    
C48   H10   S    
C30   C31   A    
C27   C29   A    
C4    O3    A    
C14   C17   A    
C9    C21   A    
C16   O6    A    
C38   H24   S    
C12   C23   A    
C28   O8    A    
C8    H19   S    
C10   C11   A    
C8    C22   A    
C47   C48   A    
C2    C48   A    
C39   C43   A    
C28   C40   S    
C20   H23   S    
C1    O2    A    
O5    Zn1   S    
C34   C47   A    
C1    O1    A    
