data_mof_unit_44879.cif
_audit_creation_date              2012-12-10T17:25:34-0500
_audit_creation_method            fapswitch 2.2
_symmetry_space_group_name_H-M    P1
_symmetry_Int_Tables_number       1
_space_group_crystal_system       triclinic
_cell_length_a                    10.128584
_cell_length_b                    10.436893
_cell_length_c                    23.38199
_cell_angle_alpha                 90.64945
_cell_angle_beta                  81.473688
_cell_angle_gamma                 94.007305
_cell_volume                      2438.43701714

loop_
_atom_site_label
_atom_site_type_symbol
_atom_type_description
_atom_site_fract_x
_atom_site_fract_y
_atom_site_fract_z
_atom_type_partial_charge
C1    C     C_R   0.553971 0.735165 0.499410 0.901752
C2    C     C_R   0.592287 0.426290 0.291274 -0.312262
C3    C     C_R   0.397634 0.586761 0.766509 0.005643
C4    C     C_R   0.587805 0.416374 0.231940 0.045541
C5    C     C_R   0.494968 0.527470 0.792112 0.211585
C6    C     C_R   0.486683 0.477158 0.209061 0.312268
C7    C     C_2   0.578293 0.871892 0.509972 -0.433021
C8    C     C_2   0.422604 0.129057 0.520795 -0.423541
C9    C     C_2   0.499387 0.931663 0.552363 0.020621
C10   C     C_2   0.503788 0.071386 0.552086 0.026373
C11   C     C_2   0.926735 0.510738 0.505138 -0.110112
C12   C     C_R   0.446212 0.265025 0.506814 0.899302
C13   C     C_2   0.073192 0.489060 0.494966 -0.113797
C14   C     C_R   0.500646 0.501930 0.610723 0.838013
C15   C     C_R   0.499201 0.498594 0.389319 0.886648
C16   C     C_R   0.389370 0.407783 0.125327 0.543295
C17   C     C_R   0.566418 0.606349 0.880066 0.494359
C18   C     C_R   0.568713 0.570033 0.116578 0.601514
C19   C     C_R   0.393656 0.438465 0.883537 0.508510
C20   C     C_R   0.552062 0.595689 0.059360 -0.081694
C21   C     C_R   0.386159 0.427428 0.944137 -0.081147
C22   C     C_R   0.466336 0.508322 0.032429 -0.059683
C23   C     C_R   0.596608 0.464665 0.758157 -0.039351
C24   C     C_R   0.465529 0.517645 0.972498 -0.047977
C25   C     C_R   0.386110 0.409295 0.065083 -0.030150
C26   C     C_R   0.545802 0.617032 0.940539 -0.036025
C27   C     C_R   0.616380 0.705494 0.028726 -0.043254
C28   C     C_R   0.304001 0.329736 0.976646 -0.069252
C29   C     C_R   0.603527 0.721341 0.969965 0.048526
C30   C     C_R   0.306466 0.317447 0.036725 0.024366
C31   C     C_2   0.691731 0.808768 0.057473 0.497389
C32   C     C_2   0.216915 0.236254 0.948425 0.517981
C33   C     C_3   0.635242 0.854768 0.942190 -0.389651
C34   C     C_R   0.390842 0.542063 0.245338 -0.134454
C35   C     C_3   0.536643 0.952172 0.969332 -0.400213
C36   C     C_3   0.578784 0.087284 0.946060 -0.737733
C37   C     C_3   0.233430 0.198440 0.067729 -0.365659
C38   C     C_3   0.087944 0.222818 0.092282 -0.310553
C39   C     C_3   0.018336 0.107364 0.126577 -0.784005
C40   C     C_2   0.292975 0.658479 0.801930 0.485340
C41   C     C_2   0.689343 0.342050 0.196004 0.432945
C42   C     C_2   0.594159 0.142315 0.588090 0.498109
C43   C     C_2   0.411323 0.862960 0.600593 0.500943
C44   C     C_R   0.600783 0.457962 0.698555 -0.199886
C45   C     C_R   0.394598 0.548577 0.304205 -0.211599
C46   C     C_R   0.501295 0.511710 0.672861 -0.090354
C47   C     C_R   0.496104 0.492066 0.327333 -0.033413
C48   C     C_R   0.400669 0.576346 0.706842 -0.157599
H1    H     H_    0.118745 0.616525 0.553758 0.181483
H2    H     H_    0.652317 0.926714 0.479734 0.170109
H3    H     H_    0.110169 0.419391 0.462769 0.164894
H4    H     H_    0.889711 0.580282 0.537387 0.174829
H5    H     H_    0.791215 0.843742 0.037687 0.046254
H6    H     H_    0.109936 0.246022 0.953469 0.051749
H7    H     H_    0.681283 0.117361 0.954796 0.251832
H8    H     H_    0.576318 0.090662 0.898768 0.280919
H9    H     H_    0.509165 0.156008 0.967913 0.264243
H10   H     H_    0.434945 0.923359 0.959106 0.249791
H11   H     H_    0.529887 0.955507 0.017015 0.253276
H12   H     H_    0.881327 0.383597 0.446201 0.166834
H13   H     H_    0.739990 0.889003 0.945817 0.201798
H14   H     H_    0.626985 0.855960 0.895757 0.270000
H15   H     H_    0.017419 0.020874 0.098461 0.254742
H16   H     H_    0.070549 0.088190 0.163832 0.270674
H17   H     H_    0.913339 0.127393 0.143272 0.269154
H18   H     H_    0.084127 0.308657 0.120794 0.266161
H19   H     H_    0.031508 0.241772 0.056370 0.203901
H20   H     H_    0.233163 0.114789 0.037981 0.187465
H21   H     H_    0.288919 0.162773 0.101037 0.255727
H22   H     H_    0.293056 0.670799 0.848053 0.048497
H23   H     H_    0.670897 0.419171 0.778273 0.160135
H24   H     H_    0.771276 0.306989 0.215132 0.051750
H25   H     H_    0.584838 0.243084 0.597648 0.064271
H26   H     H_    0.419894 0.762217 0.608115 0.049145
H27   H     H_    0.314139 0.589075 0.227455 0.147975
H28   H     H_    0.679253 0.408071 0.672845 0.173215
H29   H     H_    0.319580 0.599692 0.331472 0.164306
H30   H     H_    0.324691 0.619286 0.686777 0.199619
H31   H     H_    0.669310 0.380562 0.309594 0.153444
H32   H     H_    0.347164 0.072793 0.500905 0.169726
N1    N     N_R   0.484055 0.482140 0.148329 -0.334047
N2    N     N_R   0.485762 0.523418 0.853498 -0.365265
N3    N     N_2   0.842710 0.448880 0.476480 -0.191711
N4    N     N_2   0.157290 0.551120 0.523520 -0.186924
O1    O     O_R   0.431060 0.692470 0.504730 -0.613161
O2    O     O_2   0.669919 0.672434 0.847839 -0.545484
O3    O     O_2   0.668724 0.630691 0.140800 -0.525200
O4    O     O_2   0.311972 0.364835 0.854035 -0.514781
O5    O     O_2   0.640241 0.859999 0.101666 -0.533735
O6    O     O_2   0.264587 0.146394 0.920645 -0.533888
O7    O     O_2   0.205429 0.705494 0.779991 -0.518244
O8    O     O_2   0.682345 0.316898 0.145386 -0.569550
O9    O     O_2   0.678527 0.087048 0.608660 -0.554666
O10   O     O_2   0.329858 0.919939 0.633329 -0.530411
O11   O     O_R   0.568940 0.307530 0.495270 -0.615442
O12   O     O_R   0.651120 0.659650 0.489640 -0.583866
O13   O     O_R   0.348880 0.340350 0.510360 -0.579064
O14   O     O_R   0.389950 0.516450 0.591390 -0.613651
O15   O     O_R   0.610050 0.483550 0.408610 -0.605288
O16   O     O_R   0.610020 0.483630 0.576300 -0.621507
O17   O     O_R   0.389980 0.516370 0.423700 -0.616206
O18   O     O_2   0.298728 0.335493 0.161468 -0.586394
Zn1   Zn    Zn3+2 0.353060 0.521920 0.510080 0.962426
Zn2   Zn    Zn3+2 0.646940 0.478080 0.489920 0.953503

loop_
_geom_bond_atom_site_label_1
_geom_bond_atom_site_label_2
_ccdc_geom_bond_type
C37   H21   S    
C27   C29   A    
C42   O9    D    
C35   C36   S    
C15   C47   S    
C33   H13   S    
C43   O10   D    
C14   C46   S    
C39   H16   S    
C13   N4    D    
C40   H22   S    
C35   H10   S    
C17   C26   A    
H1    N4    S    
C19   C21   A    
C24   C26   A    
C38   C39   S    
H12   N3    S    
C10   C42   S    
C4    C41   S    
O14   Zn1   S    
C37   H20   S    
C29   C33   S    
C3    C48   A    
O16   Zn2   S    
C18   N1    A    
C35   H11   S    
C17   N2    A    
C48   H30   S    
C44   H28   S    
C2    H31   S    
C13   H3    S    
C32   O6    D    
C38   H18   S    
C33   H14   S    
C31   O5    D    
C22   C25   A    
C12   O11   A    
C11   H4    S    
C19   N2    A    
C9    C10   S    
O1    Zn1   S    
C34   H27   S    
C43   H26   S    
O15   Zn2   S    
O17   Zn1   S    
C6    N1    S    
C39   H17   S    
C32   H6    S    
C44   C46   A    
C14   O14   A    
C45   C47   A    
C1    O1    A    
C46   C48   A    
C9    C43   S    
N3    Zn2   S    
C27   C31   S    
C17   O2    S    
C23   H23   S    
C28   C32   S    
C4    C6    A    
C19   O4    S    
C25   C30   A    
C11   N3    D    
C15   O17   A    
C23   C44   A    
C6    C34   A    
C30   C37   S    
C2    C4    A    
C37   C38   S    
C36   H8    S    
C5    C23   A    
C8    C12   S    
C34   C45   A    
C31   H5    S    
C12   O13   A    
O13   Zn1   S    
C41   H24   S    
C16   O18   S    
C21   C28   A    
C20   C22   A    
C3    C40   S    
C36   H9    S    
O12   Zn2   S    
C22   C24   A    
O11   Zn2   S    
C16   C25   A    
C7    C9    D    
C42   H25   S    
C1    C7    S    
C7    H2    S    
C15   O15   A    
C3    C5    A    
C14   O16   A    
C20   C27   A    
C2    C47   A    
C39   H15   S    
C18   O3    S    
C28   C30   A    
C36   H7    S    
C5    N2    S    
C11   C13   S    
C1    O12   A    
C16   N1    A    
C33   C35   S    
C18   C20   A    
C40   O7    D    
C41   O8    D    
C38   H19   S    
C26   C29   A    
C8    C10   D    
C21   C24   A    
C8    H32   S    
N4    Zn1   S    
C45   H29   S    
