data_mof_unit_45632.cif
_audit_creation_date              2012-12-11T16:36:07-0500
_audit_creation_method            fapswitch 2.2
_symmetry_space_group_name_H-M    P1
_symmetry_Int_Tables_number       1
_space_group_crystal_system       triclinic
_cell_length_a                    21.888018
_cell_length_b                    21.305591
_cell_length_c                    22.400547
_cell_angle_alpha                 90.958538
_cell_angle_beta                  91.223953
_cell_angle_gamma                 88.784133
_cell_volume                      10440.0882884

loop_
_atom_site_label
_atom_site_type_symbol
_atom_type_description
_atom_site_fract_x
_atom_site_fract_y
_atom_site_fract_z
_atom_type_partial_charge
C1    C     C_R   0.416171 0.657869 0.581569 -0.154253
C2    C     C_R   0.562358 0.635328 0.612263 -0.153945
C3    C     C_R   0.832546 0.221050 0.736471 0.330771
C4    C     C_R   0.724080 0.758962 0.127722 0.361937
C5    C     C_R   0.206857 0.142346 0.731596 0.326744
C6    C     C_R   0.792060 0.288985 0.176644 0.319606
C7    C     C_R   0.156915 0.772793 0.735813 0.352918
C8    C     C_R   0.172331 0.879240 0.700783 0.289589
C9    C     C_R   0.711453 0.246007 0.111300 0.454321
C10   C     C_R   0.170691 0.247369 0.758479 0.308318
C11   C     C_R   0.803988 0.742156 0.204704 0.329765
C12   C     C_R   0.816012 0.113149 0.701452 0.306810
C13   C     C_R   0.633675 0.434635 0.388325 -0.135121
C14   C     C_R   0.284463 0.747246 0.108453 0.398418
C15   C     C_R   0.747326 0.716797 0.901730 0.370168
C16   C     C_R   0.120499 0.197484 0.298885 0.330003
C17   C     C_R   0.681710 0.597408 0.738558 0.322595
C18   C     C_R   0.272244 0.323361 0.334313 0.321157
C19   C     C_R   0.664093 0.259292 0.658819 0.433181
C20   C     C_R   0.361463 0.699695 0.288758 0.318773
C21   C     C_R   0.257894 0.302893 0.597051 0.352982
C22   C     C_R   0.694455 0.623931 0.290037 0.301808
C23   C     C_R   0.331915 0.741798 0.657454 0.449902
C24   C     C_R   0.344754 0.584903 0.583024 -0.124441
C25   C     C_R   0.627593 0.297146 0.286507 0.328659
C26   C     C_R   0.642367 0.404077 0.251475 0.322485
C27   C     C_R   0.253047 0.699675 0.589877 0.314616
C28   C     C_R   0.641571 0.724704 0.310299 0.353982
C29   C     C_R   0.343459 0.262908 0.659024 0.313242
C30   C     C_R   0.343097 0.591406 0.254745 0.301023
C31   C     C_R   0.741693 0.292971 0.589808 0.334713
C32   C     C_R   0.294733 0.256255 0.419792 0.368940
C33   C     C_R   0.600265 0.677569 0.742112 0.332532
C34   C     C_R   0.179735 0.097818 0.239584 0.322975
C35   C     C_R   0.577349 0.652396 0.408169 -0.176899
C36   C     C_R   0.772691 0.822794 0.834241 0.314483
C37   C     C_R   0.165154 0.755181 0.153492 0.315115
C38   C     C_R   0.860725 0.198848 0.788849 0.314722
C39   C     C_R   0.762200 0.800901 0.099139 0.361681
C40   C     C_R   0.194643 0.122598 0.789462 0.331664
C41   C     C_R   0.832067 0.241599 0.157722 0.449525
C42   C     C_R   0.127824 0.796977 0.786647 0.329310
C43   C     C_R   0.141954 0.903862 0.751244 0.322893
C44   C     C_R   0.753131 0.199756 0.090084 0.315575
C45   C     C_R   0.142397 0.223735 0.808714 0.352021
C46   C     C_R   0.419722 0.342371 0.580155 -0.058579
C47   C     C_R   0.845107 0.771526 0.169544 0.441244
C48   C     C_R   0.844434 0.090344 0.754125 0.319599
C49   C     C_R   0.243701 0.794917 0.088432 0.328802
C50   C     C_R   0.794840 0.757090 0.920776 0.362648
C51   C     C_R   0.098763 0.178560 0.241698 0.329986
C52   C     C_3   0.689198 0.489897 0.742712 0.183210
C53   C     C_3   0.738301 0.466037 0.787169 -0.250547
C54   C     C_3   0.726670 0.399283 0.806731 -1.054133
C55   C     C_3   0.229455 0.420392 0.312785 0.242457
C56   C     C_3   0.201984 0.440015 0.252276 -0.288637
C57   C     C_R   0.361518 0.564680 0.390313 -0.136296
C58   C     C_3   0.161344 0.498806 0.258138 -0.929077
C59   C     C_3   0.611422 0.308376 0.733618 0.221342
C60   C     C_3   0.547715 0.319376 0.758912 -0.263925
C61   C     C_3   0.548076 0.368849 0.808920 -1.007599
C62   C     C_3   0.339684 0.758224 0.372424 0.160021
C63   C     C_3   0.362932 0.812038 0.412106 -0.291114
C64   C     C_3   0.320224 0.826251 0.463816 -0.987615
C65   C     C_3   0.192842 0.382400 0.564830 0.212210
C66   C     C_3   0.183945 0.429575 0.514456 -0.322374
C67   C     C_3   0.136479 0.480324 0.530154 -0.964734
C68   C     C_R   0.655629 0.413654 0.582857 -0.167285
C69   C     C_3   0.777653 0.565498 0.319712 0.169617
C70   C     C_3   0.801051 0.498667 0.331387 -0.271398
C71   C     C_3   0.870232 0.496511 0.341552 -0.979076
C72   C     C_3   0.395133 0.694193 0.727449 0.253800
C73   C     C_3   0.403293 0.726762 0.788356 -0.252354
C74   C     C_3   0.417655 0.679534 0.837389 -1.008732
C75   C     C_3   0.642328 0.237434 0.369970 0.161449
C76   C     C_3   0.610112 0.193599 0.411977 -0.251989
C77   C     C_3   0.649458 0.178400 0.467126 -1.027795
C78   C     C_3   0.577117 0.487288 0.233951 0.200021
C79   C     C_R   0.916140 0.157856 0.081565 -0.152586
C80   C     C_3   0.580221 0.555285 0.213684 -0.254043
C81   C     C_3   0.521785 0.578192 0.181979 -1.007394
C82   C     C_3   0.241328 0.671709 0.491635 0.154549
C83   C     C_3   0.204996 0.628270 0.449753 -0.266965
C84   C     C_3   0.206551 0.649185 0.384959 -1.012451
C85   C     C_3   0.544723 0.768365 0.315515 0.189489
C86   C     C_3   0.538512 0.825002 0.274174 -0.330222
C87   C     C_3   0.472046 0.838544 0.256426 -0.892026
C88   C     C_3   0.423636 0.194073 0.649859 0.100486
C89   C     C_3   0.491967 0.183930 0.661626 -0.213149
C90   C     C_R   0.059643 0.863996 0.888532 -0.139351
C91   C     C_3   0.512621 0.116370 0.648349 -0.969847
C92   C     C_3   0.397505 0.499275 0.245611 0.116088
C93   C     C_3   0.391796 0.428049 0.248105 -0.184868
C94   C     C_3   0.447571 0.392501 0.224288 -1.047340
C95   C     C_3   0.750445 0.317541 0.491591 0.134984
C96   C     C_3   0.792025 0.352743 0.450211 -0.229746
C97   C     C_3   0.782091 0.333139 0.384928 -1.060168
C98   C     C_3   0.376471 0.201562 0.460661 0.173670
C99   C     C_3   0.362455 0.135256 0.481067 -0.292723
C100  C     C_3   0.419069 0.092372 0.477923 -0.994923
C101  C     C_R   0.137226 0.063765 0.110506 -0.131437
C102  C     C_3   0.574025 0.768688 0.695500 0.162578
C103  C     C_3   0.521111 0.807659 0.668817 -0.255815
C104  C     C_3   0.543070 0.870101 0.645699 -1.006761
C105  C     C_3   0.186070 0.990216 0.244329 0.186611
C106  C     C_3   0.235275 0.965023 0.287994 -0.253873
C107  C     C_3   0.222934 0.898146 0.306804 -1.051563
C108  C     C_3   0.724900 0.917003 0.811377 0.241708
C109  C     C_3   0.703997 0.942212 0.750523 -0.279502
C110  C     C_3   0.653646 0.992371 0.756761 -0.973203
C111  C     C_3   0.111950 0.799027 0.230322 0.146666
C112  C     C_R   0.559560 0.364140 0.388461 -0.139865
C113  C     C_R   0.843552 0.916386 0.918920 -0.087778
C114  C     C_3   0.048880 0.805585 0.257773 -0.240448
C115  C     C_3   0.050051 0.847621 0.313547 -0.987015
C116  C     C_3   0.839998 0.257624 0.872653 0.156854
C117  C     C_3   0.864217 0.310817 0.912526 -0.288585
C118  C     C_3   0.821782 0.325595 0.964326 -0.987804
C119  C     C_3   0.695882 0.875588 0.059891 0.214096
C120  C     C_3   0.689558 0.921330 0.008097 -0.314487
C121  C     C_3   0.637410 0.968844 0.017612 -0.976509
C122  C     C_3   0.277849 0.064582 0.819561 0.194953
C123  C     C_3   0.300959 0.998324 0.834077 -0.301328
C124  C     C_R   0.082104 0.842605 0.082461 -0.109470
C125  C     C_3   0.370059 0.996413 0.844856 -0.972956
C126  C     C_3   0.894945 0.193885 0.227895 0.255139
C127  C     C_3   0.902062 0.226658 0.288824 -0.254771
C128  C     C_3   0.916872 0.179732 0.338011 -1.005778
C129  C     C_3   0.144106 0.737685 0.870073 0.161057
C130  C     C_3   0.113060 0.693245 0.912337 -0.253195
C131  C     C_3   0.153411 0.678249 0.966853 -1.022942
C132  C     C_3   0.076533 0.987009 0.733950 0.204823
C133  C     C_3   0.079498 0.054978 0.713560 -0.271097
C134  C     C_3   0.020788 0.078061 0.682497 -0.999051
C135  C     C_R   0.934985 0.136099 0.889602 -0.136011
C136  C     C_3   0.741580 0.171640 0.991888 0.152881
C137  C     C_3   0.705461 0.128081 0.949945 -0.270581
C138  C     C_3   0.707088 0.149080 0.885179 -0.999349
C139  C     C_3   0.045279 0.266633 0.813741 0.180611
C140  C     C_3   0.038558 0.321486 0.770340 -0.329953
C141  C     C_3   0.971882 0.334161 0.752713 -0.888717
C142  C     C_3   0.937994 0.719832 0.166555 0.157808
C143  C     C_3   0.939683 0.666253 0.211527 -0.220766
C144  C     C_3   0.988210 0.616566 0.195739 -1.031333
C145  C     C_3   0.898710 0.997821 0.746479 0.121780
C146  C     C_R   0.846323 0.916317 0.084133 -0.135734
C147  C     C_3   0.892364 0.926674 0.749359 -0.191757
C148  C     C_3   0.948322 0.890486 0.726804 -1.047267
C149  C     C_3   0.251762 0.819571 0.990338 0.137839
C150  C     C_3   0.293519 0.854370 0.948884 -0.232606
C151  C     C_3   0.283346 0.834493 0.883688 -1.057572
C152  C     C_3   0.872915 0.704210 0.970682 0.185132
C153  C     C_3   0.860723 0.646084 0.007577 -0.280886
C154  C     C_3   0.918502 0.605418 0.015640 -1.002347
C155  C     C_3   0.072629 0.269402 0.194456 0.161436
C156  C     C_3   0.019671 0.308242 0.167694 -0.253308
C157  C     C_R   0.150903 0.079420 0.908816 -0.073094
C158  C     C_3   0.041476 0.370760 0.144616 -1.007619
C159  C     C_R   0.915839 0.842360 0.918214 -0.179478
C160  C     C_R   0.062035 0.135407 0.112141 -0.154277
C161  C     C_R   0.133682 0.934571 0.888314 -0.136496
C162  C     C_R   0.844767 0.084868 0.083081 -0.124199
C163  C     C_R   0.077444 0.152242 0.907759 -0.177604
C164  C     C_R   0.637662 0.563830 0.610136 -0.132558
C165  C     C_R   0.920496 0.843098 0.082013 -0.072175
C166  C     C_R   0.861858 0.064285 0.890059 -0.140757
C167  C     C_R   0.155737 0.913262 0.082271 -0.176526
C168  C     C_R   0.681416 0.677122 0.816870 0.062937
C169  C     C_R   0.218394 0.226311 0.345133 0.007305
C170  C     C_R   0.760942 0.203254 0.653756 -0.072865
C171  C     C_R   0.310562 0.679340 0.193607 0.013520
C172  C     C_R   0.241031 0.231568 0.677207 0.048672
C173  C     C_R   0.699948 0.708252 0.221348 0.008725
C174  C     C_R   0.230031 0.788244 0.656272 -0.078855
C175  C     C_R   0.343501 0.416092 0.419255 -0.092419
C176  C     C_R   0.683632 0.314529 0.196415 -0.006386
C177  C     C_R   0.179275 0.178616 0.317000 0.062192
C178  C     C_R   0.720602 0.724771 0.844861 0.009120
C179  C     C_R   0.265201 0.705265 0.151447 0.021323
C180  C     C_R   0.807438 0.178044 0.695160 0.010164
C181  C     C_R   0.743502 0.735319 0.182931 -0.046238
C182  C     C_R   0.199436 0.205659 0.718894 0.037123
C183  C     C_R   0.730338 0.288377 0.156489 -0.078715
C184  C     C_R   0.183294 0.814304 0.696221 -0.005619
C185  C     C_R   0.630399 0.627859 0.709980 -0.242247
C186  C     C_R   0.581995 0.342962 0.583147 -0.112755
C187  C     C_R   0.307453 0.309820 0.385911 -0.283308
C188  C     C_R   0.684285 0.301942 0.616501 -0.334949
C189  C     C_R   0.363975 0.634436 0.299023 -0.281450
C190  C     C_R   0.319847 0.305078 0.616056 -0.225754
C191  C     C_R   0.658184 0.662797 0.328501 -0.292906
C192  C     C_R   0.312763 0.696507 0.614940 -0.342656
C193  C     C_R   0.624043 0.362863 0.296178 -0.286889
C194  C     C_R   0.128992 0.128359 0.210247 -0.242486
C195  C     C_R   0.807510 0.810106 0.886219 -0.279784
C196  C     C_R   0.185123 0.800616 0.113484 -0.276384
C197  C     C_R   0.434675 0.636474 0.389842 -0.138976
C198  C     C_R   0.864586 0.133552 0.798634 -0.277932
C199  C     C_R   0.822436 0.807651 0.121558 -0.324661
C200  C     C_R   0.158565 0.161973 0.827618 -0.285892
C201  C     C_R   0.812829 0.196435 0.115143 -0.342710
C202  C     C_R   0.124045 0.862700 0.796176 -0.287214
C203  C     C_R   0.356558 0.647076 0.597063 0.199025
C204  C     C_R   0.605389 0.387648 0.354574 0.188480
C205  C     C_R   0.611223 0.610338 0.646819 0.209489
C206  C     C_R   0.354790 0.354210 0.404570 0.272718
C207  C     C_R   0.642286 0.352667 0.598379 0.196784
C208  C     C_R   0.345616 0.415342 0.582020 -0.152603
C209  C     C_R   0.386128 0.612021 0.357131 0.194935
C210  C     C_R   0.359893 0.353013 0.594761 0.263274
C211  C     C_R   0.632758 0.635808 0.382749 0.233072
C212  C     C_R   0.856573 0.147021 0.097155 0.199285
C213  C     C_R   0.105446 0.887512 0.854604 0.188577
C214  C     C_R   0.110526 0.110431 0.147002 0.209471
C215  C     C_R   0.854733 0.854528 0.904488 0.273216
C216  C     C_R   0.142638 0.851858 0.097036 0.200186
C217  C     C_R   0.886715 0.111333 0.856749 0.191928
C218  C     C_R   0.861459 0.854670 0.098317 0.290002
C219  C     C_R   0.650913 0.579594 0.408977 -0.074008
C220  C     C_R   0.132856 0.135468 0.882205 0.226851
C221  C     C_R   0.710530 0.626558 0.788241 0.325902
C222  C     C_R   0.233393 0.277742 0.310338 0.309193
C223  C     C_R   0.700682 0.208221 0.675041 0.306347
C224  C     C_R   0.335472 0.722056 0.235386 0.309923
C225  C     C_R   0.219363 0.260767 0.625300 0.315039
C226  C     C_R   0.707314 0.644749 0.232732 0.281387
C227  C     C_R   0.291765 0.789060 0.676379 0.320082
C228  C     C_R   0.656904 0.272999 0.235782 0.353952
C229  C     C_R   0.672944 0.379502 0.201131 0.289411
C230  C     C_R   0.415986 0.342316 0.418246 -0.177263
C231  C     C_R   0.211237 0.745787 0.611129 0.454129
C232  C     C_R   0.669984 0.749171 0.260695 0.285086
C233  C     C_R   0.302614 0.232686 0.694858 0.317344
C234  C     C_R   0.315303 0.614335 0.201824 0.405694
C235  C     C_R   0.780628 0.243315 0.609122 0.445223
C236  C     C_R   0.245745 0.217524 0.401566 0.369921
C237  C     C_R   0.622392 0.695951 0.799342 0.326375
C238  C     C_R   0.208253 0.127299 0.289307 0.324052
C239  C     C_R   0.735175 0.776213 0.809969 0.303208
C240  C     C_R   0.204474 0.705453 0.170144 0.322753
H1    H     H_    0.436423 0.703409 0.577560 0.125535
H2    H     H_    0.529293 0.670558 0.624726 0.168310
H3    H     H_    0.786412 0.595147 0.360316 0.096849
H4    H     H_    0.804020 0.584435 0.282274 0.147590
H5    H     H_    0.778891 0.480508 0.371507 0.187694
H6    H     H_    0.789010 0.467843 0.292552 0.225490
H7    H     H_    0.893634 0.513076 0.301383 0.272283
H8    H     H_    0.885771 0.447539 0.350355 0.274643
H9    H     H_    0.883171 0.526509 0.380645 0.265973
H10   H     H_    0.436207 0.664243 0.718551 0.150988
H11   H     H_    0.355554 0.661960 0.728881 0.065282
H12   H     H_    0.441056 0.760635 0.786715 0.215868
H13   H     H_    0.671999 0.461450 0.375041 0.158765
H14   H     H_    0.360651 0.753092 0.799404 0.228461
H15   H     H_    0.380015 0.645644 0.840420 0.269470
H16   H     H_    0.422682 0.704727 0.880958 0.285553
H17   H     H_    0.461074 0.653585 0.828085 0.279025
H18   H     H_    0.658527 0.278599 0.396289 0.113431
H19   H     H_    0.682443 0.212094 0.350515 0.113655
H20   H     H_    0.566536 0.216100 0.426717 0.196295
H21   H     H_    0.599114 0.149281 0.387557 0.204658
H22   H     H_    0.694915 0.159305 0.453954 0.276371
H23   H     H_    0.626480 0.142856 0.493993 0.281928
H24   H     H_    0.300887 0.562490 0.582429 0.153371
H25   H     H_    0.655412 0.221239 0.495345 0.249700
H26   H     H_    0.542246 0.484803 0.269003 0.111685
H27   H     H_    0.563147 0.457865 0.194436 0.103933
H28   H     H_    0.587790 0.586041 0.253294 0.203345
H29   H     H_    0.618763 0.559446 0.182703 0.228987
H30   H     H_    0.506543 0.543772 0.147280 0.275137
H31   H     H_    0.530353 0.623470 0.160102 0.296035
H32   H     H_    0.485303 0.586794 0.214834 0.245139
H33   H     H_    0.290602 0.667388 0.480904 0.112834
H34   H     H_    0.224773 0.720968 0.484416 0.106768
H35   H     H_    0.553723 0.696782 0.407655 0.143313
H36   H     H_    0.223981 0.579578 0.452902 0.193991
H37   H     H_    0.156618 0.628222 0.463879 0.211673
H38   H     H_    0.189475 0.698438 0.380905 0.267921
H39   H     H_    0.176920 0.618521 0.356821 0.281229
H40   H     H_    0.253675 0.645370 0.368076 0.263760
H41   H     H_    0.510986 0.775533 0.351469 0.147449
H42   H     H_    0.531487 0.724425 0.291013 0.091323
H43   H     H_    0.557369 0.867273 0.297030 0.219093
H44   H     H_    0.563603 0.815310 0.232450 0.244885
H45   H     H_    0.452756 0.797049 0.232723 0.296663
H46   H     H_    0.443300 0.297606 0.575393 0.110746
H47   H     H_    0.469293 0.879138 0.225971 0.266338
H48   H     H_    0.444876 0.850213 0.296559 0.265316
H49   H     H_    0.414323 0.188244 0.601041 0.109840
H50   H     H_    0.398977 0.157256 0.673867 0.156777
H51   H     H_    0.517217 0.215773 0.632865 0.221052
H52   H     H_    0.502865 0.195021 0.709168 0.228465
H53   H     H_    0.488623 0.083446 0.677303 0.265790
H54   H     H_    0.562575 0.111324 0.657309 0.297951
H55   H     H_    0.503191 0.103867 0.600860 0.257006
H56   H     H_    0.436479 0.513639 0.275042 0.119781
H57   H     H_    0.322580 0.536474 0.378535 0.145395
H58   H     H_    0.405962 0.511933 0.198456 0.115824
H59   H     H_    0.385918 0.414600 0.295181 0.240865
H60   H     H_    0.351100 0.413957 0.221003 0.224715
H61   H     H_    0.460420 0.410651 0.180203 0.271834
H62   H     H_    0.436876 0.341987 0.218855 0.291294
H63   H     H_    0.486432 0.396114 0.256586 0.261840
H64   H     H_    0.701949 0.329292 0.479988 0.121288
H65   H     H_    0.759132 0.266146 0.484527 0.106131
H66   H     H_    0.783149 0.404093 0.455236 0.196388
H67   H     H_    0.840496 0.342711 0.463247 0.208041
H68   H     H_    0.700556 0.433557 0.581221 0.162255
H69   H     H_    0.786012 0.281307 0.379568 0.271224
H70   H     H_    0.817093 0.354727 0.357142 0.294090
H71   H     H_    0.736440 0.349415 0.368625 0.260798
H72   H     H_    0.416635 0.218329 0.487067 0.110391
H73   H     H_    0.390323 0.199522 0.412901 0.092912
H74   H     H_    0.345920 0.137173 0.527637 0.206378
H75   H     H_    0.326496 0.114675 0.451632 0.249569
H76   H     H_    0.433824 0.086840 0.430948 0.274328
H77   H     H_    0.408389 0.045402 0.495218 0.280676
H78   H     H_    0.457104 0.112227 0.505212 0.256128
H79   H     H_    0.936306 0.203421 0.077471 0.124622
H80   H     H_    0.608426 0.759329 0.660275 0.130118
H81   H     H_    0.595300 0.797205 0.732143 0.177516
H82   H     H_    0.499209 0.781156 0.631349 0.213758
H83   H     H_    0.486530 0.817266 0.703548 0.242449
H84   H     H_    0.563897 0.898261 0.682719 0.274731
H85   H     H_    0.503673 0.897178 0.626483 0.283993
H86   H     H_    0.577296 0.861897 0.610348 0.270464
H87   H     H_    0.177714 0.954032 0.209002 0.131031
H88   H     H_    0.141813 0.997536 0.267710 0.075578
H89   H     H_    0.280695 0.965522 0.266731 0.219952
H90   H     H_    0.027934 0.828104 0.875310 0.160003
H91   H     H_    0.236735 0.995576 0.328615 0.227658
H92   H     H_    0.177063 0.895538 0.326600 0.275999
H93   H     H_    0.257684 0.883479 0.340811 0.278830
H94   H     H_    0.226167 0.865474 0.267824 0.279671
H95   H     H_    0.736379 0.957515 0.841013 0.115907
H96   H     H_    0.685704 0.892904 0.831708 0.087974
H97   H     H_    0.743334 0.962778 0.728019 0.233952
H98   H     H_    0.686347 0.903315 0.721937 0.196502
H99   H     H_    0.613468 0.972819 0.778902 0.262997
H100  H     H_    0.639087 0.009005 0.711835 0.281257
H101  H     H_    0.176120 0.033751 0.119496 0.168846
H102  H     H_    0.670744 0.033010 0.783352 0.273028
H103  H     H_    0.127402 0.846796 0.219181 0.115547
H104  H     H_    0.144237 0.777734 0.263822 0.126777
H105  H     H_    0.016201 0.826223 0.224509 0.234558
H106  H     H_    0.032978 0.758411 0.269874 0.208841
H107  H     H_    0.082303 0.827940 0.347689 0.266083
H108  H     H_    0.003657 0.850592 0.332626 0.289056
H109  H     H_    0.064049 0.895706 0.302140 0.259381
H110  H     H_    0.831245 0.216850 0.901053 0.118496
H111  H     H_    0.796158 0.273404 0.850922 0.113402
H112  H     H_    0.527797 0.328345 0.375161 0.159900
H113  H     H_    0.799183 0.938817 0.922954 0.071814
H114  H     H_    0.910127 0.297237 0.930891 0.206892
H115  H     H_    0.868943 0.353575 0.885388 0.198492
H116  H     H_    0.774667 0.336280 0.947487 0.270494
H117  H     H_    0.838699 0.367013 0.989931 0.285030
H118  H     H_    0.820983 0.285172 0.994925 0.247495
H119  H     H_    0.705091 0.902803 0.101988 0.094253
H120  H     H_    0.651691 0.851631 0.064078 0.141684
H121  H     H_    0.732671 0.947194 0.003912 0.188636
H122  H     H_    0.680995 0.894662 0.965746 0.208477
H123  H     H_    0.593391 0.944401 0.021554 0.274161
H124  H     H_    0.059583 0.797939 0.078937 0.127283
H125  H     H_    0.633823 0.000699 0.978908 0.263388
H126  H     H_    0.646179 0.997452 0.058703 0.280349
H127  H     H_    0.286951 0.096062 0.858844 0.103756
H128  H     H_    0.304072 0.081348 0.781090 0.168931
H129  H     H_    0.278431 0.982164 0.874768 0.190744
H130  H     H_    0.289118 0.965826 0.796442 0.228505
H131  H     H_    0.393854 0.010811 0.804127 0.272320
H132  H     H_    0.385409 0.947952 0.856024 0.274508
H133  H     H_    0.382763 0.028273 0.882660 0.265925
H134  H     H_    0.936327 0.164208 0.219566 0.152474
H135  H     H_    0.963471 0.173431 0.876232 0.135339
H136  H     H_    0.855590 0.161332 0.228846 0.065108
H137  H     H_    0.939208 0.261269 0.287414 0.216848
H138  H     H_    0.858879 0.252182 0.299528 0.228227
H139  H     H_    0.879851 0.145094 0.340745 0.270048
H140  H     H_    0.921052 0.205055 0.381591 0.285614
H141  H     H_    0.960833 0.154627 0.329103 0.278668
H142  H     H_    0.160029 0.779040 0.896272 0.113029
H143  H     H_    0.184313 0.712962 0.850120 0.113628
H144  H     H_    0.069481 0.715156 0.927781 0.197590
H145  H     H_    0.102236 0.648904 0.887874 0.204533
H146  H     H_    0.802330 0.939706 0.086525 0.104052
H147  H     H_    0.198922 0.659955 0.952954 0.274600
H148  H     H_    0.131383 0.642139 0.993813 0.283527
H149  H     H_    0.159122 0.720994 0.995245 0.249671
H150  H     H_    0.041913 0.984555 0.769220 0.111605
H151  H     H_    0.062337 0.957529 0.694558 0.102865
H152  H     H_    0.087590 0.085753 0.753049 0.199707
H153  H     H_    0.117632 0.058992 0.682096 0.227566
H154  H     H_    0.005097 0.043698 0.647944 0.275230
H155  H     H_    0.029228 0.123316 0.660524 0.294293
H156  H     H_    0.984732 0.086796 0.715777 0.246503
H157  H     H_    0.195415 0.057012 0.908957 0.118968
H158  H     H_    0.790906 0.167302 0.981369 0.112923
H159  H     H_    0.725054 0.220882 0.984508 0.106744
H160  H     H_    0.724605 0.079452 0.953100 0.194069
H161  H     H_    0.657059 0.127806 0.963993 0.214221
H162  H     H_    0.690360 0.198456 0.881193 0.272034
H163  H     H_    0.677195 0.118720 0.857047 0.282162
H164  H     H_    0.754160 0.144905 0.868215 0.257346
H165  H     H_    0.011817 0.275161 0.849729 0.149705
H166  H     H_    0.032011 0.221735 0.790954 0.090157
H167  H     H_    0.057448 0.364670 0.791476 0.219437
H168  H     H_    0.938490 0.796925 0.918374 0.088633
H169  H     H_    0.063418 0.310171 0.728789 0.243897
H170  H     H_    0.952304 0.291667 0.730993 0.293182
H171  H     H_    0.968757 0.373282 0.720588 0.265968
H172  H     H_    0.945136 0.347688 0.792659 0.265349
H173  H     H_    0.985592 0.734098 0.158676 0.158044
H174  H     H_    0.919908 0.702291 0.122600 0.069869
H175  H     H_    0.949575 0.685111 0.257162 0.229299
H176  H     H_    0.894657 0.643199 0.211284 0.224221
H177  H     H_    0.978761 0.596454 0.150498 0.279329
H178  H     H_    0.987723 0.578139 0.228605 0.275573
H179  H     H_    0.028916 0.170686 0.124244 0.169427
H180  H     H_    0.034292 0.637398 0.196938 0.282814
H181  H     H_    0.937190 0.012190 0.776522 0.119285
H182  H     H_    0.908144 0.010000 0.699427 0.117756
H183  H     H_    0.885467 0.913683 0.796375 0.241725
H184  H     H_    0.851992 0.912643 0.721731 0.224316
H185  H     H_    0.961559 0.907551 0.682432 0.271899
H186  H     H_    0.937603 0.839894 0.722369 0.291494
H187  H     H_    0.986915 0.894851 0.759326 0.262244
H188  H     H_    0.203314 0.831081 0.978358 0.120884
H189  H     H_    0.260669 0.768143 0.983649 0.106237
H190  H     H_    0.171973 0.961384 0.874969 0.159653
H191  H     H_    0.284909 0.905750 0.953808 0.197414
H192  H     H_    0.341945 0.844103 0.961916 0.207066
H193  H     H_    0.286933 0.782619 0.878567 0.270398
H194  H     H_    0.318438 0.855621 0.855709 0.294931
H195  H     H_    0.237737 0.850953 0.867394 0.260913
H196  H     H_    0.914440 0.726596 0.989808 0.109693
H197  H     H_    0.883555 0.689436 0.923847 0.091034
H198  H     H_    0.843679 0.660747 0.052186 0.206203
H199  H     H_    0.825469 0.617236 0.984623 0.234942
H200  H     H_    0.935121 0.588688 0.971524 0.274745
H201  H     H_    0.800900 0.062460 0.082501 0.153695
H202  H     H_    0.908279 0.564032 0.042911 0.282184
H203  H     H_    0.955057 0.632432 0.038853 0.256341
H204  H     H_    0.107051 0.259956 0.159274 0.129298
H205  H     H_    0.093850 0.298063 0.231009 0.177042
H206  H     H_    0.997922 0.281673 0.130190 0.213197
H207  H     H_    0.985014 0.317735 0.202386 0.244357
H208  H     H_    0.061956 0.399091 0.181707 0.272369
H209  H     H_    0.002055 0.397612 0.125161 0.284279
H210  H     H_    0.075927 0.362672 0.109455 0.270572
H211  H     H_    0.054013 0.196757 0.906975 0.142378
H212  H     H_    0.676731 0.533958 0.618640 0.168911
H213  H     H_    0.943699 0.798249 0.077441 0.075108
H214  H     H_    0.822976 0.036006 0.878137 0.150141
H215  H     H_    0.200575 0.933339 0.080603 0.165750
H216  H     H_    0.789686 0.585430 0.774587 0.349445
H217  H     H_    0.236307 0.309759 0.229503 0.344213
H218  H     H_    0.701910 0.128948 0.717047 0.340728
H219  H     H_    0.343635 0.810836 0.259219 0.352448
H220  H     H_    0.159007 0.255891 0.561165 0.344348
H221  H     H_    0.731848 0.562127 0.201610 0.351657
H222  H     H_    0.285317 0.867312 0.722760 0.335025
H223  H     H_    0.298999 0.438187 0.423975 0.070417
H224  H     H_    0.637788 0.185598 0.252339 0.352863
H225  H     H_    0.686699 0.461869 0.167445 0.349812
H226  H     H_    0.142617 0.713772 0.562929 0.345559
H227  H     H_    0.665178 0.835661 0.290217 0.351709
H228  H     H_    0.362890 0.218787 0.759382 0.348740
H229  H     H_    0.294841 0.530947 0.170649 0.339737
H230  H     H_    0.849192 0.269066 0.561118 0.345219
H231  H     H_    0.238899 0.178013 0.478525 0.345817
H232  H     H_    0.549565 0.744944 0.819755 0.344230
H233  H     H_    0.286987 0.084626 0.277404 0.349459
H234  H     H_    0.559758 0.298230 0.579769 0.114018
H235  H     H_    0.738520 0.807809 0.729121 0.343038
H236  H     H_    0.143068 0.664420 0.217463 0.347088
H237  H     H_    0.842298 0.309896 0.759153 0.352051
H238  H     H_    0.668141 0.747130 0.060552 0.339073
H239  H     H_    0.230735 0.058961 0.701765 0.348782
H240  H     H_    0.785819 0.367213 0.223097 0.335022
H241  H     H_    0.138143 0.685379 0.752646 0.352756
H242  H     H_    0.184858 0.961458 0.666326 0.349692
H243  H     H_    0.642807 0.214322 0.062931 0.345690
H244  H     H_    0.165618 0.334324 0.786553 0.351291
H245  H     H_    0.463199 0.673791 0.376508 0.135720
H246  H     H_    0.790062 0.716983 0.287365 0.302702
H247  H     H_    0.801885 0.029686 0.667035 0.339438
H248  H     H_    0.353095 0.777225 0.062962 0.350190
H249  H     H_    0.737549 0.679320 0.979040 0.342888
H250  H     H_    0.047614 0.246781 0.318465 0.343704
H251  H     H_    0.682250 0.453367 0.707455 0.131844
H252  H     H_    0.644440 0.496318 0.765346 0.074808
H253  H     H_    0.783910 0.466899 0.766319 0.219401
H254  H     H_    0.738896 0.497078 0.827459 0.230067
H255  H     H_    0.680912 0.396524 0.826731 0.274714
H256  H     H_    0.301762 0.438905 0.583702 0.111705
H257  H     H_    0.761665 0.385314 0.840774 0.279671
H258  H     H_    0.729994 0.366214 0.768070 0.282514
H259  H     H_    0.246667 0.462971 0.336214 0.130703
H260  H     H_    0.192469 0.401604 0.340702 0.071802
H261  H     H_    0.239186 0.449562 0.220967 0.223268
H262  H     H_    0.174153 0.401387 0.233056 0.196956
H263  H     H_    0.124206 0.490986 0.290047 0.249324
H264  H     H_    0.140495 0.510308 0.213925 0.283270
H265  H     H_    0.188929 0.539224 0.273899 0.294483
H266  H     H_    0.628989 0.354455 0.719874 0.087998
H267  H     H_    0.695419 0.557161 0.408953 0.119148
H268  H     H_    0.642015 0.288228 0.769129 0.134202
H269  H     H_    0.515723 0.335075 0.722645 0.228416
H270  H     H_    0.531035 0.274772 0.776911 0.206058
H271  H     H_    0.578390 0.353240 0.846444 0.270519
H272  H     H_    0.501051 0.375881 0.825785 0.284355
H273  H     H_    0.564022 0.414310 0.792129 0.261568
H274  H     H_    0.331119 0.717569 0.401034 0.118750
H275  H     H_    0.295862 0.773326 0.350216 0.109941
H276  H     H_    0.409041 0.799387 0.430574 0.207692
H277  H     H_    0.366907 0.854783 0.384803 0.197733
H278  H     H_    0.439045 0.297170 0.418477 0.087527
H279  H     H_    0.272943 0.835930 0.446907 0.270119
H280  H     H_    0.336352 0.868133 0.489228 0.284433
H281  H     H_    0.320162 0.785954 0.494611 0.247863
H282  H     H_    0.206210 0.408020 0.606761 0.095717
H283  H     H_    0.148302 0.360082 0.571925 0.143788
H284  H     H_    0.227919 0.452360 0.505636 0.190548
H285  H     H_    0.168901 0.404455 0.472965 0.210218
H286  H     H_    0.091917 0.458877 0.539408 0.271471
H287  H     H_    0.130033 0.512610 0.492046 0.262857
H288  H     H_    0.152063 0.507905 0.569948 0.281743
N1    N     N_R   0.440580 0.604630 0.559510 -0.051709
N2    N     N_R   0.559420 0.604630 0.559510 -0.050730
N3    N     N_R   0.604630 0.440580 0.440490 -0.053858
N4    N     N_R   0.395370 0.559420 0.559510 -0.052883
N5    N     N_R   0.559420 0.604630 0.440490 -0.052089
N6    N     N_R   0.440580 0.395370 0.559510 -0.061435
N7    N     N_R   0.395370 0.559420 0.440490 -0.054427
N8    N     N_R   0.604630 0.440580 0.559510 -0.053283
N9    N     N_R   0.940580 0.104630 0.059510 -0.051920
N10   N     N_R   0.059420 0.895370 0.940490 -0.056606
N11   N     N_R   0.104630 0.059420 0.059510 -0.054332
N12   N     N_R   0.559420 0.395370 0.440490 -0.056623
N13   N     N_R   0.895370 0.940580 0.940490 -0.053306
N14   N     N_R   0.059420 0.895370 0.059510 -0.054163
N15   N     N_R   0.940580 0.104630 0.940490 -0.053425
N16   N     N_R   0.895370 0.940580 0.059510 -0.053996
N17   N     N_R   0.104630 0.059420 0.940490 -0.053955
N18   N     N_R   0.940580 0.895370 0.940490 -0.050656
N19   N     N_R   0.059420 0.104630 0.059510 -0.050892
N20   N     N_R   0.104630 0.940580 0.940490 -0.053715
N21   N     N_R   0.895370 0.059420 0.059510 -0.053393
N22   N     N_R   0.059420 0.104630 0.940490 -0.051631
N23   N     N_R   0.604630 0.559420 0.559510 -0.054596
N24   N     N_R   0.940580 0.895370 0.059510 -0.057416
N25   N     N_R   0.895370 0.059420 0.940490 -0.054364
N26   N     N_R   0.104630 0.940580 0.059510 -0.052798
N27   N     N_R   0.395370 0.440580 0.440490 -0.052173
N28   N     N_R   0.559420 0.395370 0.559510 -0.052789
N29   N     N_R   0.440580 0.604630 0.440490 -0.053228
N30   N     N_R   0.395370 0.440580 0.559510 -0.052020
N31   N     N_R   0.604630 0.559420 0.440490 -0.054225
N32   N     N_R   0.440580 0.395370 0.440490 -0.051166
Ni1   Ni    Ni4+2 0.500000 0.603690 0.500000 0.205182
Ni2   Ni    Ni4+2 0.500000 0.396310 0.500000 0.198943
Ni3   Ni    Ni4+2 0.603690 0.500000 0.500000 0.207218
Ni4   Ni    Ni4+2 0.396310 0.500000 0.500000 0.206631
Ni5   Ni    Ni4+2 0.000000 0.103690 0.000000 0.204991
Ni6   Ni    Ni4+2 0.000000 0.896310 0.000000 0.200192
Ni7   Ni    Ni4+2 0.103690 0.000000 0.000000 0.207891
Ni8   Ni    Ni4+2 0.896310 0.000000 0.000000 0.206811
O1    O     O_3   0.769635 0.610756 0.806328 -0.745744
O2    O     O_3   0.150419 0.747500 0.592832 -0.707856
O3    O     O_3   0.674035 0.813145 0.252228 -0.757711
O4    O     O_3   0.321180 0.205150 0.748040 -0.775354
O5    O     O_3   0.288919 0.575272 0.159066 -0.711244
O6    O     O_3   0.840183 0.236213 0.590150 -0.712786
O7    O     O_3   0.224496 0.170521 0.436838 -0.716959
O8    O     O_3   0.592665 0.741044 0.833771 -0.738332
O9    O     O_3   0.266892 0.110936 0.308408 -0.749490
O10   O     O_3   0.712891 0.779280 0.751862 -0.790630
O11   O     O_3   0.187538 0.660984 0.210695 -0.741760
O12   O     O_3   0.210782 0.281231 0.252363 -0.792136
O13   O     O_3   0.824147 0.284670 0.726158 -0.756467
O14   O     O_3   0.667832 0.741895 0.104419 -0.722422
O15   O     O_3   0.233763 0.103126 0.689347 -0.739368
O16   O     O_3   0.813811 0.330542 0.219731 -0.738952
O17   O     O_3   0.164087 0.708803 0.725481 -0.739992
O18   O     O_3   0.195320 0.916993 0.657321 -0.723161
O19   O     O_3   0.650659 0.247943 0.092931 -0.707866
O20   O     O_3   0.174622 0.311150 0.748947 -0.763005
O21   O     O_3   0.824565 0.722995 0.260560 -0.741121
O22   O     O_3   0.791534 0.073898 0.657769 -0.733823
O23   O     O_3   0.678540 0.169069 0.717769 -0.732384
O24   O     O_3   0.344822 0.743499 0.091326 -0.715010
O25   O     O_3   0.726617 0.669453 0.936847 -0.714498
O26   O     O_3   0.090633 0.242976 0.332733 -0.736047
O27   O     O_3   0.709303 0.544361 0.714112 -0.670469
O28   O     O_3   0.280052 0.378661 0.304129 -0.677139
O29   O     O_3   0.607230 0.266490 0.684280 -0.643731
O30   O     O_3   0.384821 0.742131 0.330369 -0.676056
O31   O     O_3   0.237927 0.337196 0.547925 -0.637366
O32   O     O_3   0.714134 0.564348 0.306175 -0.622133
O33   O     O_3   0.390494 0.739844 0.682131 -0.641438
O34   O     O_3   0.328323 0.785758 0.224768 -0.750900
O35   O     O_3   0.600142 0.256449 0.324872 -0.657818
O36   O     O_3   0.634521 0.468435 0.258786 -0.618173
O37   O     O_3   0.232903 0.653019 0.550976 -0.650096
O38   O     O_3   0.603593 0.763820 0.343677 -0.658321
O39   O     O_3   0.405795 0.255308 0.669505 -0.659150
O40   O     O_3   0.342816 0.527702 0.266140 -0.650208
O41   O     O_3   0.763063 0.336985 0.551056 -0.647559
O42   O     O_3   0.327146 0.244037 0.472263 -0.637486
O43   O     O_3   0.551860 0.711427 0.717056 -0.678509
O44   O     O_3   0.207118 0.044321 0.215768 -0.670388
O45   O     O_3   0.160937 0.248335 0.604704 -0.729659
O46   O     O_3   0.778493 0.878928 0.804806 -0.674821
O47   O     O_3   0.107844 0.760642 0.178390 -0.672321
O48   O     O_3   0.884580 0.241379 0.830093 -0.676152
O49   O     O_3   0.743537 0.831569 0.047436 -0.626573
O50   O     O_3   0.214307 0.063237 0.806292 -0.634420
O51   O     O_3   0.890616 0.239385 0.182430 -0.641456
O52   O     O_3   0.101144 0.756260 0.825509 -0.657474
O53   O     O_3   0.134084 0.968223 0.758496 -0.618912
O54   O     O_3   0.732864 0.153125 0.051225 -0.648930
O55   O     O_3   0.104365 0.263288 0.841571 -0.656527
O56   O     O_3   0.735257 0.606604 0.190283 -0.735963
O57   O     O_3   0.905709 0.773680 0.188586 -0.624512
O58   O     O_3   0.843796 0.026713 0.765772 -0.653336
O59   O     O_3   0.263806 0.839617 0.049744 -0.649867
O60   O     O_3   0.824023 0.748626 0.975667 -0.625948
O61   O     O_3   0.050487 0.212187 0.216139 -0.677920
O62   O     O_3   0.313391 0.830692 0.719460 -0.738499
O63   O     O_3   0.663882 0.209012 0.225307 -0.739295
O64   O     O_3   0.696355 0.417324 0.157941 -0.723622

loop_
_geom_bond_atom_site_label_1
_geom_bond_atom_site_label_2
_ccdc_geom_bond_type
N17   Ni7   S    
C186  N28   A    
C112  H112  S    
C75   C76   S    
C126  C127  S    
N7    N29   A    
C169  C236  A    
C165  H213  S    
N19   Ni5   S    
C164  H212  S    
C11   C181  A    
C71   H7    S    
C47   C199  A    
C21   O31   S    
C114  C115  S    
C15   O25   S    
C45   C200  A    
C76   H20   S    
C140  H167  S    
C88   H50   S    
C67   H288  S    
C78   H26   S    
C3    O13   S    
C137  H160  S    
C87   H47   S    
C145  O58   S    
C226  O56   S    
C106  C107  S    
C131  H148  S    
C135  C217  A    
C84   H39   S    
C105  H87   S    
C240  O11   S    
C108  C109  S    
C166  N25   A    
H240  O16   S    
C30   C189  A    
C38   O48   S    
C11   O21   S    
C46   N6    A    
C10   O20   S    
C162  H201  S    
C236  O7    S    
C163  H211  S    
C56   H261  S    
C201  C212  S    
C125  H133  S    
C75   O35   S    
C73   H12   S    
C113  N13   A    
C34   C194  A    
N8    Ni3   S    
C128  H141  S    
C208  N30   A    
C59   C60   S    
C29   C190  A    
C228  O63   S    
C35   H35   S    
C199  C218  S    
C197  N29   A    
C94   H62   S    
C60   H269  S    
C223  O23   S    
C79   C212  A    
C57   C209  A    
H229  O5    S    
C147  H184  S    
C118  H117  S    
C46   H46   S    
C146  N16   A    
C140  C141  S    
C125  H132  S    
H217  O12   S    
C174  C184  S    
C20   C189  A    
C29   O39   S    
C167  H215  S    
H219  O34   S    
C106  H91   S    
C46   C210  A    
C115  H109  S    
C164  N23   A    
C122  H128  S    
C52   H251  S    
C17   O27   S    
C124  N14   A    
C174  C227  A    
C59   O29   S    
C179  C240  A    
N16   Ni8   S    
C19   C188  A    
C62   O30   S    
C50   C195  A    
C89   H52   S    
C175  N27   A    
C75   H18   S    
N29   Ni1   S    
C208  H256  S    
C68   C207  A    
C20   C224  A    
C145  H181  S    
C153  H198  S    
C227  O62   S    
C29   C233  A    
C55   H259  S    
C114  H106  S    
C137  H161  S    
N13   Ni8   S    
C54   H255  S    
C64   H281  S    
C151  H193  S    
C200  C220  S    
C222  O12   S    
C112  C204  A    
C129  O52   S    
C135  H135  S    
C5    C182  A    
C32   C236  A    
N28   Ni2   S    
C136  H158  S    
C77   H23   S    
C82   H34   S    
C67   H286  S    
C99   H74   S    
C87   H45   S    
H241  O17   S    
C72   C73   S    
C83   H37   S    
C133  H152  S    
C148  H186  S    
C139  C140  S    
C69   H4    S    
C162  N21   A    
C170  C235  A    
C62   H274  S    
N17   N22   A    
C108  H96   S    
C156  C158  S    
C130  C131  S    
C190  C210  S    
C219  H267  S    
C72   O33   S    
H227  O3    S    
N22   Ni5   S    
C57   N7    A    
C139  O55   S    
C81   H30   S    
C7    C184  A    
C111  H103  S    
C157  C220  A    
C69   C70   S    
C34   C238  A    
C17   C221  A    
C70   H5    S    
C109  H98   S    
C146  C218  A    
C54   H257  S    
C161  N20   A    
C88   C89   S    
C61   H271  S    
C98   C99   S    
C155  C156  S    
C86   H44   S    
C93   H59   S    
C107  H94   S    
C43   O53   S    
C109  C110  S    
C42   O52   S    
C71   H9    S    
C143  C144  S    
C191  C211  S    
C44   O54   S    
C188  C207  S    
C147  C148  S    
C16   C51   A    
C119  H119  S    
C138  H163  S    
C163  N22   A    
C85   C86   S    
C106  H89   S    
C115  H107  S    
C108  H95   S    
C167  N26   A    
C57   H57   S    
C78   C80   S    
C7    C42   A    
C100  H76   S    
C142  H173  S    
C26   O36   S    
C149  H188  S    
N30   Ni4   S    
C18   C187  A    
C28   O38   S    
C24   N4    A    
N9    N21   A    
C83   C84   S    
C131  H149  S    
C84   H38   S    
C53   H254  S    
C34   O44   S    
C38   C198  A    
C143  H175  S    
C4    C181  A    
C89   C91   S    
C154  H203  S    
C28   C232  A    
C100  H77   S    
C145  H182  S    
C36   C239  A    
C66   C67   S    
C88   O39   S    
H233  O9    S    
C97   H70   S    
C82   O37   S    
C108  O46   S    
C126  O51   S    
H225  O64   S    
C171  C179  S    
C132  H151  S    
C224  O34   S    
N10   Ni6   S    
C169  C177  S    
C23   C192  A    
H222  O62   S    
C65   O31   S    
C149  H189  S    
C176  C228  A    
H246  O21   S    
C64   H279  S    
C159  C215  A    
N23   Ni3   S    
C121  H126  S    
H239  O15   S    
N1    Ni1   S    
C59   H268  S    
C37   O47   S    
H235  O10   S    
C239  O10   S    
C31   C235  A    
C119  O49   S    
C81   H32   S    
C116  O48   S    
C73   H14   S    
C48   C198  A    
C52   O27   S    
C150  H192  S    
C3    C180  A    
C230  H278  S    
C133  H153  S    
C172  C182  S    
C142  O57   S    
C154  H202  S    
C169  C222  A    
C160  C214  A    
C10   C45   A    
C8    O18   S    
H224  O63   S    
C219  N31   A    
C107  H92   S    
N3    N12   A    
C2    H2    S    
C166  C217  A    
C69   O32   S    
H226  O2    S    
C58   H263  S    
C49   O59   S    
C75   H19   S    
C74   H15   S    
N24   Ni6   S    
C134  H156  S    
C141  H170  S    
C42   C202  A    
C27   C192  A    
C237  O8    S    
C126  H136  S    
C28   C191  A    
C52   C53   S    
C129  C130  S    
C112  N12   A    
H232  O8    S    
C39   C199  A    
C155  H205  S    
C32   C187  A    
C12   C180  A    
C80   H28   S    
C68   H68   S    
C123  H130  S    
N14   N26   A    
C153  H199  S    
C136  C137  S    
C19   O29   S    
C154  H200  S    
C22   C226  A    
C211  C219  A    
C122  O50   S    
C91   H54   S    
C67   H287  S    
C78   H27   S    
C99   H75   S    
C104  H84   S    
C5    O15   S    
C117  C118  S    
C116  H110  S    
C131  H147  S    
C176  C229  A    
C63   H277  S    
C56   C58   S    
C165  N24   A    
H248  O24   S    
C72   H11   S    
C102  C103  S    
C158  H209  S    
C27   O37   S    
C101  N11   A    
C63   C64   S    
C152  C153  S    
H220  O45   S    
C150  C151  S    
C117  H115  S    
C151  H194  S    
C85   H41   S    
C55   O28   S    
C56   H262  S    
C55   C56   S    
C166  H214  S    
C24   C203  A    
C103  H82   S    
C158  H208  S    
C2    N2    A    
C73   C74   S    
C11   C47   A    
C8    C43   A    
C94   H63   S    
C12   C48   A    
H236  O11   S    
C59   H266  S    
C60   H270  S    
C172  C233  A    
C129  H142  S    
C147  H183  S    
C118  H118  S    
H231  O7    S    
C102  O43   S    
N9    Ni5   S    
C125  H131  S    
C96   H67   S    
C124  C216  A    
C196  C216  S    
N11   Ni7   S    
C123  C125  S    
C128  H139  S    
C135  N15   A    
C160  N19   A    
C92   O40   S    
N1    N4    A    
C52   H252  S    
C36   O46   S    
C80   H29   S    
C178  C239  A    
C144  H178  S    
N21   Ni8   S    
C89   H51   S    
C17   C185  A    
C98   O42   S    
C130  H144  S    
C134  H154  S    
C141  H172  S    
C70   C71   S    
C68   N8    A    
C136  O54   S    
C120  H121  S    
C126  H134  S    
N15   N25   A    
C104  H85   S    
C168  C221  A    
C139  H166  S    
C195  C215  S    
C110  H99   S    
N6    Ni2   S    
C157  H157  S    
N32   Ni2   S    
C159  N18   A    
C173  C181  S    
C63   H276  S    
C138  H162  S    
C71   H8    S    
N5    Ni1   S    
C145  C147  S    
C152  O60   S    
C26   C229  A    
C25   O35   S    
C146  H146  S    
C77   H22   S    
C88   H49   S    
C102  H81   S    
C82   H33   S    
C19   C223  A    
C87   H48   S    
C132  H150  S    
C86   C87   S    
C69   H3    S    
C37   C240  A    
N31   Ni3   S    
C40   C200  A    
N11   N19   A    
C53   C54   S    
C229  O64   S    
N13   N18   A    
C105  H88   S    
C171  C224  A    
C92   H58   S    
C60   C61   S    
C33   O43   S    
C221  O1    S    
C105  O44   S    
H237  O13   S    
N25   Ni8   S    
C62   C63   S    
C9    C183  A    
C173  C232  A    
C90   N10   A    
C175  H223  S    
C101  C214  A    
C116  H111  S    
C16   O26   S    
C30   C234  A    
C159  H168  S    
C70   H6    S    
C109  H97   S    
C54   H258  S    
N10   N20   A    
N6    N30   A    
N18   Ni6   S    
C85   H42   S    
C133  C134  S    
N8    N28   A    
C107  H93   S    
C198  C217  S    
C94   H61   S    
C41   C201  A    
C127  C128  S    
C124  H124  S    
C25   C193  A    
C40   O50   S    
C39   O49   S    
C25   C228  A    
C118  H116  S    
C225  O45   S    
C138  H164  S    
C90   H90   S    
C194  C214  S    
H221  O56   S    
C119  C120  S    
C49   C196  A    
C61   H272  S    
C105  C106  S    
C92   H56   S    
C1    N1    A    
C122  H127  S    
C13   C204  A    
C6    C183  A    
C149  O59   S    
C78   O36   S    
C12   O22   S    
N20   Ni7   S    
C189  C209  S    
C149  C150  S    
C144  H180  S    
C142  H174  S    
C65   H282  S    
C62   H275  S    
C235  O6    S    
C91   H55   S    
C92   C93   S    
C51   O61   S    
C192  C203  S    
C77   H25   S    
C111  C114  S    
C50   O60   S    
H218  O23   S    
C202  C213  S    
C18   C222  A    
H230  O6    S    
C33   C237  A    
C55   H260  S    
C114  H105  S    
C170  C223  A    
C160  H179  S    
C157  N17   A    
C45   O55   S    
C130  H145  S    
C82   C83   S    
C5    C40   A    
C53   H253  S    
C103  C104  S    
C95   H65   S    
C142  C143  S    
C33   C185  A    
C9    O19   S    
C175  C206  A    
C121  H123  S    
C98   H73   S    
C26   C193  A    
C230  N32   A    
C90   C213  A    
C100  H78   S    
N2    Ni1   S    
C156  H206  S    
C177  C238  A    
H238  O14   S    
C65   H283  S    
C152  H196  S    
C176  C183  S    
C102  H80   S    
C76   H21   S    
C97   H69   S    
C93   C94   S    
C206  C230  A    
C151  H195  S    
C95   C96   S    
N2    N23   A    
C238  O9    S    
C4    O14   S    
C148  H185  S    
C21   C190  A    
H249  O25   S    
C7    O17   S    
C116  C117  S    
C6    O16   S    
N14   Ni6   S    
C193  C204  S    
C103  H83   S    
C186  C207  A    
C121  H125  S    
C164  C205  A    
C155  O61   S    
C144  H177  S    
C168  C178  S    
N27   Ni4   S    
C14   C49   A    
H250  O26   S    
C84   H40   S    
C81   H31   S    
C66   H284  S    
C111  H104  S    
C85   O38   S    
C15   C50   A    
C232  O3    S    
C35   C211  A    
C30   O40   S    
C35   N5    A    
H243  O19   S    
C173  C226  A    
N12   Ni2   S    
H242  O18   S    
N26   Ni7   S    
C3    C38   A    
C132  C133  S    
C6    C41   A    
C20   O30   S    
C31   C188  A    
C18   O28   S    
C86   H43   S    
C64   H280  S    
C93   H60   S    
C22   O32   S    
C79   N9    A    
C111  O47   S    
C174  C231  A    
C14   C179  A    
C96   H66   S    
C163  C220  A    
C8    C184  A    
N16   N24   A    
C72   H10   S    
C66   H285  S    
C161  H190  S    
C231  O2    S    
C119  H120  S    
C43   C202  A    
C110  H102  S    
C115  H108  S    
C13   N3    A    
C37   C196  A    
C185  C205  S    
C123  H129  S    
C76   C77   S    
C58   H265  S    
C234  O5    S    
C127  H137  S    
C152  H197  S    
C91   H53   S    
C170  C180  S    
C99   C100  S    
H247  O22   S    
C61   H273  S    
C95   H64   S    
C127  H138  S    
C13   H13   S    
C96   C97   S    
C24   H24   S    
C23   O33   S    
C143  H176  S    
C2    C205  A    
C79   H79   S    
N15   Ni5   S    
C186  H234  S    
C172  C225  A    
C158  H210  S    
C1    H1    S    
C165  C218  A    
C233  O4    S    
C27   C231  A    
C97   H71   S    
C136  H159  S    
C197  H245  S    
C98   H72   S    
C44   C201  A    
C117  H114  S    
H228  O4    S    
C113  C215  A    
C167  C216  A    
C83   H36   S    
C101  H101  S    
C148  H187  S    
C16   C177  A    
C48   O58   S    
N27   N32   A    
C74   H17   S    
C47   O57   S    
C161  C213  A    
C9    C44   A    
C41   O51   S    
C14   O24   S    
C80   C81   S    
C51   C194  A    
C23   C227  A    
C132  O53   S    
C95   O41   S    
C168  C237  A    
C21   C225  A    
C137  C138  S    
C4    C39   A    
C113  H113  S    
C140  H169  S    
C155  H204  S    
C150  H191  S    
C22   C191  A    
C36   C195  A    
N4    Ni4   S    
H244  O20   S    
N7    Ni4   S    
C128  H140  S    
C162  C212  A    
C10   C182  A    
C187  C206  S    
C58   H264  S    
C32   O42   S    
C31   O41   S    
C74   H16   S    
H216  O1    S    
C197  C209  A    
C156  H207  S    
N3    Ni3   S    
C208  C210  A    
C65   C66   S    
C15   C178  A    
C134  H155  S    
C122  C123  S    
C120  C121  S    
C141  H171  S    
C120  H122  S    
C153  C154  S    
C104  H86   S    
C139  H165  S    
C110  H100  S    
C129  H143  S    
N5    N31   A    
C171  C234  A    
C1    C203  A    
