data_mof_unit_56187.cif
_audit_creation_date              2012-12-10T19:07:07-0500
_audit_creation_method            fapswitch 2.2
_symmetry_space_group_name_H-M    P1
_symmetry_Int_Tables_number       1
_space_group_crystal_system       triclinic
_cell_length_a                    27.80893
_cell_length_b                    10.80403
_cell_length_c                    9.54132
_cell_angle_alpha                 90.464443
_cell_angle_beta                  90.09944
_cell_angle_gamma                 90.484266
_cell_volume                      2866.47417936

loop_
_atom_site_label
_atom_site_type_symbol
_atom_type_description
_atom_site_fract_x
_atom_site_fract_y
_atom_site_fract_z
_atom_type_partial_charge
C1    C     C_R   0.499204 0.262612 0.499577 0.810502
C2    C     C_R   0.974395 0.380456 0.500645 0.043742
C3    C     C_R   0.974553 0.608976 0.491292 0.043837
C4    C     C_R   0.407468 0.500123 0.499840 0.811789
C5    C     C_R   0.949220 0.494287 0.496125 0.069086
C6    C     C_R   0.947348 0.268826 0.497566 -0.201838
C7    C     C_R   0.897408 0.269173 0.495813 -0.136408
C8    C     C_R   0.872352 0.380565 0.496688 -0.018878
C9    C     C_R   0.898079 0.493423 0.496547 -0.043066
C10   C     C_R   0.872529 0.605421 0.496851 -0.021088
C11   C     C_R   0.822055 0.602512 0.498311 0.546207
C12   C     C_R   0.278710 0.484293 0.624086 -0.096215
C13   C     C_R   0.821870 0.381813 0.496858 0.549209
C14   C     C_R   0.720849 0.465151 0.623829 0.022616
C15   C     C_R   0.670599 0.466545 0.622968 -0.221549
C16   C     C_R   0.498689 0.737680 0.500235 0.835705
C17   C     C_R   0.671091 0.520401 0.376660 -0.211235
C18   C     C_R   0.721177 0.518388 0.376935 -0.100942
C19   C     C_R   0.746300 0.491209 0.500034 0.308780
C20   C     C_R   0.025478 0.381731 0.507133 0.043777
C21   C     C_R   0.050805 0.496036 0.496056 0.068493
C22   C     C_R   0.025624 0.609450 0.484760 0.043635
C23   C     C_R   0.253668 0.499719 0.498138 0.354295
C24   C     C_R   0.052372 0.272344 0.525598 -0.203157
C25   C     C_R   0.102587 0.719207 0.464621 -0.141537
C26   C     C_R   0.947677 0.719694 0.494372 -0.201681
C27   C     C_R   0.897748 0.717660 0.496904 -0.138592
C28   C     C_R   0.592506 0.498819 0.500054 0.801119
C29   C     C_R   0.052653 0.719764 0.466332 -0.202973
C30   C     C_R   0.518090 0.065616 0.608125 0.135519
C31   C     C_R   0.496044 0.129740 0.500534 -0.128038
C32   C     C_R   0.468455 0.064902 0.400755 -0.222669
C33   C     C_R   0.467243 0.935407 0.401276 0.144199
C34   C     C_R   0.101948 0.496949 0.496366 -0.043627
C35   C     C_R   0.494942 0.871135 0.501570 -0.147156
C36   C     C_R   0.517779 0.938189 0.608654 0.084282
C37   C     C_3   0.569148 0.934545 0.655432 -0.447794
C38   C     C_3   0.569158 0.074613 0.654817 -0.450813
C39   C     C_R   0.538069 0.548190 0.074659 0.237741
C40   C     C_R   0.178003 0.389005 0.512976 0.536156
C41   C     C_R   0.464725 0.441314 0.073683 -0.049133
C42   C     C_R   0.464695 0.441423 0.924796 -0.057080
C43   C     C_R   0.538328 0.547549 0.927104 0.215997
C44   C     C_3   0.556789 0.677574 0.923971 -0.276768
C45   C     C_R   0.127518 0.385968 0.512337 -0.021328
C46   C     C_3   0.556428 0.677834 0.083327 -0.510509
C47   C     C_R   0.178144 0.607673 0.481205 0.539070
C48   C     C_R   0.278986 0.515724 0.372850 -0.097091
C49   C     C_R   0.329127 0.515734 0.373235 -0.191822
C50   C     C_R   0.328856 0.484930 0.624927 -0.205716
C51   C     C_1   0.605665 0.685511 0.865946 0.271941
C52   C     C_1   0.745851 0.438818 0.752641 0.285621
C53   C     C_R   0.102308 0.274688 0.527937 -0.141976
C54   C     C_R   0.127659 0.608856 0.480783 -0.023128
C55   C     C_R   0.354527 0.500333 0.499369 -0.038344
C56   C     C_R   0.645391 0.495395 0.499935 -0.051167
Cu1   Cu    Cu3+1 0.500000 0.499980 0.640670 0.958128
Cu2   Cu    Cu3+1 0.500000 0.500020 0.359330 0.965743
H1    H     H_    0.347459 0.472690 0.723599 0.156026
H2    H     H_    0.573100 0.898390 0.762842 0.205192
H3    H     H_    0.259247 0.472037 0.721257 0.141065
H4    H     H_    0.593413 0.892877 0.575752 0.207022
H5    H     H_    0.572587 0.116654 0.761143 0.206224
H6    H     H_    0.593225 0.115232 0.573990 0.200150
H7    H     H_    0.435754 0.395529 0.128814 0.136986
H8    H     H_    0.435693 0.395748 0.868567 0.139862
H9    H     H_    0.530888 0.743056 0.876978 0.180963
H10   H     H_    0.592513 0.683128 0.133706 0.190906
H11   H     H_    0.529629 0.742760 0.128039 0.233619
H12   H     H_    0.259741 0.527607 0.275186 0.142308
H13   H     H_    0.121120 0.188266 0.542231 0.188870
H14   H     H_    0.651211 0.445355 0.718423 0.161916
H15   H     H_    0.878471 0.181107 0.493843 0.188515
H16   H     H_    0.963593 0.178789 0.493705 0.136038
H17   H     H_    0.036004 0.182932 0.541511 0.137330
H18   H     H_    0.347945 0.528168 0.274994 0.168618
H19   H     H_    0.121506 0.806291 0.450492 0.188941
H20   H     H_    0.964055 0.810296 0.497806 0.136046
H21   H     H_    0.652540 0.542522 0.280283 0.157809
H22   H     H_    0.878951 0.805098 0.499090 0.188392
H23   H     H_    0.740616 0.538460 0.281416 0.154658
H24   H     H_    0.036396 0.808579 0.450116 0.137225
H25   H     H_    0.448452 0.114562 0.321880 0.175088
I1    I     I_    0.422456 0.846805 0.249134 -0.363574
N1    N     N_R   0.202142 0.498789 0.497418 -0.470820
N2    N     N_R   0.797900 0.491782 0.498511 -0.470385
N3    N     N_R   0.500300 0.500930 0.147930 -0.177202
N4    N     N_R   0.500310 0.500890 0.852020 -0.194651
N5    N     N_1   0.644169 0.692932 0.820856 -0.272916
N6    N     N_1   0.765931 0.417742 0.855952 -0.261877
O1    O     O_R   0.500000 0.319640 0.618810 -0.578625
O2    O     O_R   0.569730 0.499960 0.618810 -0.583170
O3    O     O_R   0.569740 0.500000 0.381220 -0.584578
O4    O     O_2   0.202814 0.283094 0.528088 -0.526432
O5    O     O_2   0.796888 0.274161 0.495232 -0.526804
O6    O     O_2   0.203089 0.714480 0.466540 -0.520733
O7    O     O_2   0.797262 0.709377 0.500148 -0.522652
O8    O     O_R   0.500010 0.319680 0.381230 -0.582165
O9    O     O_R   0.430260 0.500000 0.618780 -0.588323
O10   O     O_R   0.430270 0.500040 0.381190 -0.579827
O11   O     O_R   0.499990 0.680320 0.618770 -0.579309
O12   O     O_R   0.500000 0.680360 0.381190 -0.559596

loop_
_geom_bond_atom_site_label_1
_geom_bond_atom_site_label_2
_ccdc_geom_bond_type
C10   C27   A    
C8    C13   A    
Cu1   O2    S    
C41   C42   A    
C52   N6    T    
C35   C36   A    
Cu2   O8    S    
C39   N3    A    
C19   N2    S    
Cu2   N3    S    
C37   H4    S    
C28   C56   S    
C7    C8    A    
C7    H15   S    
C17   H21   S    
C46   H10   S    
C15   H14   S    
C12   C23   A    
C26   C27   A    
C26   H20   S    
C13   O5    S    
C25   H19   S    
C43   N4    A    
C47   N1    A    
C36   C37   S    
C22   C29   A    
Cu2   O3    S    
C16   C35   S    
C30   C31   A    
C11   N2    A    
Cu1   O9    S    
C1    C31   S    
C18   H23   S    
C30   C38   S    
C18   C19   A    
C46   H11   S    
C14   C52   S    
C20   C24   A    
C8    C9    A    
C13   N2    A    
C47   O6    S    
Cu2   O12   S    
C9    C10   A    
C3    C22   A    
C45   C53   A    
C1    O1    A    
C21   C22   A    
C2    C6    A    
C44   C46   S    
C6    H16   S    
C38   H6    S    
C25   C29   A    
C40   C45   A    
C41   N3    A    
C2    C20   A    
Cu2   O10   S    
C25   C54   A    
C27   H22   S    
C40   O4    S    
C39   C43   A    
C21   C34   A    
C24   C53   A    
C49   C55   A    
C28   O3    A    
C40   N1    A    
C43   C44   S    
C5    C9    A    
C37   C38   S    
C31   C32   A    
C17   C18   A    
C49   H18   S    
C28   O2    A    
C34   C45   A    
C17   C56   A    
C39   C46   S    
C44   C51   S    
C16   O12   A    
C48   C49   A    
C34   C54   A    
C47   C54   A    
C4    C55   S    
C2    C5    A    
C42   N4    A    
C50   H1    S    
C53   H13   S    
C38   H5    S    
C32   H25   S    
C23   C48   A    
Cu1   O1    S    
C14   C19   A    
C3    C26   A    
C48   H12   S    
C3    C5    A    
C1    O8    A    
C12   C50   A    
C24   H17   S    
C6    C7    A    
Cu1   O11   S    
C50   C55   A    
Cu1   N4    S    
C30   C36   A    
C11   O7    S    
C32   C33   A    
C4    O10   A    
C29   H24   S    
C15   C56   A    
C12   H3    S    
Cu1   Cu2   S    
C33   C35   A    
C41   H7    S    
C33   I1    S    
C37   H2    S    
C10   C11   A    
C16   O11   A    
C20   C21   A    
C23   N1    S    
C4    O9    A    
C42   H8    S    
C14   C15   A    
C44   H9    S    
C51   N5    T    
