data_mof_unit_17725.cif
_audit_creation_date              2012-12-10T19:15:37-0500
_audit_creation_method            fapswitch 2.2
_symmetry_space_group_name_H-M    P1
_symmetry_Int_Tables_number       1
_space_group_crystal_system       triclinic
_cell_length_a                    24.381728
_cell_length_b                    24.394273
_cell_length_c                    43.119144
_cell_angle_alpha                 89.987692
_cell_angle_beta                  90.051144
_cell_angle_gamma                 89.954781
_cell_volume                      25646.1497653

loop_
_atom_site_label
_atom_site_type_symbol
_atom_type_description
_atom_site_fract_x
_atom_site_fract_y
_atom_site_fract_z
_atom_type_partial_charge
C1    C     C_R   0.272076 0.229434 0.251224 -0.039150
C2    C     C_R   0.729301 0.772007 0.751509 -0.052412
C3    C     C_R   0.771067 0.271549 0.250115 -0.126423
C4    C     C_R   0.228434 0.728807 0.750126 -0.121179
C5    C     C_R   0.728989 0.771532 0.249807 -0.055494
C6    C     C_R   0.271654 0.228789 0.749766 -0.048875
C7    C     C_R   0.228719 0.728676 0.249967 -0.126209
C8    C     C_R   0.771349 0.271427 0.749931 -0.121410
C9    C     C_R   0.271066 0.771550 0.750116 -0.126422
C10   C     C_R   0.728434 0.228806 0.250126 -0.121179
C11   C     C_R   0.772077 0.729434 0.751225 -0.039140
C12   C     C_R   0.229301 0.272007 0.251509 -0.052418
C13   C     C_R   0.728720 0.228675 0.749967 -0.126210
C14   C     C_R   0.271349 0.771427 0.249931 -0.121409
C15   C     C_R   0.229000 0.271543 0.749800 -0.055482
C16   C     C_R   0.771645 0.728780 0.249773 -0.048903
C17   C     C_R   0.284392 0.200379 0.278553 0.486362
C18   C     C_R   0.743135 0.826778 0.744790 0.476429
C19   C     C_R   0.800896 0.283079 0.277596 0.502900
C20   C     C_R   0.174233 0.741764 0.740955 0.471747
C21   C     C_R   0.718432 0.801766 0.277035 0.477890
C22   C     C_R   0.257118 0.173915 0.743864 0.477293
C23   C     C_R   0.198765 0.717409 0.277411 0.502793
C24   C     C_R   0.825594 0.258346 0.740969 0.472515
C25   C     C_R   0.282550 0.801247 0.722602 0.503044
C26   C     C_R   0.741600 0.174665 0.259266 0.471965
C27   C     C_R   0.800773 0.717990 0.723590 0.462379
C28   C     C_R   0.174477 0.257473 0.257559 0.484479
C29   C     C_R   0.717407 0.198664 0.722537 0.502967
C30   C     C_R   0.258187 0.825655 0.258885 0.471100
C31   C     C_R   0.198566 0.282231 0.722632 0.477717
C32   C     C_R   0.826592 0.743100 0.255716 0.477153
C33   C     C_R   0.784395 0.700381 0.778555 0.486356
C34   C     C_R   0.243135 0.326778 0.244791 0.476430
C35   C     C_R   0.300893 0.783081 0.777597 0.502903
C36   C     C_R   0.674233 0.241764 0.240956 0.471731
C37   C     C_R   0.218454 0.301785 0.777027 0.477887
C38   C     C_R   0.757115 0.673908 0.243863 0.477292
C39   C     C_R   0.698763 0.217411 0.777411 0.502794
C40   C     C_R   0.325593 0.758346 0.240967 0.472502
C41   C     C_R   0.782550 0.301247 0.222602 0.503042
C42   C     C_R   0.241599 0.674666 0.759267 0.471954
C43   C     C_R   0.300775 0.217993 0.223590 0.462376
C44   C     C_R   0.674477 0.757474 0.757560 0.484491
C45   C     C_R   0.217404 0.698667 0.222537 0.502969
C46   C     C_R   0.758186 0.325655 0.758884 0.471092
C47   C     C_R   0.698567 0.782229 0.222636 0.477724
C48   C     C_R   0.326604 0.243107 0.755703 0.477161
C49   C     C_R   0.323385 0.158252 0.277601 -0.335217
C50   C     C_R   0.701978 0.866422 0.743201 -0.324845
C51   C     C_R   0.842883 0.321756 0.276787 -0.310729
C52   C     C_R   0.134720 0.700590 0.740091 -0.310465
C53   C     C_R   0.678954 0.843139 0.276639 -0.318653
C54   C     C_R   0.298342 0.133914 0.742723 -0.350334
C55   C     C_R   0.156841 0.678656 0.276644 -0.310833
C56   C     C_R   0.865179 0.299451 0.740138 -0.311715
C57   C     C_R   0.321366 0.843112 0.723339 -0.310574
C58   C     C_R   0.700553 0.135005 0.260061 -0.311894
C59   C     C_R   0.842070 0.678419 0.723605 -0.326239
C60   C     C_R   0.134250 0.298600 0.258055 -0.347960
C61   C     C_R   0.678641 0.156760 0.723330 -0.308862
C62   C     C_R   0.299298 0.865252 0.259741 -0.309663
C63   C     C_R   0.157047 0.321544 0.723169 -0.318308
C64   C     C_R   0.866430 0.701735 0.256991 -0.350218
C65   C     C_R   0.823388 0.658254 0.777601 -0.335228
C66   C     C_R   0.201978 0.366423 0.243202 -0.324867
C67   C     C_R   0.342881 0.821758 0.776788 -0.310737
C68   C     C_R   0.634719 0.200591 0.240092 -0.310441
C69   C     C_R   0.178971 0.343154 0.776632 -0.318680
C70   C     C_R   0.798342 0.633911 0.242720 -0.350357
C71   C     C_R   0.656839 0.178658 0.776643 -0.310839
C72   C     C_R   0.365177 0.799451 0.240136 -0.311689
C73   C     C_R   0.821365 0.343112 0.223339 -0.310578
C74   C     C_R   0.200553 0.635006 0.760062 -0.311881
C75   C     C_R   0.342072 0.178421 0.223605 -0.326227
C76   C     C_R   0.634250 0.798601 0.758057 -0.347978
C77   C     C_R   0.178638 0.656763 0.223329 -0.308864
C78   C     C_R   0.799298 0.365252 0.759739 -0.309647
C79   C     C_R   0.657052 0.821546 0.223171 -0.318289
C80   C     C_R   0.366439 0.201739 0.756981 -0.350252
C81   C     C_R   0.352813 0.147838 0.250376 -0.129017
C82   C     C_R   0.647710 0.852675 0.750296 -0.125614
C83   C     C_R   0.852427 0.352637 0.250040 -0.150230
C84   C     C_R   0.147408 0.647500 0.750054 -0.151106
C85   C     C_R   0.647643 0.852592 0.249943 -0.142229
C86   C     C_R   0.352594 0.147537 0.749901 -0.114501
C87   C     C_R   0.147474 0.647461 0.249991 -0.150163
C88   C     C_R   0.852508 0.352607 0.749955 -0.150440
C89   C     C_R   0.352426 0.852637 0.750041 -0.150227
C90   C     C_R   0.647408 0.147500 0.250054 -0.151111
C91   C     C_R   0.852813 0.647838 0.750376 -0.129008
C92   C     C_R   0.147710 0.352675 0.250296 -0.125621
C93   C     C_R   0.647474 0.147461 0.749991 -0.150161
C94   C     C_R   0.352507 0.852607 0.249955 -0.150441
C95   C     C_R   0.147646 0.352595 0.749940 -0.142217
C96   C     C_R   0.852591 0.647535 0.249903 -0.114515
C97   C     C_R   0.497964 0.000038 0.032644 -0.187231
C98   C     C_R   0.497886 0.999996 0.967425 -0.186463
C99   C     C_R   0.999546 0.507363 0.032592 -0.185692
C100  C     C_R   0.999482 0.507617 0.967359 -0.186289
C101  C     C_R   0.997947 0.500034 0.532642 -0.187231
C102  C     C_R   0.997866 0.499993 0.467423 -0.186472
C103  C     C_R   0.499549 0.007340 0.532593 -0.185714
C104  C     C_R   0.499486 0.007593 0.467360 -0.186309
C105  C     C_R   0.037056 0.467065 0.384486 0.260833
C106  C     C_R   0.038461 0.531109 0.615636 0.258812
C107  C     C_R   0.531789 0.041381 0.383585 0.259081
C108  C     C_R   0.467877 0.041282 0.616426 0.257545
C109  C     C_R   0.961469 0.532786 0.384046 0.258326
C110  C     C_R   0.960035 0.468884 0.615980 0.258433
C111  C     C_R   0.468018 0.964257 0.384867 0.259530
C112  C     C_R   0.531513 0.964025 0.615066 0.258931
C113  C     C_R   0.537032 0.967028 0.884486 0.260852
C114  C     C_R   0.538501 0.031068 0.115640 0.258780
C115  C     C_R   0.031763 0.541411 0.883582 0.259071
C116  C     C_R   0.967861 0.541277 0.116428 0.257546
C117  C     C_R   0.461509 0.032823 0.884049 0.258338
C118  C     C_R   0.460009 0.968927 0.115980 0.258423
C119  C     C_R   0.968043 0.464245 0.884868 0.259508
C120  C     C_R   0.031528 0.464046 0.115063 0.258937
C121  C     C_R   0.038879 0.469960 0.416989 0.365275
C122  C     C_R   0.040167 0.528171 0.583139 0.366556
C123  C     C_R   0.528537 0.045645 0.415997 0.367074
C124  C     C_R   0.470706 0.045360 0.583990 0.365521
C125  C     C_R   0.958565 0.529899 0.416514 0.365577
C126  C     C_R   0.957285 0.471897 0.583508 0.366679
C127  C     C_R   0.470651 0.963962 0.417396 0.365416
C128  C     C_R   0.528598 0.963628 0.582540 0.365722
C129  C     C_R   0.538863 0.969922 0.916989 0.365258
C130  C     C_R   0.540207 0.028131 0.083143 0.366577
C131  C     C_R   0.028509 0.545678 0.915994 0.367075
C132  C     C_R   0.970688 0.545362 0.083992 0.365508
C133  C     C_R   0.458607 0.029939 0.916517 0.365559
C134  C     C_R   0.457266 0.971943 0.083508 0.366687
C135  C     C_R   0.970673 0.463959 0.917397 0.365407
C136  C     C_R   0.028614 0.463655 0.082537 0.365705
C137  C     C_R   0.998433 0.499942 0.433152 -0.151904
C138  C     C_R   0.998451 0.500056 0.566918 -0.153044
C139  C     C_R   0.499444 0.005827 0.433093 -0.152587
C140  C     C_R   0.499662 0.005478 0.566864 -0.151003
C141  C     C_R   0.498449 0.999944 0.933154 -0.151893
C142  C     C_R   0.498464 0.000060 0.066920 -0.153050
C143  C     C_R   0.999440 0.505845 0.933092 -0.152575
C144  C     C_R   0.999660 0.505495 0.066863 -0.150985
C145  C     C_R   0.500027 0.000140 0.334035 0.981159
C146  C     C_R   0.499953 0.000129 0.665959 0.981354
C147  C     C_R   0.000012 0.499989 0.334035 0.979221
C148  C     C_R   0.999966 0.500000 0.665982 0.982687
C149  C     C_R   0.000027 0.500140 0.834035 0.981218
C150  C     C_R   0.999952 0.500129 0.165959 0.981320
C151  C     C_R   0.500013 0.999989 0.834036 0.979136
C152  C     C_R   0.499966 0.000000 0.165983 0.982784
C153  C     C_R   0.605140 0.105135 0.250009 0.851029
C154  C     C_R   0.394838 0.894878 0.750002 0.851246
C155  C     C_R   0.894863 0.605133 0.249984 0.849710
C156  C     C_R   0.105177 0.394865 0.749999 0.854976
C157  C     C_R   0.394856 0.894889 0.249989 0.850428
C158  C     C_R   0.605136 0.105135 0.749999 0.851264
C159  C     C_R   0.105174 0.394876 0.250035 0.849601
C160  C     C_R   0.894870 0.605167 0.750024 0.853243
C161  C     C_R   0.605174 0.894876 0.750035 0.849615
C162  C     C_R   0.394870 0.105167 0.250024 0.853246
C163  C     C_R   0.894856 0.394889 0.749989 0.850438
C164  C     C_R   0.105136 0.605135 0.249999 0.851269
C165  C     C_R   0.394864 0.105134 0.749984 0.849721
C166  C     C_R   0.605177 0.894864 0.250000 0.854978
C167  C     C_R   0.105141 0.605135 0.750009 0.851036
C168  C     C_R   0.894838 0.394878 0.250002 0.851250
C169  C     C_R   0.999563 0.499975 0.368030 -0.352833
C170  C     C_R   0.999509 0.499982 0.632019 -0.351502
C171  C     C_R   0.500082 0.001795 0.368009 -0.352050
C172  C     C_R   0.499751 0.001752 0.631972 -0.351279
C173  C     C_R   0.499568 0.999975 0.868032 -0.352867
C174  C     C_R   0.499513 0.999982 0.132021 -0.351459
C175  C     C_R   0.000082 0.501801 0.868009 -0.352006
C176  C     C_R   0.999750 0.501757 0.131971 -0.351278
C177  C     C_R   0.000183 0.549991 0.483812 0.339569
C178  C     C_R   0.997973 0.449981 0.516250 0.339769
C179  C     C_R   0.449449 0.009211 0.483750 0.339050
C180  C     C_R   0.549572 0.009006 0.516201 0.339021
C181  C     C_R   0.995357 0.450028 0.483841 0.339927
C182  C     C_R   0.997666 0.550067 0.516221 0.339626
C183  C     C_R   0.549556 0.006614 0.483782 0.339289
C184  C     C_R   0.449470 0.006557 0.516168 0.340156
C185  C     C_R   0.500253 0.049992 0.983813 0.339567
C186  C     C_R   0.497941 0.949984 0.016252 0.339765
C187  C     C_R   0.949444 0.509209 0.983749 0.339060
C188  C     C_R   0.049568 0.509056 0.016200 0.339023
C189  C     C_R   0.495327 0.950034 0.983843 0.339929
C190  C     C_R   0.497736 0.050071 0.016223 0.339631
C191  C     C_R   0.049553 0.506666 0.983781 0.339280
C192  C     C_R   0.949467 0.506556 0.016168 0.340152
H1    H     H_    0.331550 0.134559 0.298333 0.177285
H2    H     H_    0.712817 0.908245 0.737382 0.182539
H3    H     H_    0.866797 0.328961 0.297587 0.184971
H4    H     H_    0.093649 0.710650 0.732316 0.187853
H5    H     H_    0.671920 0.866891 0.297494 0.185685
H6    H     H_    0.287903 0.092037 0.736870 0.171373
H7    H     H_    0.132844 0.671643 0.297411 0.185171
H8    H     H_    0.906298 0.289276 0.732539 0.188822
H9    H     H_    0.328561 0.866910 0.702512 0.185222
H10   H     H_    0.710748 0.093985 0.267817 0.188788
H11   H     H_    0.864719 0.670732 0.702436 0.183800
H12   H     H_    0.092381 0.288272 0.264009 0.171145
H13   H     H_    0.671589 0.132729 0.702572 0.185596
H14   H     H_    0.289114 0.906336 0.267374 0.188058
H15   H     H_    0.133126 0.328652 0.702361 0.186108
H16   H     H_    0.908352 0.712020 0.262895 0.171334
H17   H     H_    0.831554 0.634562 0.798333 0.177286
H18   H     H_    0.212818 0.408246 0.237384 0.182537
H19   H     H_    0.366794 0.828963 0.797588 0.184963
H20   H     H_    0.593648 0.210651 0.232318 0.187859
H21   H     H_    0.171945 0.366911 0.797486 0.185688
H22   H     H_    0.787906 0.592035 0.236860 0.171379
H23   H     H_    0.632840 0.171647 0.797410 0.185166
H24   H     H_    0.406296 0.789277 0.232536 0.188829
H25   H     H_    0.828560 0.366911 0.202512 0.185220
H26   H     H_    0.210748 0.593986 0.767819 0.188794
H27   H     H_    0.364723 0.170735 0.202437 0.183812
H28   H     H_    0.592382 0.788273 0.764011 0.171139
H29   H     H_    0.171584 0.632733 0.202570 0.185591
H30   H     H_    0.789113 0.406337 0.767371 0.188060
H31   H     H_    0.633139 0.828662 0.202360 0.186107
H32   H     H_    0.408364 0.212024 0.762880 0.171327
O1    O     O_3   0.500000 1.000000 0.250000 -0.487203
O2    O     O_3   0.500000 0.000000 0.750000 -0.486741
O3    O     O_3   0.000000 0.500000 0.250000 -0.486741
O4    O     O_3   0.000000 0.500000 0.750000 -0.487203
O5    O     O_R   0.454480 0.000000 0.319300 -0.643021
O6    O     O_R   0.545520 0.000000 0.680700 -0.642886
O7    O     O_R   1.000000 0.454480 0.319300 -0.641679
O8    O     O_R   0.000000 0.545520 0.680700 -0.643476
O9    O     O_R   0.545520 0.000000 0.319300 -0.642640
O10   O     O_R   0.454480 0.000000 0.680700 -0.642666
O11   O     O_R   0.000000 0.545520 0.319300 -0.641792
O12   O     O_R   0.000000 0.454480 0.680700 -0.643254
O13   O     O_R   0.954480 0.500000 0.819300 -0.643038
O14   O     O_R   0.045520 0.500000 0.180700 -0.642875
O15   O     O_R   0.500000 0.954480 0.819300 -0.641643
O16   O     O_R   0.500000 0.045520 0.180700 -0.643520
O17   O     O_R   0.045520 0.500000 0.819300 -0.642660
O18   O     O_R   0.954480 0.500000 0.180700 -0.642654
O19   O     O_R   0.500000 0.045520 0.819300 -0.641756
O20   O     O_R   0.500000 0.954480 0.180700 -0.643278
O21   O     O_R   0.609440 0.064000 0.268180 -0.649628
O22   O     O_R   0.390560 0.936000 0.731820 -0.649438
O23   O     O_R   0.936000 0.609440 0.268180 -0.649585
O24   O     O_R   0.064000 0.390560 0.731820 -0.648375
O25   O     O_R   0.390560 0.936000 0.268180 -0.650676
O26   O     O_R   0.609440 0.064000 0.731820 -0.648365
O27   O     O_R   0.064000 0.390560 0.268180 -0.650110
O28   O     O_R   0.936000 0.609440 0.731820 -0.648622
O29   O     O_R   0.609440 0.936000 0.731820 -0.649617
O30   O     O_R   0.390560 0.064000 0.268180 -0.648931
O31   O     O_R   0.936000 0.390560 0.731820 -0.649847
O32   O     O_R   0.064000 0.609440 0.268180 -0.649872
O33   O     O_R   0.390560 0.064000 0.731820 -0.649803
O34   O     O_R   0.609440 0.936000 0.268180 -0.648716
O35   O     O_R   0.064000 0.609440 0.731820 -0.650311
O36   O     O_R   0.936000 0.390560 0.268180 -0.649504
O37   O     O_R   0.109440 0.564000 0.768180 -0.649624
O38   O     O_R   0.890560 0.436000 0.231820 -0.649443
O39   O     O_R   0.436000 0.109440 0.768180 -0.649580
O40   O     O_R   0.564000 0.890560 0.231820 -0.648358
O41   O     O_R   0.890560 0.436000 0.768180 -0.650679
O42   O     O_R   0.109440 0.564000 0.231820 -0.648368
O43   O     O_R   0.564000 0.890560 0.768180 -0.650113
O44   O     O_R   0.436000 0.109440 0.231820 -0.648614
O45   O     O_R   0.109440 0.436000 0.231820 -0.649614
O46   O     O_R   0.890560 0.564000 0.768180 -0.648923
O47   O     O_R   0.436000 0.890560 0.231820 -0.649856
O48   O     O_R   0.564000 0.109440 0.768180 -0.649881
O49   O     O_R   0.890560 0.564000 0.231820 -0.649798
O50   O     O_R   0.109440 0.436000 0.768180 -0.648712
O51   O     O_R   0.564000 0.109440 0.231820 -0.650304
O52   O     O_R   0.436000 0.890560 0.768180 -0.649513
Zn1   Zn    Zn3+2 0.500000 0.064990 0.224050 0.967107
Zn2   Zn    Zn3+2 0.500000 0.935010 0.775950 0.964799
Zn3   Zn    Zn3+2 0.935010 0.500000 0.224050 0.966072
Zn4   Zn    Zn3+2 0.064990 0.500000 0.775950 0.968223
Zn5   Zn    Zn3+2 0.500000 0.935010 0.224050 0.967844
Zn6   Zn    Zn3+2 0.500000 0.064990 0.775950 0.965626
Zn7   Zn    Zn3+2 0.064990 0.500000 0.224050 0.966605
Zn8   Zn    Zn3+2 0.935010 0.500000 0.775950 0.965903
Zn9   Zn    Zn3+2 0.000000 0.564990 0.724050 0.967095
Zn10  Zn    Zn3+2 0.000000 0.435010 0.275950 0.964808
Zn11  Zn    Zn3+2 0.435010 1.000000 0.724050 0.966072
Zn12  Zn    Zn3+2 0.564990 1.000000 0.275950 0.968216
Zn13  Zn    Zn3+2 0.000000 0.435010 0.724050 0.967829
Zn14  Zn    Zn3+2 0.000000 0.564990 0.275950 0.965634
Zn15  Zn    Zn3+2 0.564990 1.000000 0.724050 0.966607
Zn16  Zn    Zn3+2 0.435010 1.000000 0.275950 0.965893
O53   O     O_3   0.076179 0.437005 0.368602 -0.589039
C193  C     C_3   0.061548 0.380975 0.369404 0.169303
H33   H     H_    0.019758 0.374407 0.359603 0.139791
H34   H     H_    0.062686 0.364633 0.393487 0.182463
C194  C     C_3   0.102281 0.348403 0.350049 -0.802215
H35   H     H_    0.144203 0.352789 0.359837 0.248714
H36   H     H_    0.090828 0.304353 0.350101 0.207449
H37   H     H_    0.102219 0.363557 0.325777 0.274135
O54   O     O_3   0.078982 0.559133 0.631600 -0.590350
C195  C     C_3   0.067016 0.615814 0.630934 0.176229
H38   H     H_    0.025592 0.624331 0.640721 0.140640
H39   H     H_    0.068916 0.632261 0.606891 0.182027
C196  C     C_3   0.109255 0.646203 0.650412 -0.819325
H40   H     H_    0.150906 0.639993 0.640601 0.246424
H41   H     H_    0.099815 0.690743 0.650551 0.209834
H42   H     H_    0.108593 0.630750 0.674622 0.272835
O55   O     O_3   0.560540 0.080302 0.366813 -0.589280
C197  C     C_3   0.617089 0.067712 0.368005 0.176128
H43   H     H_    0.625273 0.026160 0.358337 0.141620
H44   H     H_    0.633061 0.069495 0.392165 0.180850
C198  C     C_3   0.648483 0.109485 0.348754 -0.817031
H45   H     H_    0.642587 0.151210 0.358514 0.245663
H46   H     H_    0.692919 0.099473 0.348956 0.210097
H47   H     H_    0.633562 0.108995 0.324435 0.273057
O56   O     O_3   0.439234 0.080238 0.633230 -0.589625
C199  C     C_3   0.382706 0.067660 0.632182 0.178499
H48   H     H_    0.374594 0.026173 0.641946 0.142129
H49   H     H_    0.366543 0.069367 0.608060 0.181070
C200  C     C_3   0.351514 0.109580 0.651401 -0.828112
H50   H     H_    0.358104 0.151246 0.641733 0.257083
H51   H     H_    0.306985 0.100093 0.650978 0.204402
H52   H     H_    0.366117 0.108760 0.675778 0.275416
O57   O     O_3   0.922579 0.562437 0.367711 -0.588647
C201  C     C_3   0.936524 0.618617 0.368680 0.179937
H53   H     H_    0.978046 0.625786 0.358714 0.140981
H54   H     H_    0.935595 0.634737 0.392810 0.181446
C202  C     C_3   0.894994 0.650794 0.349656 -0.829073
H55   H     H_    0.853294 0.644890 0.359424 0.257415
H56   H     H_    0.905311 0.695113 0.350178 0.204322
H57   H     H_    0.895298 0.636445 0.325234 0.276063
O58   O     O_3   0.919960 0.440895 0.632290 -0.590307
C203  C     C_3   0.931761 0.384186 0.631473 0.176439
H58   H     H_    0.973194 0.375516 0.641240 0.141516
H59   H     H_    0.929762 0.367901 0.607398 0.181581
C204  C     C_3   0.889495 0.353743 0.650870 -0.818979
H60   H     H_    0.847840 0.360112 0.641052 0.246061
H61   H     H_    0.898838 0.309182 0.650921 0.210186
H62   H     H_    0.890223 0.369018 0.675110 0.272765
O59   O     O_3   0.439162 0.923735 0.369405 -0.590013
C205  C     C_3   0.382721 0.936949 0.369796 0.176337
H63   H     H_    0.375155 0.978425 0.359818 0.138847
H64   H     H_    0.366031 0.935644 0.393788 0.182493
C206  C     C_3   0.351595 0.895205 0.350366 -0.818406
H65   H     H_    0.356925 0.853530 0.360311 0.246702
H66   H     H_    0.307229 0.905523 0.350093 0.209035
H67   H     H_    0.367199 0.895395 0.326191 0.273713
O60   O     O_3   0.560273 0.923380 0.630497 -0.590023
C207  C     C_3   0.616740 0.936290 0.629995 0.179189
H68   H     H_    0.624574 0.977569 0.640135 0.140678
H69   H     H_    0.633236 0.935202 0.605954 0.182609
C208  C     C_3   0.647752 0.894058 0.649137 -0.829028
H70   H     H_    0.641267 0.852546 0.639240 0.257069
H71   H     H_    0.692291 0.903525 0.648934 0.206175
H72   H     H_    0.632919 0.894526 0.673468 0.274705
O61   O     O_3   0.576122 0.936927 0.868601 -0.589000
C209  C     C_3   0.561435 0.880912 0.869405 0.169315
H73   H     H_    0.519641 0.874385 0.859603 0.139775
H74   H     H_    0.562552 0.864573 0.893489 0.182450
C210  C     C_3   0.602139 0.848297 0.850055 -0.802144
H75   H     H_    0.644064 0.852642 0.859845 0.248730
H76   H     H_    0.590641 0.804259 0.850107 0.207409
H77   H     H_    0.602098 0.863448 0.825782 0.274168
O62   O     O_3   0.579055 0.059039 0.131607 -0.590393
C211  C     C_3   0.567161 0.115735 0.130944 0.176239
H78   H     H_    0.525748 0.124303 0.140731 0.140669
H79   H     H_    0.569083 0.132183 0.106902 0.182035
C212  C     C_3   0.609439 0.146066 0.150424 -0.819476
H80   H     H_    0.651087 0.139777 0.140624 0.246464
H81   H     H_    0.600077 0.190623 0.150549 0.209851
H82   H     H_    0.608734 0.130634 0.174638 0.272783
O63   O     O_3   0.060487 0.580348 0.866806 -0.589300
C213  C     C_3   0.117045 0.567798 0.868000 0.176139
H83   H     H_    0.125258 0.526250 0.858335 0.141626
H84   H     H_    0.133016 0.569599 0.892160 0.180861
C214  C     C_3   0.148410 0.609589 0.848746 -0.817104
H85   H     H_    0.142487 0.651313 0.858503 0.245659
H86   H     H_    0.192852 0.599607 0.848948 0.210111
H87   H     H_    0.133489 0.609085 0.824426 0.273037
O64   O     O_3   0.939204 0.580221 0.133233 -0.589615
C215  C     C_3   0.882681 0.567627 0.132184 0.178514
H88   H     H_    0.874580 0.526139 0.141951 0.142132
H89   H     H_    0.866520 0.569323 0.108061 0.181066
C216  C     C_3   0.851475 0.609543 0.151398 -0.828117
H90   H     H_    0.858058 0.651209 0.141728 0.257084
H91   H     H_    0.806948 0.600046 0.150972 0.204404
H92   H     H_    0.866071 0.608730 0.175776 0.275425
O65   O     O_3   0.422644 0.062511 0.867716 -0.588610
C217  C     C_3   0.436639 0.118678 0.868687 0.179990
H93   H     H_    0.478163 0.125812 0.858714 0.140968
H94   H     H_    0.435737 0.134795 0.892818 0.181437
C218  C     C_3   0.395128 0.150895 0.849672 -0.829107
H95   H     H_    0.353428 0.145017 0.859445 0.257411
H96   H     H_    0.405477 0.195206 0.850199 0.204326
H97   H     H_    0.395412 0.136555 0.825248 0.276086
O66   O     O_3   0.419907 0.940973 0.132288 -0.590336
C219  C     C_3   0.431660 0.884254 0.131472 0.176426
H98   H     H_    0.473095 0.875550 0.141228 0.141510
H99   H     H_    0.429624 0.867968 0.107399 0.181605
C220  C     C_3   0.389387 0.853850 0.150884 -0.819062
H100  H     H_    0.347728 0.860249 0.141076 0.246059
H101  H     H_    0.398696 0.809282 0.150936 0.210199
H102  H     H_    0.390148 0.869132 0.175122 0.272760
O67   O     O_3   0.939216 0.423699 0.869408 -0.590054
C221  C     C_3   0.882765 0.436868 0.869799 0.176348
H103  H     H_    0.875166 0.478341 0.859824 0.138853
H104  H     H_    0.866075 0.435543 0.893791 0.182517
C222  C     C_3   0.851673 0.395104 0.850365 -0.818506
H105  H     H_    0.857049 0.353429 0.860301 0.246717
H106  H     H_    0.807298 0.405378 0.850100 0.209050
H107  H     H_    0.867268 0.395325 0.826188 0.273691
O68   O     O_3   0.060302 0.423408 0.130492 -0.590016
C223  C     C_3   0.116765 0.436337 0.129990 0.179204
H108  H     H_    0.124585 0.477617 0.140133 0.140673
H109  H     H_    0.133261 0.435260 0.105949 0.182608
C224  C     C_3   0.147791 0.394112 0.149129 -0.829026
H110  H     H_    0.141317 0.352599 0.139231 0.257067
H111  H     H_    0.192327 0.403591 0.148926 0.206178
H112  H     H_    0.132960 0.394571 0.173461 0.274715
O69   O     O_3   0.078322 0.440123 0.432782 -0.551087
C225  C     C_3   0.123000 0.474615 0.439858 0.135170
H113  H     H_    0.111338 0.504767 0.458002 0.103295
H114  H     H_    0.138159 0.496597 0.418867 0.140696
C226  C     C_3   0.169652 0.439963 0.452665 -0.823226
H115  H     H_    0.182731 0.409318 0.435111 0.260869
H116  H     H_    0.205074 0.466625 0.458519 0.197159
H117  H     H_    0.156051 0.418272 0.473968 0.246410
O70   O     O_3   0.080905 0.556188 0.567409 -0.550981
C227  C     C_3   0.124010 0.519690 0.560364 0.135355
H118  H     H_    0.111032 0.490139 0.542187 0.103219
H119  H     H_    0.138163 0.496994 0.581359 0.140821
C228  C     C_3   0.172162 0.552187 0.547636 -0.822704
H120  H     H_    0.186583 0.582161 0.565228 0.260898
H121  H     H_    0.206365 0.523935 0.541803 0.197272
H122  H     H_    0.159551 0.574527 0.526333 0.246371
O71   O     O_3   0.557153 0.087020 0.430834 -0.550809
C229  C     C_3   0.521472 0.131420 0.436508 0.137418
H123  H     H_    0.492751 0.121209 0.455639 0.104653
H124  H     H_    0.497792 0.143092 0.415355 0.138922
C230  C     C_3   0.555147 0.180709 0.446602 -0.820459
H125  H     H_    0.584347 0.192307 0.427965 0.260136
H126  H     H_    0.527567 0.215950 0.451383 0.197107
H127  H     H_    0.578487 0.170737 0.468016 0.249060
O72   O     O_3   0.441799 0.086586 0.569157 -0.551199
C231  C     C_3   0.476923 0.131544 0.563946 0.136578
H128  H     H_    0.505931 0.122109 0.544814 0.104364
H129  H     H_    0.500297 0.142976 0.585240 0.140105
C232  C     C_3   0.442640 0.180693 0.554184 -0.818460
H130  H     H_    0.413166 0.191454 0.572856 0.260538
H131  H     H_    0.469765 0.216385 0.549748 0.197149
H132  H     H_    0.419564 0.171009 0.532645 0.248993
O73   O     O_3   0.918566 0.559675 0.431835 -0.551706
C233  C     C_3   0.873218 0.525442 0.437828 0.135875
H133  H     H_    0.883178 0.496042 0.456699 0.104171
H134  H     H_    0.860037 0.502577 0.416695 0.140327
C234  C     C_3   0.825392 0.560590 0.448614 -0.819905
H135  H     H_    0.814088 0.590475 0.430239 0.260599
H136  H     H_    0.789428 0.534162 0.453663 0.197435
H137  H     H_    0.836877 0.583199 0.470018 0.247724
O74   O     O_3   0.916064 0.443897 0.568145 -0.550653
C235  C     C_3   0.872612 0.480324 0.561643 0.135869
H138  H     H_    0.884709 0.509687 0.543181 0.103390
H139  H     H_    0.859482 0.503239 0.582758 0.140256
C236  C     C_3   0.823847 0.447691 0.549760 -0.821958
H140  H     H_    0.810327 0.417900 0.567672 0.260628
H141  H     H_    0.789354 0.475875 0.544347 0.196978
H142  H     H_    0.835392 0.425124 0.528358 0.247397
O75   O     O_3   0.441752 0.924493 0.433644 -0.551881
C237  C     C_3   0.477401 0.881028 0.441386 0.134233
H143  H     H_    0.507554 0.894334 0.459184 0.103064
H144  H     H_    0.499438 0.865189 0.420576 0.141840
C238  C     C_3   0.444032 0.834415 0.455174 -0.823937
H145  H     H_    0.413427 0.819677 0.438004 0.261163
H146  H     H_    0.471626 0.799957 0.461540 0.197842
H147  H     H_    0.422341 0.848741 0.476324 0.244791
O76   O     O_3   0.557381 0.924071 0.566271 -0.552423
C239  C     C_3   0.521724 0.880574 0.558716 0.134363
H148  H     H_    0.491957 0.893610 0.540632 0.103586
H149  H     H_    0.499229 0.865348 0.579516 0.141911
C240  C     C_3   0.555196 0.833437 0.545543 -0.822299
H150  H     H_    0.585401 0.818989 0.563037 0.261089
H151  H     H_    0.527606 0.798958 0.539296 0.198192
H152  H     H_    0.577368 0.847103 0.524416 0.245035
O77   O     O_3   0.578278 0.940047 0.932780 -0.551084
C241  C     C_3   0.622992 0.974495 0.939855 0.135170
H153  H     H_    0.611362 0.004656 0.958000 0.103298
H154  H     H_    0.638168 0.996464 0.918863 0.140685
C242  C     C_3   0.669613 0.939797 0.952657 -0.823215
H155  H     H_    0.682658 0.909140 0.935101 0.260869
H156  H     H_    0.705061 0.966423 0.958510 0.197154
H157  H     H_    0.655995 0.918117 0.973961 0.246420
O78   O     O_3   0.580977 0.056104 0.067415 -0.550990
C243  C     C_3   0.624044 0.019561 0.060372 0.135355
H158  H     H_    0.611038 0.990022 0.042195 0.103216
H159  H     H_    0.638170 0.996851 0.081368 0.140836
C244  C     C_3   0.672233 0.052006 0.047647 -0.822709
H160  H     H_    0.686682 0.081966 0.065239 0.260897
H161  H     H_    0.706406 0.023719 0.041815 0.197273
H162  H     H_    0.659648 0.074359 0.026342 0.246375
O79   O     O_3   0.057099 0.587074 0.930828 -0.550818
C245  C     C_3   0.021391 0.631452 0.936500 0.137426
H163  H     H_    0.992684 0.621230 0.955637 0.104661
H164  H     H_    0.997693 0.643100 0.915349 0.138909
C246  C     C_3   0.055035 0.680769 0.946583 -0.820450
H165  H     H_    0.084220 0.692379 0.927940 0.260132
H166  H     H_    0.027433 0.715993 0.951363 0.197107
H167  H     H_    0.078391 0.670821 0.967996 0.249069
O80   O     O_3   0.941765 0.586579 0.069161 -0.551208
C247  C     C_3   0.976867 0.631555 0.063956 0.136583
H168  H     H_    0.005877 0.622143 0.044821 0.104369
H169  H     H_    0.000240 0.642987 0.085250 0.140103
C248  C     C_3   0.942562 0.680694 0.054205 -0.818451
H170  H     H_    0.913086 0.691432 0.072879 0.260530
H171  H     H_    0.969670 0.716401 0.049774 0.197150
H172  H     H_    0.919487 0.671012 0.032664 0.249002
O81   O     O_3   0.418639 0.059752 0.931841 -0.551715
C249  C     C_3   0.373259 0.025563 0.937836 0.135863
H173  H     H_    0.383192 0.996155 0.956708 0.104175
H174  H     H_    0.360055 0.002708 0.916703 0.140323
C250  C     C_3   0.325467 0.060757 0.948622 -0.819900
H175  H     H_    0.314190 0.090650 0.930245 0.260592
H176  H     H_    0.289478 0.034362 0.953672 0.197437
H177  H     H_    0.336974 0.083357 0.970025 0.247724
O82   O     O_3   0.416018 0.943985 0.068143 -0.550656
C251  C     C_3   0.372605 0.980457 0.061638 0.135862
H178  H     H_    0.384737 0.009809 0.043179 0.103389
H179  H     H_    0.359493 0.003383 0.082752 0.140260
C252  C     C_3   0.323811 0.947875 0.049750 -0.821963
H180  H     H_    0.310255 0.918095 0.067659 0.260633
H181  H     H_    0.289348 0.976094 0.044334 0.196982
H182  H     H_    0.335339 0.925298 0.028348 0.247390
O83   O     O_3   0.941798 0.424477 0.933649 -0.551904
C253  C     C_3   0.977471 0.381031 0.941390 0.134220
H183  H     H_    0.007630 0.394358 0.959180 0.103058
H184  H     H_    0.999501 0.365193 0.920577 0.141877
C254  C     C_3   0.944132 0.334410 0.955192 -0.823956
H185  H     H_    0.913520 0.319653 0.938030 0.261163
H186  H     H_    0.971744 0.299966 0.961555 0.197849
H187  H     H_    0.922450 0.348735 0.976345 0.244779
O84   O     O_3   0.057413 0.424113 0.066265 -0.552434
C255  C     C_3   0.021775 0.380602 0.058708 0.134360
H188  H     H_    0.992001 0.393630 0.040625 0.103587
H189  H     H_    0.999290 0.365360 0.079507 0.141918
C256  C     C_3   0.055267 0.333484 0.045528 -0.822302
H190  H     H_    0.085480 0.319044 0.063020 0.261084
H191  H     H_    0.027692 0.298994 0.039279 0.198195
H192  H     H_    0.077431 0.347166 0.024402 0.245034
O85   O     O_3   0.000569 0.599689 0.468348 -0.537250
C257  C     C_3   0.055283 0.614729 0.462074 0.139752
H193  H     H_    0.072441 0.588501 0.443378 0.097713
H194  H     H_    0.081689 0.611800 0.483159 0.150150
C258  C     C_3   0.056280 0.673750 0.450786 -0.805727
H195  H     H_    0.039603 0.701313 0.468990 0.263676
H196  H     H_    0.099090 0.686095 0.445494 0.198559
H197  H     H_    0.031068 0.677863 0.429435 0.244025
O86   O     O_3   0.996197 0.400310 0.531708 -0.536982
C259  C     C_3   0.050208 0.382792 0.537999 0.139855
H198  H     H_    0.068530 0.408190 0.556714 0.097836
H199  H     H_    0.076681 0.384547 0.516928 0.149957
C260  C     C_3   0.048635 0.323767 0.549260 -0.805083
H200  H     H_    0.030732 0.297016 0.531037 0.263806
H201  H     H_    0.090870 0.309482 0.554564 0.197960
H202  H     H_    0.023306 0.320772 0.570600 0.244397
O87   O     O_3   0.399699 0.008443 0.468293 -0.538219
C261  C     C_3   0.383997 0.062699 0.461269 0.139470
H203  H     H_    0.409913 0.079296 0.442287 0.099992
H204  H     H_    0.386762 0.089991 0.481977 0.147653
C262  C     C_3   0.324866 0.062668 0.450068 -0.806738
H205  H     H_    0.297621 0.046210 0.468477 0.264149
H206  H     H_    0.311897 0.105139 0.444381 0.195526
H207  H     H_    0.320964 0.036817 0.428971 0.244623
O88   O     O_3   0.599315 0.008093 0.531652 -0.538419
C263  C     C_3   0.615032 0.062308 0.538674 0.138411
H208  H     H_    0.588848 0.079100 0.557493 0.098760
H209  H     H_    0.612648 0.089510 0.517906 0.148713
C264  C     C_3   0.673985 0.062074 0.550165 -0.805515
H210  H     H_    0.701510 0.045736 0.531845 0.263431
H211  H     H_    0.686858 0.104477 0.556041 0.198936
H212  H     H_    0.677557 0.036008 0.571205 0.244756
O89   O     O_3   0.994900 0.400314 0.468410 -0.537418
C265  C     C_3   0.940183 0.385667 0.461808 0.139285
H213  H     H_    0.923390 0.412212 0.443127 0.098006
H214  H     H_    0.913563 0.388505 0.482783 0.149443
C266  C     C_3   0.938985 0.326788 0.450303 -0.805873
H215  H     H_    0.955286 0.298913 0.468486 0.263689
H216  H     H_    0.896169 0.314754 0.444760 0.198710
H217  H     H_    0.964428 0.322786 0.429059 0.244175
O90   O     O_3   0.999523 0.599756 0.531645 -0.537398
C267  C     C_3   0.945557 0.617069 0.538172 0.139526
H218  H     H_    0.927741 0.591729 0.557055 0.098369
H219  H     H_    0.918668 0.615020 0.517248 0.149112
C268  C     C_3   0.947071 0.676191 0.549259 -0.805800
H220  H     H_    0.964480 0.702879 0.530865 0.263633
H221  H     H_    0.904876 0.690318 0.554750 0.197933
H222  H     H_    0.972811 0.679479 0.570451 0.244719
O91   O     O_3   0.599263 0.007337 0.468336 -0.537184
C269  C     C_3   0.615979 0.952980 0.462413 0.140477
H223  H     H_    0.590209 0.934650 0.443856 0.097072
H224  H     H_    0.613949 0.926974 0.483670 0.152194
C270  C     C_3   0.674992 0.953469 0.451087 -0.805967
H225  H     H_    0.702106 0.971348 0.469154 0.263900
H226  H     H_    0.688648 0.910948 0.446075 0.197932
H227  H     H_    0.678243 0.978297 0.429563 0.243973
O92   O     O_3   0.399768 0.007215 0.531619 -0.536653
C271  C     C_3   0.383176 0.952831 0.537502 0.140307
H228  H     H_    0.409250 0.934292 0.555875 0.096973
H229  H     H_    0.384874 0.927035 0.516164 0.152357
C272  C     C_3   0.324352 0.953292 0.549139 -0.805471
H230  H     H_    0.296936 0.971360 0.531260 0.263636
H231  H     H_    0.310795 0.910744 0.554114 0.198777
H232  H     H_    0.321447 0.977936 0.570742 0.243807
O93   O     O_3   0.500689 0.099689 0.968349 -0.537256
C273  C     C_3   0.555419 0.114673 0.962075 0.139745
H233  H     H_    0.572548 0.088430 0.943378 0.097715
H234  H     H_    0.581823 0.111715 0.983159 0.150144
C274  C     C_3   0.556475 0.173694 0.950789 -0.805733
H235  H     H_    0.539828 0.201272 0.968993 0.263677
H236  H     H_    0.599298 0.185996 0.945496 0.198556
H237  H     H_    0.531266 0.177835 0.929438 0.244025
O94   O     O_3   0.496113 0.900316 0.031710 -0.536987
C275  C     C_3   0.550106 0.882745 0.038005 0.139852
H238  H     H_    0.568445 0.908121 0.056724 0.097848
H239  H     H_    0.576588 0.884481 0.016937 0.149935
C276  C     C_3   0.548474 0.823718 0.049260 -0.805062
H240  H     H_    0.530552 0.796990 0.031033 0.263804
H241  H     H_    0.590694 0.809393 0.054567 0.197963
H242  H     H_    0.523135 0.820740 0.070597 0.244401
O95   O     O_3   0.899695 0.508413 0.968293 -0.538224
C277  C     C_3   0.883966 0.562660 0.961265 0.139462
H243  H     H_    0.909873 0.579264 0.942280 0.100000
H244  H     H_    0.886721 0.589959 0.981970 0.147642
C278  C     C_3   0.824834 0.562600 0.950066 -0.806731
H245  H     H_    0.797599 0.546135 0.968478 0.264144
H246  H     H_    0.811845 0.605063 0.944375 0.195529
H247  H     H_    0.820941 0.536739 0.928972 0.244635
O96   O     O_3   0.099312 0.508165 0.031651 -0.538426
C279  C     C_3   0.115001 0.562387 0.038676 0.138412
H248  H     H_    0.088811 0.579161 0.057497 0.098764
H249  H     H_    0.112601 0.589592 0.017910 0.148708
C280  C     C_3   0.173956 0.562181 0.050165 -0.805519
H250  H     H_    0.201488 0.545862 0.031843 0.263428
H251  H     H_    0.186807 0.604590 0.056043 0.198935
H252  H     H_    0.177544 0.536113 0.071202 0.244762
O97   O     O_3   0.494821 0.900320 0.968412 -0.537414
C281  C     C_3   0.440090 0.885726 0.961810 0.139286
H253  H     H_    0.423321 0.912288 0.943130 0.097998
H254  H     H_    0.413474 0.888589 0.982786 0.149451
C282  C     C_3   0.438834 0.826849 0.950305 -0.805883
H255  H     H_    0.455110 0.798957 0.968487 0.263691
H256  H     H_    0.396007 0.814856 0.944762 0.198707
H257  H     H_    0.464273 0.822823 0.929060 0.244172
O98   O     O_3   0.499644 0.099758 0.031647 -0.537399
C283  C     C_3   0.445695 0.117127 0.038171 0.139521
H258  H     H_    0.427851 0.091808 0.057055 0.098375
H259  H     H_    0.418806 0.115105 0.017247 0.149120
C284  C     C_3   0.447270 0.176249 0.049256 -0.805781
H260  H     H_    0.464709 0.202917 0.030862 0.263630
H261  H     H_    0.405089 0.190420 0.054746 0.197936
H262  H     H_    0.473012 0.179512 0.070449 0.244728
O99   O     O_3   0.099259 0.507419 0.968335 -0.537193
C285  C     C_3   0.116008 0.453072 0.962411 0.140484
H263  H     H_    0.090253 0.434730 0.943851 0.097079
H264  H     H_    0.113988 0.427062 0.983666 0.152192
C286  C     C_3   0.175024 0.453596 0.951090 -0.805957
H265  H     H_    0.202123 0.471488 0.969160 0.263898
H266  H     H_    0.188705 0.411084 0.946078 0.197933
H267  H     H_    0.178266 0.478429 0.929567 0.243978
O100  O     O_3   0.899765 0.507192 0.031619 -0.536656
C287  C     C_3   0.883197 0.452800 0.037502 0.140310
H268  H     H_    0.909278 0.434273 0.055875 0.096970
H269  H     H_    0.884907 0.427006 0.016163 0.152365
C288  C     C_3   0.824372 0.453235 0.049137 -0.805471
H270  H     H_    0.796949 0.471292 0.031258 0.263636
H271  H     H_    0.810834 0.410682 0.054112 0.198776
H272  H     H_    0.821456 0.477878 0.070741 0.243807
O101  O     O_3   0.255750 0.211468 0.305592 -0.605414
C289  C     C_3   0.291444 0.230988 0.329080 0.054287
H273  H     H_    0.277505 0.272731 0.335752 0.151118
H274  H     H_    0.335304 0.235004 0.321878 0.112429
C290  C     C_3   0.287559 0.193558 0.357460 -0.301703
H275  H     H_    0.244476 0.192673 0.365860 0.234228
H276  H     H_    0.299574 0.151167 0.350943 0.213396
C291  C     C_3   0.324817 0.213310 0.383621 -0.992139
H277  H     H_    0.368306 0.213227 0.375955 0.264093
H278  H     H_    0.320783 0.185485 0.403868 0.262623
H279  H     H_    0.313083 0.255400 0.390885 0.266662
O102  O     O_3   0.796832 0.841271 0.738703 -0.579749
C292  C     C_3   0.821576 0.858269 0.766734 0.093877
H280  H     H_    0.814411 0.828418 0.785922 0.105772
H281  H     H_    0.804808 0.898852 0.773802 0.101181
C293  C     C_3   0.883454 0.864202 0.762109 -0.342950
H282  H     H_    0.891610 0.893656 0.742990 0.227305
H283  H     H_    0.901914 0.880935 0.783698 0.163747
C294  C     C_3   0.910612 0.809298 0.754656 -0.775818
H284  H     H_    0.901763 0.778843 0.773150 0.229145
H285  H     H_    0.955717 0.814883 0.753055 0.226535
H286  H     H_    0.895527 0.793371 0.732094 0.298760
O103  O     O_3   0.793265 0.253929 0.304874 -0.597835
C295  C     C_3   0.745260 0.271661 0.320387 0.108623
H287  H     H_    0.736436 0.241210 0.338880 0.176401
H288  H     H_    0.708700 0.271641 0.305085 0.100704
C296  C     C_3   0.752951 0.327986 0.335698 -0.408302
H289  H     H_    0.789151 0.326717 0.351365 0.234177
H290  H     H_    0.760116 0.359741 0.317686 0.211834
C297  C     C_3   0.702286 0.344298 0.354284 -0.957729
H291  H     H_    0.665864 0.346747 0.338831 0.261942
H292  H     H_    0.708949 0.385104 0.365045 0.267449
H293  H     H_    0.694389 0.313947 0.372960 0.265294
O104  O     O_3   0.159864 0.793699 0.730893 -0.594936
C298  C     C_3   0.147188 0.826720 0.756805 0.068403
H294  H     H_    0.185495 0.838293 0.769159 0.139145
H295  H     H_    0.118823 0.805368 0.773138 0.120214
C299  C     C_3   0.119421 0.879257 0.745594 -0.286406
H296  H     H_    0.146923 0.900779 0.729036 0.235960
H297  H     H_    0.080699 0.868742 0.733338 0.221506
C300  C     C_3   0.106476 0.917539 0.772618 -1.005594
H298  H     H_    0.078137 0.897245 0.789187 0.266672
H299  H     H_    0.086546 0.955356 0.763720 0.264888
H300  H     H_    0.144776 0.929189 0.784938 0.267528
O105  O     O_3   0.748521 0.793025 0.303749 -0.599256
C301  C     C_3   0.722749 0.751485 0.321220 0.060850
H301  H     H_    0.718725 0.713135 0.307400 0.135248
H302  H     H_    0.681319 0.765136 0.328957 0.132432
C302  C     C_3   0.757783 0.739133 0.349740 -0.295889
H303  H     H_    0.800028 0.728480 0.342207 0.236475
H304  H     H_    0.759985 0.776219 0.364662 0.225394
C303  C     C_3   0.734198 0.691624 0.368486 -1.000587
H305  H     H_    0.692048 0.701597 0.376462 0.267290
H306  H     H_    0.760425 0.683956 0.389106 0.269989
H307  H     H_    0.733066 0.653756 0.354187 0.265141
O106  O     O_3   0.202799 0.161084 0.737589 -0.581252
C304  C     C_3   0.183712 0.119943 0.758024 0.088184
H308  H     H_    0.201357 0.123722 0.781836 0.107076
H309  H     H_    0.194456 0.078906 0.748599 0.111082
C305  C     C_3   0.121237 0.123409 0.760426 -0.320724
H310  H     H_    0.102912 0.120437 0.736871 0.231576
H311  H     H_    0.106049 0.088262 0.774396 0.165942
C306  C     C_3   0.102651 0.176769 0.775726 -0.823621
H312  H     H_    0.119465 0.179767 0.799610 0.227355
H313  H     H_    0.057182 0.177589 0.777068 0.236482
H314  H     H_    0.116455 0.212712 0.761993 0.284730
O107  O     O_3   0.206233 0.746858 0.304601 -0.597924
C307  C     C_3   0.254149 0.729296 0.320314 0.109036
H315  H     H_    0.262862 0.759943 0.338721 0.176424
H316  H     H_    0.290794 0.729161 0.305114 0.100684
C308  C     C_3   0.246380 0.673133 0.335807 -0.408531
H317  H     H_    0.210078 0.674553 0.351358 0.234192
H318  H     H_    0.239348 0.641182 0.317891 0.212184
C309  C     C_3   0.296929 0.657040 0.354610 -0.957568
H319  H     H_    0.333456 0.654454 0.339280 0.261940
H320  H     H_    0.290216 0.616341 0.365494 0.267173
H321  H     H_    0.304683 0.687586 0.373203 0.265457
O108  O     O_3   0.839989 0.206275 0.731181 -0.594234
C310  C     C_3   0.852824 0.173716 0.757275 0.067947
H322  H     H_    0.814553 0.162081 0.769612 0.139094
H323  H     H_    0.881006 0.195474 0.773564 0.120557
C311  C     C_3   0.880967 0.121208 0.746375 -0.285647
H324  H     H_    0.853525 0.099102 0.730012 0.237120
H325  H     H_    0.919490 0.131814 0.733983 0.222701
C312  C     C_3   0.894494 0.083625 0.773642 -0.999475
H326  H     H_    0.922806 0.104517 0.790010 0.265404
H327  H     H_    0.914683 0.045803 0.764973 0.266412
H328  H     H_    0.856409 0.071912 0.786119 0.268135
O109  O     O_3   0.253292 0.793558 0.695347 -0.597640
C313  C     C_3   0.270976 0.745543 0.679832 0.108278
H329  H     H_    0.240530 0.736788 0.661304 0.176633
H330  H     H_    0.270833 0.709001 0.695119 0.100862
C314  C     C_3   0.327381 0.753091 0.664579 -0.408850
H331  H     H_    0.326228 0.789271 0.648921 0.234576
H332  H     H_    0.359141 0.760173 0.682621 0.211870
C315  C     C_3   0.343616 0.702407 0.645995 -0.955826
H333  H     H_    0.345950 0.666004 0.661441 0.261780
H334  H     H_    0.384479 0.708965 0.635276 0.267915
H335  H     H_    0.313266 0.694580 0.627287 0.265296
O110  O     O_3   0.793599 0.160504 0.269377 -0.594699
C316  C     C_3   0.826805 0.148183 0.243490 0.070013
H336  H     H_    0.837711 0.186520 0.231013 0.138121
H337  H     H_    0.805869 0.119306 0.227261 0.120911
C317  C     C_3   0.879885 0.121491 0.254755 -0.286684
H338  H     H_    0.900957 0.149532 0.271224 0.235409
H339  H     H_    0.870100 0.082733 0.267128 0.222793
C318  C     C_3   0.918352 0.108979 0.227751 -1.004717
H340  H     H_    0.898526 0.080130 0.211268 0.267288
H341  H     H_    0.956564 0.089836 0.236688 0.264156
H342  H     H_    0.929285 0.147342 0.215320 0.267735
O111  O     O_3   0.790754 0.747551 0.696847 -0.606079
C319  C     C_3   0.748828 0.721091 0.679982 0.062936
H343  H     H_    0.711235 0.716259 0.694377 0.134798
H344  H     H_    0.762914 0.679999 0.671953 0.134250
C320  C     C_3   0.734348 0.756009 0.651755 -0.297638
H345  H     H_    0.722847 0.797856 0.659579 0.236541
H346  H     H_    0.770743 0.759348 0.636364 0.226136
C321  C     C_3   0.686707 0.731307 0.633547 -0.999226
H347  H     H_    0.697458 0.689501 0.625338 0.266908
H348  H     H_    0.677531 0.757423 0.613091 0.269982
H349  H     H_    0.649453 0.729098 0.648314 0.265274
O112  O     O_3   0.161991 0.203387 0.264603 -0.582276
C322  C     C_3   0.120102 0.183372 0.244916 0.086024
H350  H     H_    0.122799 0.200171 0.220874 0.107058
H351  H     H_    0.079389 0.194225 0.254754 0.111926
C323  C     C_3   0.123813 0.120870 0.243165 -0.321785
H352  H     H_    0.121866 0.103399 0.266951 0.230675
H353  H     H_    0.088189 0.105014 0.229802 0.166311
C324  C     C_3   0.176684 0.101997 0.227428 -0.824104
H354  H     H_    0.178612 0.117864 0.203312 0.227792
H355  H     H_    0.177729 0.056514 0.226630 0.236651
H356  H     H_    0.213107 0.116533 0.240533 0.284289
O113  O     O_3   0.746818 0.206075 0.695338 -0.597201
C325  C     C_3   0.729120 0.253854 0.679571 0.108338
H357  H     H_    0.759730 0.262529 0.661145 0.176724
H358  H     H_    0.728952 0.290560 0.694724 0.100494
C326  C     C_3   0.672911 0.245905 0.664100 -0.408580
H359  H     H_    0.674363 0.209532 0.648604 0.234345
H360  H     H_    0.640987 0.238933 0.682033 0.211771
C327  C     C_3   0.656691 0.296288 0.645224 -0.957063
H361  H     H_    0.654058 0.332880 0.660500 0.262078
H362  H     H_    0.615968 0.289440 0.634353 0.267357
H363  H     H_    0.687212 0.303987 0.626617 0.265280
O114  O     O_3   0.206146 0.839962 0.268808 -0.594854
C328  C     C_3   0.173028 0.851892 0.242789 0.070040
H364  H     H_    0.162118 0.813365 0.230502 0.138224
H365  H     H_    0.194039 0.880483 0.226444 0.120579
C329  C     C_3   0.119942 0.878820 0.253806 -0.286766
H366  H     H_    0.098828 0.851101 0.270417 0.235729
H367  H     H_    0.129727 0.917803 0.265951 0.221998
C330  C     C_3   0.081521 0.890843 0.226668 -1.005103
H368  H     H_    0.101393 0.919356 0.210030 0.267324
H369  H     H_    0.043311 0.910185 0.235426 0.264230
H370  H     H_    0.070573 0.852251 0.214468 0.267549
O115  O     O_3   0.207238 0.252435 0.695835 -0.599329
C331  C     C_3   0.248751 0.278395 0.678430 0.060949
H371  H     H_    0.287361 0.281522 0.692128 0.136047
H372  H     H_    0.235425 0.320212 0.671181 0.132086
C332  C     C_3   0.260278 0.244286 0.649481 -0.295553
H373  H     H_    0.270512 0.201668 0.656492 0.236371
H374  H     H_    0.222942 0.243090 0.634685 0.224975
C333  C     C_3   0.307840 0.267963 0.630814 -1.001549
H375  H     H_    0.298223 0.310453 0.623291 0.267446
H376  H     H_    0.314982 0.242349 0.609914 0.270560
H377  H     H_    0.345912 0.268219 0.644993 0.264701
O116  O     O_3   0.839642 0.797352 0.261930 -0.581237
C334  C     C_3   0.880931 0.816200 0.241522 0.088240
H378  H     H_    0.877132 0.798512 0.217731 0.107233
H379  H     H_    0.921924 0.805321 0.251020 0.111160
C335  C     C_3   0.877724 0.878647 0.239019 -0.320996
H380  H     H_    0.880696 0.897015 0.262552 0.231382
H381  H     H_    0.912992 0.893648 0.225084 0.165949
C336  C     C_3   0.824455 0.897387 0.223606 -0.823730
H382  H     H_    0.821502 0.880582 0.199729 0.227548
H383  H     H_    0.823786 0.942835 0.222227 0.236505
H384  H     H_    0.788392 0.883711 0.237280 0.284482
O117  O     O_3   0.755755 0.711475 0.805593 -0.605420
C337  C     C_3   0.791454 0.730976 0.829084 0.054283
H385  H     H_    0.777522 0.772718 0.835763 0.151121
H386  H     H_    0.835313 0.734986 0.821883 0.112438
C338  C     C_3   0.787560 0.693534 0.857460 -0.301692
H387  H     H_    0.744477 0.692658 0.865860 0.234222
H388  H     H_    0.799561 0.651142 0.850937 0.213408
C339  C     C_3   0.824826 0.713263 0.883623 -0.992154
H389  H     H_    0.868314 0.713170 0.875955 0.264099
H390  H     H_    0.820786 0.685430 0.903866 0.262621
H391  H     H_    0.813105 0.755353 0.890892 0.266661
O118  O     O_3   0.296832 0.341272 0.238705 -0.579744
C340  C     C_3   0.321573 0.358275 0.266735 0.093881
H392  H     H_    0.314406 0.328428 0.285925 0.105756
H393  H     H_    0.304804 0.398860 0.273800 0.101181
C341  C     C_3   0.383451 0.364208 0.262113 -0.342942
H394  H     H_    0.391609 0.393658 0.242992 0.227304
H395  H     H_    0.401909 0.380945 0.283701 0.163747
C342  C     C_3   0.410610 0.309302 0.254664 -0.775824
H396  H     H_    0.401759 0.278851 0.273159 0.229139
H397  H     H_    0.455715 0.314887 0.253064 0.226536
H398  H     H_    0.395528 0.293371 0.232102 0.298760
O119  O     O_3   0.293262 0.753932 0.804875 -0.597837
C343  C     C_3   0.245255 0.771663 0.820387 0.108624
H399  H     H_    0.236430 0.741212 0.838879 0.176404
H400  H     H_    0.208696 0.771642 0.805084 0.100705
C344  C     C_3   0.252943 0.827988 0.835697 -0.408303
H401  H     H_    0.289142 0.826721 0.851366 0.234174
H402  H     H_    0.260109 0.859743 0.817685 0.211831
C345  C     C_3   0.202276 0.844300 0.854282 -0.957737
H403  H     H_    0.165855 0.846747 0.838827 0.261941
H404  H     H_    0.208937 0.885106 0.865043 0.267444
H405  H     H_    0.194379 0.813949 0.872958 0.265296
O120  O     O_3   0.659863 0.293700 0.230895 -0.594937
C346  C     C_3   0.647194 0.326722 0.256807 0.068411
H406  H     H_    0.685503 0.338291 0.269160 0.139144
H407  H     H_    0.618828 0.305372 0.273141 0.120213
C347  C     C_3   0.619431 0.379261 0.245597 -0.286409
H408  H     H_    0.646933 0.400780 0.229038 0.235960
H409  H     H_    0.580706 0.368751 0.233344 0.221507
C348  C     C_3   0.606493 0.417545 0.272622 -1.005597
H410  H     H_    0.578155 0.397255 0.289192 0.266674
H411  H     H_    0.586566 0.455364 0.263725 0.264882
H412  H     H_    0.644796 0.429192 0.284940 0.267529
O121  O     O_3   0.248559 0.293054 0.803735 -0.599247
C349  C     C_3   0.222784 0.251538 0.821223 0.060816
H413  H     H_    0.218688 0.213192 0.807405 0.135201
H414  H     H_    0.181386 0.265233 0.828990 0.132484
C350  C     C_3   0.257871 0.239147 0.849716 -0.295891
H415  H     H_    0.300083 0.228434 0.842150 0.236456
H416  H     H_    0.260161 0.276234 0.864633 0.225439
C351  C     C_3   0.234269 0.191676 0.868485 -1.000558
H417  H     H_    0.192155 0.201712 0.876498 0.267290
H418  H     H_    0.260542 0.183973 0.889083 0.269970
H419  H     H_    0.233042 0.153806 0.854190 0.265146
O122  O     O_3   0.702798 0.661076 0.237582 -0.581249
C352  C     C_3   0.683710 0.619919 0.258007 0.088181
H420  H     H_    0.701356 0.623679 0.281820 0.107069
H421  H     H_    0.694452 0.578889 0.248572 0.111092
C353  C     C_3   0.621235 0.623385 0.260412 -0.320708
H422  H     H_    0.602909 0.620429 0.236856 0.231572
H423  H     H_    0.606047 0.588230 0.274374 0.165942
C354  C     C_3   0.602652 0.676736 0.275722 -0.823638
H424  H     H_    0.619470 0.679720 0.299606 0.227358
H425  H     H_    0.557182 0.677554 0.277067 0.236482
H426  H     H_    0.616452 0.712687 0.261995 0.284719
O123  O     O_3   0.706229 0.246862 0.804600 -0.597926
C355  C     C_3   0.754144 0.229303 0.820315 0.109038
H427  H     H_    0.762855 0.259953 0.838721 0.176426
H428  H     H_    0.790790 0.229166 0.805116 0.100684
C356  C     C_3   0.746374 0.173142 0.835811 -0.408533
H429  H     H_    0.710070 0.174565 0.851360 0.234188
H430  H     H_    0.739342 0.141189 0.817895 0.212181
C357  C     C_3   0.796921 0.157052 0.854615 -0.957574
H431  H     H_    0.833449 0.154464 0.839286 0.261941
H432  H     H_    0.790208 0.116355 0.865501 0.267167
H433  H     H_    0.804675 0.187601 0.873206 0.265458
O124  O     O_3   0.339987 0.706277 0.231177 -0.594236
C358  C     C_3   0.352823 0.673715 0.257270 0.067950
H434  H     H_    0.314553 0.662080 0.269608 0.139094
H435  H     H_    0.381007 0.695471 0.273558 0.120557
C359  C     C_3   0.380965 0.621208 0.246367 -0.285648
H436  H     H_    0.353521 0.599103 0.230004 0.237120
H437  H     H_    0.419487 0.631815 0.233975 0.222702
C360  C     C_3   0.394494 0.583622 0.273633 -0.999475
H438  H     H_    0.422807 0.604512 0.290001 0.265404
H439  H     H_    0.414682 0.545801 0.264962 0.266412
H440  H     H_    0.356410 0.571908 0.286111 0.268136
O125  O     O_3   0.753290 0.293559 0.195347 -0.597642
C361  C     C_3   0.770971 0.245543 0.179832 0.108273
H441  H     H_    0.740523 0.236790 0.161304 0.176638
H442  H     H_    0.770828 0.209002 0.195119 0.100865
C362  C     C_3   0.827375 0.253089 0.164577 -0.408850
H443  H     H_    0.826222 0.289269 0.148920 0.234576
H444  H     H_    0.859137 0.260171 0.182619 0.211869
C363  C     C_3   0.843607 0.202405 0.145993 -0.955831
H445  H     H_    0.845940 0.166002 0.161440 0.261779
H446  H     H_    0.884470 0.208961 0.135274 0.267915
H447  H     H_    0.813256 0.194579 0.127286 0.265298
O126  O     O_3   0.293597 0.660506 0.769380 -0.594700
C364  C     C_3   0.326807 0.648185 0.743493 0.070018
H448  H     H_    0.337712 0.686523 0.731016 0.138118
H449  H     H_    0.305872 0.619308 0.727264 0.120912
C365  C     C_3   0.379887 0.621496 0.754760 -0.286683
H450  H     H_    0.400956 0.649538 0.771230 0.235408
H451  H     H_    0.370102 0.582738 0.767132 0.222796
C366  C     C_3   0.418357 0.608984 0.727757 -1.004720
H452  H     H_    0.398533 0.580135 0.711274 0.267288
H453  H     H_    0.456568 0.589843 0.736695 0.264155
H454  H     H_    0.429289 0.647348 0.715326 0.267734
O127  O     O_3   0.290760 0.247556 0.196847 -0.606073
C367  C     C_3   0.248832 0.221101 0.179981 0.062942
H455  H     H_    0.211241 0.216263 0.194376 0.134791
H456  H     H_    0.262919 0.180012 0.171948 0.134258
C368  C     C_3   0.234350 0.256028 0.151758 -0.297640
H457  H     H_    0.222849 0.297872 0.159587 0.236543
H458  H     H_    0.270744 0.259373 0.136367 0.226139
C369  C     C_3   0.186708 0.231331 0.133548 -0.999214
H459  H     H_    0.197459 0.189528 0.125335 0.266907
H460  H     H_    0.177530 0.257453 0.113095 0.269976
H461  H     H_    0.149455 0.229117 0.148316 0.265278
O128  O     O_3   0.661992 0.703388 0.764606 -0.582278
C370  C     C_3   0.620101 0.683372 0.744922 0.086024
H462  H     H_    0.622795 0.700169 0.720879 0.107058
H463  H     H_    0.579389 0.694225 0.754761 0.111926
C371  C     C_3   0.623811 0.620870 0.743171 -0.321782
H464  H     H_    0.621868 0.603400 0.766958 0.230674
H465  H     H_    0.588186 0.605012 0.729811 0.166311
C372  C     C_3   0.676682 0.601996 0.727433 -0.824117
H466  H     H_    0.678606 0.617861 0.703316 0.227791
H467  H     H_    0.677726 0.556512 0.726636 0.236652
H468  H     H_    0.713105 0.616533 0.740536 0.284289
O129  O     O_3   0.246813 0.706080 0.195337 -0.597202
C373  C     C_3   0.229114 0.753862 0.179572 0.108335
H469  H     H_    0.259723 0.762538 0.161145 0.176725
H470  H     H_    0.228948 0.790566 0.194726 0.100496
C374  C     C_3   0.172904 0.745916 0.164102 -0.408582
H471  H     H_    0.174354 0.709545 0.148605 0.234344
H472  H     H_    0.140981 0.738942 0.182036 0.211771
C375  C     C_3   0.156682 0.796302 0.145229 -0.957064
H473  H     H_    0.154051 0.832891 0.160507 0.262078
H474  H     H_    0.115958 0.789456 0.134359 0.267355
H475  H     H_    0.187202 0.804003 0.126621 0.265282
O130  O     O_3   0.706145 0.339963 0.768805 -0.594854
C376  C     C_3   0.673028 0.351890 0.742785 0.070043
H476  H     H_    0.662120 0.313361 0.730498 0.138222
H477  H     H_    0.694040 0.380480 0.726439 0.120578
C377  C     C_3   0.619940 0.378817 0.753800 -0.286762
H478  H     H_    0.598827 0.351099 0.770411 0.235731
H479  H     H_    0.629724 0.417802 0.765943 0.221997
C378  C     C_3   0.581521 0.390835 0.726660 -1.005109
H480  H     H_    0.601393 0.419348 0.710022 0.267324
H481  H     H_    0.543310 0.410177 0.735417 0.264231
H482  H     H_    0.570576 0.352242 0.714461 0.267547
O131  O     O_3   0.707247 0.752440 0.195837 -0.599328
C379  C     C_3   0.748767 0.778402 0.178439 0.060955
H483  H     H_    0.787372 0.781527 0.192141 0.136044
H484  H     H_    0.735443 0.820220 0.171190 0.132087
C380  C     C_3   0.760304 0.744297 0.149489 -0.295556
H485  H     H_    0.770531 0.701677 0.156500 0.236378
H486  H     H_    0.722974 0.743106 0.134688 0.224972
C381  C     C_3   0.807876 0.767972 0.130830 -1.001547
H487  H     H_    0.798266 0.810465 0.123309 0.267450
H488  H     H_    0.815024 0.742363 0.109929 0.270547
H489  H     H_    0.845942 0.768221 0.145014 0.264709
O132  O     O_3   0.339659 0.297361 0.761908 -0.581229
C382  C     C_3   0.380944 0.316196 0.741494 0.088245
H490  H     H_    0.377135 0.298501 0.717705 0.107232
H491  H     H_    0.421939 0.305316 0.750989 0.111158
C383  C     C_3   0.377743 0.378643 0.738985 -0.320991
H492  H     H_    0.380726 0.397019 0.762515 0.231382
H493  H     H_    0.413008 0.393635 0.725043 0.165949
C384  C     C_3   0.324471 0.397384 0.723575 -0.823743
H494  H     H_    0.321509 0.380572 0.699700 0.227549
H495  H     H_    0.323806 0.442831 0.722191 0.236503
H496  H     H_    0.288411 0.383716 0.737254 0.284481

loop_
_geom_bond_atom_site_label_1
_geom_bond_atom_site_label_2
_ccdc_geom_bond_type
C132  C144  A    
C318  H342  S    
C297  H292  S    
C146  O10   A    
C257  H193  S    
C40   O124  S    
C279  H248  S    
C37   C69   A    
C356  H430  S    
O3    Zn14  S    
C202  H56   S    
C234  H135  S    
C160  O28   A    
O131  C379  S    
C52   H4    S    
C303  H307  S    
O8    Zn9   S    
C182  O90   S    
C117  C133  A    
C305  H310  S    
C204  H62   S    
C281  C282  S    
C292  H281  S    
C288  H270  S    
C185  C190  A    
C107  C171  A    
O71   C229  S    
C238  H147  S    
C259  C260  S    
C50   C82   A    
C321  H347  S    
O100  C287  S    
C299  H297  S    
C132  O80   S    
C188  C191  A    
C358  H435  S    
C106  O54   S    
C14   C30   A    
C152  O20   A    
C110  O58   S    
C116  O64   S    
C352  H421  S    
C276  H242  S    
C255  H188  S    
C361  H441  S    
C235  H139  S    
C364  H449  S    
C297  H293  S    
C26   O110  S    
O95   C277  S    
C310  H322  S    
O80   C247  S    
C236  H142  S    
C209  C210  S    
C323  H352  S    
C258  H195  S    
C52   C84   A    
C275  H238  S    
O130  C376  S    
C214  H87   S    
C80   C86   A    
C210  H76   S    
C223  C224  S    
C268  H221  S    
C309  H319  S    
C147  O7    A    
C327  H363  S    
C55   H7    S    
C216  H92   S    
C154  O22   A    
C291  H278  S    
C234  H137  S    
C260  H201  S    
C299  C300  S    
C149  O13   A    
C165  O39   A    
C67   H19   S    
C201  H53   S    
C166  O40   A    
C28   O112  S    
C121  O69   S    
C288  H271  S    
C156  O50   A    
C280  H252  S    
C72   C94   A    
C219  H98   S    
C60   C92   A    
C220  H101  S    
C5    C16   S    
C368  H457  S    
C7    C45   A    
O28   Zn9   S    
C287  H269  S    
O40   Zn5   S    
C360  H439  S    
O29   Zn15  S    
C86   C165  S    
C167  O35   A    
C108  C124  A    
C315  H335  S    
O30   Zn16  S    
C208  H71   S    
C293  H283  S    
C204  H60   S    
C195  H39   S    
C372  H467  S    
O48   Zn6   S    
C282  H257  S    
C197  H44   S    
C312  H327  S    
C296  H289  S    
C70   H22   S    
C331  C332  S    
C338  H387  S    
C354  H426  S    
C35   O119  S    
O122  C352  S    
C351  H418  S    
C46   O130  S    
O128  C370  S    
O6    Zn15  S    
C262  H207  S    
C217  H94   S    
C212  H80   S    
C279  C280  S    
C69   C95   A    
O132  C382  S    
O86   C259  S    
O44   Zn1   S    
C205  C206  S    
O4    Zn4   S    
C254  H187  S    
C276  H240  S    
C349  H414  S    
C334  H378  S    
C366  H453  S    
C263  H208  S    
C244  H162  S    
C264  H211  S    
C322  H350  S    
C309  H321  S    
C319  C320  S    
C11   C27   A    
C228  H122  S    
O118  C340  S    
C201  C202  S    
C307  H316  S    
O108  C310  S    
C239  C240  S    
C322  C323  S    
C344  H402  S    
C266  H215  S    
C59   C91   A    
C303  H305  S    
C90   C153  S    
C271  H229  S    
C361  C362  S    
C32   C64   A    
C278  H245  S    
C105  C169  A    
C353  H423  S    
C208  H72   S    
C355  H428  S    
C94   C157  S    
C371  H465  S    
C365  C366  S    
C357  H431  S    
C23   O107  S    
C258  H197  S    
C221  H104  S    
O3    Zn10  S    
C349  C350  S    
C24   C56   A    
C325  H357  S    
C17   C49   A    
C305  C306  S    
C51   C83   A    
C79   C85   A    
C340  C341  S    
C131  C143  A    
C363  H445  S    
C43   C75   A    
C212  H81   S    
C218  H95   S    
C302  C303  S    
C117  C173  A    
C65   C91   A    
C259  H198  S    
C231  H129  S    
C131  O79   S    
C199  C200  S    
C203  H58   S    
C224  H110  S    
C115  O63   S    
C269  C270  S    
C157  O25   A    
C281  H254  S    
C346  H406  S    
C36   C68   A    
C23   C55   A    
C249  H173  S    
C71   C93   A    
C155  O23   A    
C324  H356  S    
C371  C372  S    
C20   C52   A    
C274  H235  S    
C313  C314  S    
C290  H275  S    
C181  O89   S    
C347  C348  S    
C238  H145  S    
C296  C297  S    
C159  O27   A    
C51   H3    S    
O67   C221  S    
C226  H116  S    
C203  C204  S    
C373  H469  S    
C120  O68   S    
O37   Zn4   S    
C186  C189  A    
O38   Zn3   S    
O23   Zn14  S    
C339  H389  S    
C343  H400  S    
O65   C217  S    
C382  C383  S    
C269  H224  S    
C320  H346  S    
C3    C19   A    
C207  H68   S    
C227  H119  S    
C97   C142  S    
C382  H491  S    
C151  O19   A    
O115  C331  S    
C4    C20   A    
C194  H35   S    
C31   O115  S    
C114  C174  A    
C104  C183  A    
C5    C21   A    
C58   H10   S    
O2    Zn15  S    
C292  H280  S    
C258  H196  S    
C342  H396  S    
C298  H295  S    
C39   C71   A    
C253  H183  S    
O45   Zn7   S    
C53   C85   A    
C244  H161  S    
C222  H105  S    
O94   C275  S    
C168  O38   A    
C277  C278  S    
O36   Zn10  S    
C177  C182  A    
C56   H8    S    
C381  H489  S    
C6    C22   A    
C359  H437  S    
C159  O45   A    
O13   Zn8   S    
C113  O61   S    
O60   C207  S    
C81   C162  S    
C354  H424  S    
C335  C336  S    
O68   C223  S    
C162  O30   A    
C360  H440  S    
C34   C66   A    
C249  C250  S    
C44   O128  S    
C220  H100  S    
C382  H490  S    
C22   C54   A    
C289  C290  S    
O70   C227  S    
C163  O31   A    
O54   C195  S    
C383  H492  S    
O53   C193  S    
C273  C274  S    
C47   O131  S    
C303  H306  S    
C374  C375  S    
C294  H285  S    
O2    Zn2   S    
C99   C192  A    
C136  C144  A    
C267  H219  S    
C198  H46   S    
O9    Zn12  S    
C33   O117  S    
O10   Zn11  S    
O15   Zn2   S    
C123  C139  A    
C45   O129  S    
C241  C242  S    
C365  H451  S    
C314  H331  S    
C121  C137  A    
C44   C76   A    
C150  O14   A    
C277  H243  S    
C188  O96   S    
C278  H247  S    
C115  C175  A    
C101  C178  A    
C29   O113  S    
C135  O83   S    
C60   H12   S    
C248  H170  S    
C2    C44   A    
O110  C316  S    
C196  H41   S    
C253  C254  S    
C236  H140  S    
C368  C369  S    
O99   C285  S    
O123  C355  S    
C317  C318  S    
O7    Zn10  S    
C24   O108  S    
O4    Zn13  S    
C66   H18   S    
O121  C349  S    
C112  O60   S    
C287  C288  S    
C363  H447  S    
O74   C235  S    
C119  C175  A    
C200  H52   S    
C135  C143  A    
C87   C164  S    
C189  O97   S    
O82   C251  S    
C289  H274  S    
C290  H276  S    
C106  C122  A    
C241  H153  S    
C1    C12   S    
O61   C209  S    
C100  C143  S    
O75   C237  S    
C2    C11   S    
C379  H484  S    
C224  H111  S    
C350  H415  S    
C109  C169  A    
O105  C301  S    
C203  H59   S    
C361  H442  S    
C28   C60   A    
C48   O132  S    
C274  H237  S    
C29   C61   A    
C108  O56   S    
C246  H166  S    
C278  H246  S    
C369  H459  S    
C105  C121  A    
C345  H405  S    
C31   C63   A    
C11   C33   A    
C362  C363  S    
C64   C96   A    
C257  C258  S    
C367  H456  S    
C76   C82   A    
C54   C86   A    
C335  H380  S    
C66   C92   A    
C326  C327  S    
C383  C384  S    
C380  H486  S    
O129  C373  S    
C164  O42   A    
C285  C286  S    
C339  H391  S    
C111  O59   S    
C338  C339  S    
C295  H287  S    
C332  H374  S    
C213  C214  S    
C331  H372  S    
C192  O100  S    
C119  O67   S    
C70   C96   A    
C339  H390  S    
C97   C190  A    
O77   C241  S    
C75   C81   A    
C375  H474  S    
C180  C183  A    
C334  H379  S    
C340  H393  S    
C68   C90   A    
C116  C132  A    
C35   C67   A    
C211  H79   S    
C308  H317  S    
C292  C293  S    
C117  O65   S    
C74   H26   S    
C233  C234  S    
C322  H351  S    
C240  H150  S    
C262  H205  S    
C153  O51   A    
C355  H427  S    
C222  H107  S    
C209  H74   S    
C250  H176  S    
C211  C212  S    
C20   O104  S    
C187  C192  A    
C265  H213  S    
C273  H233  S    
C78   H30   S    
C178  O86   S    
C230  H125  S    
C381  H487  S    
C300  H300  S    
C110  C126  A    
C200  H50   S    
C301  H302  S    
C108  C172  A    
C225  H113  S    
C308  C309  S    
C285  H264  S    
C338  H388  S    
C204  H61   S    
C68   H20   S    
C215  H88   S    
C129  O77   S    
C315  H334  S    
C220  H102  S    
O114  C328  S    
C43   O127  S    
O124  C358  S    
C346  C347  S    
C109  C125  A    
C318  H341  S    
C145  O5    A    
C261  H203  S    
O102  C292  S    
C279  H249  S    
C40   C72   A    
C263  C264  S    
C283  H258  S    
C74   C84   A    
C237  C238  S    
C305  H311  S    
C319  H344  S    
C233  H134  S    
C79   H31   S    
C238  H146  S    
C301  C302  S    
O43   Zn2   S    
C1    C17   A    
C256  H192  S    
C229  H123  S    
C314  C315  S    
O46   Zn8   S    
C212  H82   S    
C270  H225  S    
O31   Zn13  S    
C103  C140  S    
C255  H189  S    
C235  C236  S    
C364  H448  S    
C336  H383  S    
C4    C42   A    
C161  O43   A    
C348  H412  S    
C7    C23   A    
C136  O84   S    
O84   C255  S    
C162  O44   A    
C341  H394  S    
C236  H141  S    
C323  H353  S    
C62   H14   S    
C342  H398  S    
C251  H179  S    
C55   C87   A    
C93   C158  S    
C130  C142  A    
C316  C317  S    
C275  H239  S    
C214  H86   S    
C304  H308  S    
C190  O98   S    
C41   C73   A    
O127  C367  S    
C269  H223  S    
C330  H368  S    
C306  H314  S    
C118  C174  A    
C359  C360  S    
C260  H200  S    
C57   H9    S    
O107  C307  S    
O1    Zn1   S    
C64   H16   S    
C45   C77   A    
C230  H126  S    
C276  H241  S    
C4    C9    S    
O83   C253  S    
C73   C83   A    
C197  C198  S    
C332  C333  S    
C61   H13   S    
C280  H251  S    
C311  C312  S    
C223  H109  S    
C38   C70   A    
C8    C13   S    
C315  H333  S    
C145  O9    A    
C193  H34   S    
C323  C324  S    
C114  C130  A    
C360  H438  S    
O66   C219  S    
O111  C319  S    
O17   Zn4   S    
C107  C123  A    
C375  H473  S    
C272  H232  S    
C284  H260  S    
C9    C25   A    
C187  O95   S    
C199  H48   S    
C208  H70   S    
C326  H359  S    
C291  H277  S    
C282  H256  S    
O20   Zn5   S    
O101  C289  S    
O39   Zn6   S    
C57   C89   A    
O24   Zn13  S    
C12   C28   A    
C295  C296  S    
O58   C203  S    
C166  O34   A    
C13   C29   A    
C310  C311  S    
C354  H425  S    
C105  O53   S    
C179  C184  A    
C304  C305  S    
C367  C368  S    
O19   Zn6   S    
C146  O6    A    
C193  H33   S    
C205  H64   S    
O47   Zn5   S    
C104  C179  A    
C129  C141  A    
C318  H340  S    
C157  O47   A    
C63   C95   A    
C161  O29   A    
C240  H152  S    
C158  O48   A    
O126  C364  S    
C251  C252  S    
C95   C156  S    
C167  O37   A    
C330  H369  S    
C49   C81   A    
C376  C377  S    
C252  H180  S    
C211  H78   S    
C313  H330  S    
O14   Zn7   S    
C357  H433  S    
C284  H261  S    
C311  H324  S    
C328  H365  S    
O4    Zn9   S    
C120  C176  A    
C3    C41   A    
C344  H401  S    
C363  H446  S    
C179  O87   S    
C153  O21   A    
O97   C281  S    
C370  C371  S    
C320  H345  S    
C301  H301  S    
C340  H392  S    
C333  H375  S    
C148  O8    A    
O1    Zn5   S    
C286  H266  S    
C122  O70   S    
C109  O57   S    
C255  C256  S    
C291  H279  S    
O81   C249  S    
C369  H460  S    
C326  H360  S    
C297  H291  S    
C298  H294  S    
C226  H115  S    
C63   H15   S    
O78   C243  S    
C273  H234  S    
C356  C357  S    
C357  H432  S    
C21   O105  S    
C234  H136  S    
C283  C284  S    
C242  H157  S    
C164  O32   A    
C300  H299  S    
C325  H358  S    
O73   C233  S    
C98   C189  A    
C241  H154  S    
C348  H411  S    
O32   Zn14  S    
C99   C188  A    
C210  H77   S    
C37   O121  S    
C345  H403  S    
C245  H164  S    
C302  H304  S    
C371  H464  S    
C97   C186  A    
C248  H171  S    
C381  H488  S    
C42   C74   A    
C324  H354  S    
C299  H296  S    
C266  H216  S    
C103  C184  A    
O1    Zn12  S    
C99   C144  S    
C100  C187  A    
C69   H21   S    
C122  C138  A    
C193  C194  S    
C102  C137  S    
C352  C353  S    
C337  H385  S    
C46   C78   A    
C240  H151  S    
C235  H138  S    
C367  H455  S    
C364  C365  S    
C249  H174  S    
C231  C232  S    
C215  C216  S    
C125  C137  A    
O87   C261  S    
C259  H199  S    
C263  H209  S    
C165  O33   A    
C379  C380  S    
C119  C135  A    
C13   C39   A    
C366  H452  S    
O3    Zn7   S    
C120  C136  A    
C229  C230  S    
C294  H284  S    
C296  H290  S    
O125  C361  S    
O85   C257  S    
C134  C142  A    
C5    C47   A    
C359  H436  S    
C373  H470  S    
C306  H312  S    
C195  C196  S    
C260  H202  S    
C358  C359  S    
C333  H377  S    
C377  H479  S    
C246  H165  S    
C370  H462  S    
C194  H36   S    
C336  H382  S    
C376  H476  S    
C219  H99   S    
C15   C31   A    
C58   C90   A    
C227  C228  S    
C228  H120  S    
C6    C48   A    
C36   O120  S    
C270  H227  S    
C110  C170  A    
C72   H24   S    
C310  H323  S    
C62   C94   A    
C156  O24   A    
C223  H108  S    
C377  H478  S    
C253  H184  S    
C254  H186  S    
C199  H49   S    
C126  O74   S    
C12   C34   A    
C186  O94   S    
C375  H475  S    
C39   O123  S    
C336  H384  S    
C293  H282  S    
C18   C50   A    
C373  C374  S    
C216  H90   S    
C282  H255  S    
C372  H468  S    
C78   C88   A    
C329  C330  S    
C197  H43   S    
C243  H158  S    
C216  H91   S    
C25   O109  S    
C262  H206  S    
C246  H167  S    
C205  H63   S    
C102  C181  A    
C321  H348  S    
C228  H121  S    
C124  C140  A    
C207  H69   S    
C158  O26   A    
C232  H132  S    
C351  H417  S    
C230  H127  S    
C337  C338  S    
C345  H404  S    
C101  C138  S    
C343  C344  S    
C217  H93   S    
C98   C185  A    
C151  O15   A    
C133  C141  A    
C271  C272  S    
C104  C139  S    
C248  H172  S    
O72   C231  S    
C349  H413  S    
C168  O36   A    
C366  H454  S    
O103  C295  S    
C374  H472  S    
C84   C167  S    
C252  H181  S    
C257  H194  S    
C202  H57   S    
C50   H2    S    
C267  C268  S    
C274  H236  S    
C198  H45   S    
C112  C172  A    
C76   H28   S    
C114  O62   S    
C21   C53   A    
C124  O72   S    
C344  C345  S    
C384  H495  S    
C180  O88   S    
C341  C342  S    
O69   C225  S    
C128  C140  A    
O57   C201  S    
C277  H244  S    
C112  C128  A    
C178  C181  A    
C56   C88   A    
C59   H11   S    
C150  O18   A    
C317  H338  S    
C324  H355  S    
C196  H40   S    
C106  C170  A    
O119  C343  S    
C148  O12   A    
C356  H429  S    
C368  H458  S    
C328  H364  S    
C221  H103  S    
C127  O75   S    
O89   C265  S    
C10   C36   A    
O62   C211  S    
C149  C175  S    
C347  H408  S    
C352  H420  S    
C61   C93   A    
O3    Zn3   S    
C325  C326  S    
C218  H97   S    
O41   Zn8   S    
C245  C246  S    
C147  O11   A    
O42   Zn7   S    
C280  H250  S    
C150  C176  S    
C145  C171  S    
C231  H128  S    
C151  C173  S    
C113  C173  A    
C146  C172  S    
O116  C334  S    
C2    C18   A    
C202  H55   S    
C252  H182  S    
C358  H434  S    
C27   C59   A    
C47   C79   A    
C155  O49   A    
C217  C218  S    
O2    Zn6   S    
C268  H220  S    
C89   C154  S    
C33   C65   A    
C242  H156  S    
C243  H159  S    
C300  H298  S    
O117  C337  S    
C343  H399  S    
C177  O85   S    
C218  H96   S    
C243  C244  S    
C312  H326  S    
C313  H329  S    
C113  C129  A    
O56   C199  S    
C92   C159  S    
O50   Zn4   S    
C85   C166  S    
C362  H444  S    
C206  H67   S    
C266  H217  S    
O51   Zn1   S    
C107  O55   S    
O64   C215  S    
C103  C180  A    
O112  C322  S    
C115  C131  A    
C71   H23   S    
C96   C155  S    
C80   H32   S    
C207  C208  S    
C380  H485  S    
O33   Zn11  S    
C302  H303  S    
C185  O93   S    
C329  H366  S    
O34   Zn12  S    
C244  H160  S    
C320  C321  S    
O35   Zn9   S    
C30   O114  S    
O120  C346  S    
C379  H483  S    
C334  C335  S    
C41   O125  S    
C256  H191  S    
C295  H288  S    
C213  H83   S    
C7    C14   S    
C15   C37   A    
O18   Zn3   S    
C200  H51   S    
C369  H461  S    
C128  O76   S    
C183  O91   S    
C298  C299  S    
C383  H493  S    
C226  H117  S    
C16   C32   A    
O104  C298  S    
O27   Zn10  S    
C75   H27   S    
C224  H112  S    
C270  H226  S    
C250  H175  S    
C111  C171  A    
O113  C325  S    
C245  H163  S    
O1    Zn16  S    
C19   O103  S    
C10   C26   A    
C285  H263  S    
C348  H410  S    
C6    C15   S    
C83   C168  S    
C314  H332  S    
O93   C273  S    
C123  O71   S    
C154  O52   A    
O21   Zn12  S    
C225  H114  S    
C317  H339  S    
C308  H318  S    
C219  C220  S    
O22   Zn11  S    
C209  H73   S    
C376  H477  S    
C127  C139  A    
C265  C266  S    
C309  H320  S    
C316  H336  S    
C307  H315  S    
O106  C304  S    
C272  H231  S    
C1    C43   A    
C8    C46   A    
C346  H407  S    
C311  H325  S    
C372  H466  S    
C184  O92   S    
C261  H204  S    
C272  H230  S    
C116  C176  A    
C337  H386  S    
C9    C35   A    
C25   C57   A    
O2    Zn11  S    
O76   C239  S    
C353  C354  S    
C294  H286  S    
C247  H169  S    
C38   O122  S    
C267  H218  S    
C191  O99   S    
C198  H47   S    
C194  H37   S    
C125  O73   S    
C247  C248  S    
C232  H131  S    
C254  H185  S    
O25   Zn16  S    
C221  C222  S    
C307  C308  S    
O90   C267  S    
O26   Zn15  S    
C377  C378  S    
C365  H450  S    
C286  H267  S    
C321  H349  S    
C133  O81   S    
C330  H370  S    
C130  O78   S    
O91   C269  S    
C247  H168  S    
C350  C351  S    
C26   C58   A    
C148  C170  S    
C152  O16   A    
C355  C356  S    
C378  H480  S    
C118  O66   S    
O63   C213  S    
C288  H272  S    
C341  H395  S    
C256  H190  S    
C91   C160  S    
C73   H25   S    
C342  H397  S    
C271  H228  S    
C319  H343  S    
C239  H149  S    
C316  H337  S    
C275  C276  S    
C77   C87   A    
C214  H85   S    
C233  H133  S    
C225  C226  S    
C264  H212  S    
C384  H494  S    
O12   Zn13  S    
C77   H29   S    
C327  H361  S    
C306  H313  S    
C374  H471  S    
O52   Zn2   S    
O109  C313  S    
C232  H130  S    
C98   C141  S    
C111  C127  A    
C196  H42   S    
C290  C291  S    
C100  C191  A    
C222  H106  S    
C53   H5    S    
C268  H222  S    
C27   O111  S    
C287  H268  S    
C242  H155  S    
C328  C329  S    
C332  H373  S    
C102  C177  A    
C22   O106  S    
C195  H38   S    
C126  C138  A    
C312  H328  S    
C215  H89   S    
C289  H273  S    
O16   Zn1   S    
C65   H17   S    
O5    Zn16  S    
C34   O118  S    
C353  H422  S    
C118  C134  A    
C335  H381  S    
C201  H54   S    
C293  C294  S    
O92   C271  S    
C281  H253  S    
C82   C161  S    
C88   C163  S    
C351  H419  S    
C210  H75   S    
C384  H496  S    
C160  O46   A    
C239  H148  S    
C54   H6    S    
C350  H416  S    
C265  H214  S    
C378  H481  S    
O11   Zn14  S    
C331  H371  S    
C48   C80   A    
C30   C62   A    
C206  H65   S    
C152  C174  S    
C304  H309  S    
C3    C10   S    
C17   O101  S    
O98   C283  S    
C32   O116  S    
O4    Zn8   S    
C206  H66   S    
O96   C279  S    
C49   H1    S    
C329  H367  S    
C284  H262  S    
C378  H482  S    
C213  H84   S    
O49   Zn3   S    
O55   C197  S    
C283  H259  S    
O88   C263  S    
C250  H177  S    
C229  H124  S    
C237  H143  S    
C134  O82   S    
C14   C40   A    
C327  H362  S    
C19   C51   A    
C8    C24   A    
C362  H443  S    
C149  O17   A    
C264  H210  S    
C370  H463  S    
C67   C89   A    
O59   C205  S    
C251  H178  S    
C227  H118  S    
C333  H376  S    
C237  H144  S    
C42   O126  S    
C286  H265  S    
O79   C245  S    
C347  H409  S    
C261  C262  S    
C163  O41   A    
C101  C182  A    
C147  C169  S    
C380  C381  S    
C16   C38   A    
C18   O102  S    
