data_mof_unit_41879.cif
_audit_creation_date              2012-12-10T18:42:34-0500
_audit_creation_method            fapswitch 2.2
_symmetry_space_group_name_H-M    P1
_symmetry_Int_Tables_number       1
_space_group_crystal_system       triclinic
_cell_length_a                    8.561677
_cell_length_b                    10.593391
_cell_length_c                    9.929706
_cell_angle_alpha                 88.700377
_cell_angle_beta                  97.958197
_cell_angle_gamma                 91.167997
_cell_volume                      891.558436892

loop_
_atom_site_label
_atom_site_type_symbol
_atom_type_description
_atom_site_fract_x
_atom_site_fract_y
_atom_site_fract_z
_atom_type_partial_charge
C1    C     C_R   0.499158 0.260372 0.500948 0.855961
C2    C     C_R   0.606619 0.064396 0.595848 -0.198873
C3    C     C_R   0.501810 0.872093 0.497885 0.028932
C4    C     C_R   0.498194 0.127907 0.502112 0.028950
C5    C     C_R   0.563841 0.599809 0.074717 0.048959
C6    C     C_R   0.436178 0.400182 0.925292 0.048976
C7    C     C_R   0.563083 0.598896 0.931785 -0.141443
C8    C     C_R   0.436889 0.401118 0.068216 -0.141458
C9    C     C_R   0.637112 0.711115 0.145648 0.156694
C10   C     C_R   0.791344 0.705484 0.214305 -0.096356
C11   C     C_R   0.865872 0.813620 0.272943 -0.170676
C12   C     C_R   0.500841 0.739628 0.499051 0.856020
C13   C     C_R   0.788925 0.929252 0.258519 -0.109885
C14   C     C_R   0.638011 0.936893 0.184541 -0.121846
C15   C     C_R   0.561907 0.828222 0.128508 -0.176818
C16   C     C_R   0.363244 0.288734 0.854435 0.156700
C17   C     C_R   0.209184 0.294121 0.785435 -0.096250
C18   C     C_R   0.135013 0.185839 0.726863 -0.170995
C19   C     C_R   0.212121 0.070314 0.741700 -0.109492
C20   C     C_R   0.362847 0.062923 0.816010 -0.121889
C21   C     C_R   0.438610 0.171733 0.871963 -0.177141
C22   C     C_R   0.201634 0.497938 0.464869 0.963524
C23   C     C_R   0.798366 0.502043 0.535134 0.963651
C24   C     C_2   0.036885 0.488369 0.447301 -0.399594
C25   C     C_2   0.963118 0.511571 0.552713 -0.399614
C26   C     C_R   0.392017 0.065062 0.405896 -0.212428
C27   C     C_R   0.607988 0.934939 0.594100 -0.212291
C28   C     C_R   0.393389 0.935605 0.404144 -0.199141
H1    H     H_    0.976965 0.458576 0.349193 0.168372
H2    H     H_    0.984325 0.808208 0.327298 0.128686
H3    H     H_    0.846997 0.013171 0.303007 0.127594
H4    H     H_    0.579619 0.026893 0.171215 0.137294
H5    H     H_    0.445132 0.835365 0.071082 0.118047
H6    H     H_    0.145437 0.381275 0.780387 0.128798
H7    H     H_    0.016702 0.191058 0.672229 0.128690
H8    H     H_    0.154323 0.986285 0.697264 0.127666
H9    H     H_    0.421369 0.973012 0.829642 0.137189
H10   H     H_    0.555239 0.164779 0.929652 0.118100
H11   H     H_    0.023038 0.541336 0.650833 0.168391
H12   H     H_    0.308567 0.116105 0.333497 0.134716
H13   H     H_    0.691437 0.883896 0.666498 0.134686
H14   H     H_    0.310547 0.885146 0.331021 0.135267
H15   H     H_    0.689465 0.114856 0.668968 0.135317
H16   H     H_    0.614383 0.677528 0.880613 0.141722
H17   H     H_    0.385610 0.322483 0.119396 0.141753
H18   H     H_    0.854932 0.618245 0.219021 0.128595
N1    N     N_R   0.499960 0.499970 0.857200 -0.100298
N2    N     N_R   0.500040 0.500030 0.142800 -0.100307
O1    O     O_R   0.499990 0.316750 0.614620 -0.606459
O2    O     O_R   0.500010 0.683250 0.385380 -0.606488
O3    O     O_R   0.499990 0.316780 0.385290 -0.635899
O4    O     O_R   0.500010 0.683220 0.614710 -0.635865
O5    O     O_R   0.271750 0.499990 0.587840 -0.614513
O6    O     O_R   0.728250 0.500010 0.412160 -0.614387
O7    O     O_R   0.271750 0.500010 0.358510 -0.626877
O8    O     O_R   0.728250 0.499990 0.641490 -0.626887
Zn1   Zn    Zn3+2 0.500000 0.499980 0.653120 0.937453
Zn2   Zn    Zn3+2 0.500000 0.500020 0.346880 0.937468

loop_
_geom_bond_atom_site_label_1
_geom_bond_atom_site_label_2
_ccdc_geom_bond_type
C10   H18   S    
C4    C26   A    
C24   C25   D    
C8    N2    A    
N2    Zn2   S    
C16   C21   A    
C26   C28   A    
N1    Zn1   S    
C11   C13   A    
C9    C10   A    
C27   H13   S    
C2    C4    A    
C19   C20   A    
C2    H15   S    
C1    C4    S    
C3    C27   A    
C17   C18   A    
C9    C15   A    
C22   O7    A    
C23   O8    A    
O3    Zn2   S    
C13   C14   A    
O8    Zn1   S    
C5    C9    S    
C20   H9    S    
C1    O3    A    
C26   H12   S    
C17   H6    S    
C2    C27   A    
C28   H14   S    
C3    C28   A    
C12   O4    A    
C13   H3    S    
C22   O5    A    
C19   H8    S    
C23   C25   S    
O6    Zn2   S    
C5    N2    A    
C22   C24   S    
C10   C11   A    
C6    C16   S    
O4    Zn1   S    
O2    Zn2   S    
C6    N1    A    
O1    Zn1   S    
C20   C21   A    
C23   O6    A    
C18   C19   A    
C18   H7    S    
O7    Zn2   S    
C5    C7    A    
O5    Zn1   S    
C24   H1    S    
C16   C17   A    
C6    C8    A    
C3    C12   S    
C7    H16   S    
C14   C15   A    
C1    O1    A    
C15   H5    S    
C25   H11   S    
C21   H10   S    
C8    H17   S    
C11   H2    S    
C14   H4    S    
C12   O2    A    
C7    N1    A    
