data_mof_unit_62791.cif
_audit_creation_date              2012-12-10T19:02:16-0500
_audit_creation_method            fapswitch 2.2
_symmetry_space_group_name_H-M    P1
_symmetry_Int_Tables_number       1
_space_group_crystal_system       triclinic
_cell_length_a                    13.367926
_cell_length_b                    14.258361
_cell_length_c                    16.867969
_cell_angle_alpha                 90.023188
_cell_angle_beta                  84.840023
_cell_angle_gamma                 89.962557
_cell_volume                      3202.08402672

loop_
_atom_site_label
_atom_site_type_symbol
_atom_type_description
_atom_site_fract_x
_atom_site_fract_y
_atom_site_fract_z
_atom_type_partial_charge
C1    C     C_R   0.500020 0.673447 0.499555 0.919281
C2    C     C_1   0.169421 0.500000 0.499972 0.072717
C3    C     C_1   0.950474 0.500018 0.500004 -0.040819
C4    C     C_1   0.049526 0.500009 0.499984 -0.041043
C5    C     C_R   0.486406 0.502611 0.655398 0.906475
C6    C     C_R   0.513583 0.496046 0.344681 0.911049
C7    C     C_R   0.475244 0.531740 0.738215 -0.144212
C8    C     C_R   0.523818 0.499786 0.258425 -0.152967
C9    C     C_R   0.532548 0.606866 0.765919 0.150889
C10   C     C_R   0.455390 0.452919 0.212873 0.137835
C11   C     C_R   0.517249 0.630768 0.846521 -0.157573
C12   C     C_R   0.500034 0.326543 0.499928 0.922349
C13   C     C_R   0.464492 0.467812 0.130678 -0.162098
C14   C     C_R   0.447760 0.581892 0.897543 -0.021498
C15   C     C_R   0.539065 0.526948 0.095150 -0.003450
C16   C     C_R   0.385531 0.513326 0.868672 0.476380
C17   C     C_R   0.610554 0.568122 0.139578 0.460926
C18   C     C_R   0.399416 0.489096 0.788258 -0.327011
C19   C     C_R   0.602497 0.553845 0.221719 -0.322089
C20   C     C_2   0.457425 0.586214 0.983016 0.387927
C21   C     C_2   0.539188 0.546411 0.010140 0.414375
C22   C     C_3   0.608344 0.659689 0.709372 -0.357567
C23   C     C_1   0.499966 0.774082 0.500006 -0.226026
C24   C     C_3   0.654365 0.747903 0.742826 -0.880198
C25   C     C_3   0.374453 0.388786 0.252788 -0.374342
C26   C     C_3   0.320524 0.325519 0.196979 -0.861131
C27   C     C_1   0.500067 0.225895 0.500040 -0.225892
C28   C     C_1   0.500000 0.858643 0.500272 0.002631
C29   C     C_1   0.500074 0.141326 0.500174 -0.001276
C30   C     C_1   0.500046 0.957700 0.500377 0.014486
C31   C     C_1   0.500067 0.042264 0.500326 0.014085
C32   C     C_1   0.830579 0.500016 0.500022 0.072066
H1    H     H_    0.655155 0.588079 0.257533 0.158874
H2    H     H_    0.273331 0.367930 0.159564 0.273986
H3    H     H_    0.375700 0.283430 0.158722 0.263493
H4    H     H_    0.270296 0.276516 0.232869 0.255736
H5    H     H_    0.409699 0.341969 0.295068 0.197256
H6    H     H_    0.316973 0.432327 0.287332 0.231961
H7    H     H_    0.667716 0.483779 0.988249 0.355732
H8    H     H_    0.326188 0.643077 0.003599 0.355143
H9    H     H_    0.280364 0.420240 0.891023 0.334785
H10   H     H_    0.728040 0.648124 0.142252 0.335908
H11   H     H_    0.353755 0.434402 0.765153 0.148112
H12   H     H_    0.412668 0.435699 0.093139 0.195637
H13   H     H_    0.563231 0.683097 0.872134 0.177933
H14   H     H_    0.594519 0.797615 0.765631 0.261913
H15   H     H_    0.702528 0.729333 0.790811 0.273306
H16   H     H_    0.702323 0.783409 0.694699 0.258251
H17   H     H_    0.670847 0.611579 0.689045 0.231897
H18   H     H_    0.570144 0.682046 0.656759 0.200665
N1    N     N_1   0.738130 0.500000 0.500020 -0.065822
N2    N     N_1   0.261870 0.500000 0.499980 -0.065009
O1    O     O_R   0.423530 0.626280 0.499990 -0.585367
O2    O     O_3   0.379128 0.618027 0.035381 -0.763472
O3    O     O_3   0.316984 0.466996 0.920952 -0.769291
O4    O     O_3   0.684344 0.624544 0.102124 -0.757078
O5    O     O_R   0.576470 0.373720 0.500010 -0.589344
O6    O     O_R   0.576470 0.626280 0.500010 -0.603311
O7    O     O_R   0.423530 0.373720 0.499990 -0.599929
O8    O     O_R   0.414510 0.500000 0.615790 -0.600125
O9    O     O_R   0.585490 0.500000 0.384210 -0.603163
O10   O     O_R   0.567420 0.500000 0.615810 -0.617983
O11   O     O_R   0.432580 0.500000 0.384190 -0.616142
O12   O     O_3   0.617960 0.515887 0.957456 -0.772261
Zn1   Zn    Zn3+2 0.397910 0.500000 0.499990 0.969089
Zn2   Zn    Zn3+2 0.602090 0.500000 0.500010 0.964339

loop_
_geom_bond_atom_site_label_1
_geom_bond_atom_site_label_2
_ccdc_geom_bond_type
C6    O11   A    
O8    Zn1   S    
C2    C4    S    
O11   Zn1   S    
C32   N1    T    
C15   C17   A    
C25   H6    S    
C27   C29   T    
O1    Zn1   S    
O5    Zn2   S    
C22   H18   S    
C7    C18   A    
C24   H14   S    
C22   C24   S    
C28   C30   S    
C16   O3    S    
C5    C7    S    
C29   C31   S    
C18   H11   S    
O7    Zn1   S    
H10   O4    S    
H7    O12   S    
C9    C11   A    
C17   O4    S    
C3    C32   S    
C2    N2    T    
C22   H17   S    
C12   O5    A    
C6    O9    A    
C20   O2    S    
C17   C19   A    
C26   H2    S    
C5    O10   A    
C1    C23   S    
C12   O7    A    
H8    O2    S    
C13   C15   A    
C13   H12   S    
C30   C31   T    
C11   C14   A    
C14   C16   A    
C9    C22   S    
C11   H13   S    
C8    C19   A    
O10   Zn2   S    
C12   C27   S    
C3    C4    T    
C24   H16   S    
C14   C20   S    
C26   H3    S    
C15   C21   S    
C1    O6    A    
N1    Zn2   S    
C20   C21   D    
C10   C25   S    
C16   C18   A    
C19   H1    S    
C26   H4    S    
C7    C9    A    
C1    O1    A    
H9    O3    S    
C21   O12   S    
C6    C8    S    
C5    O8    A    
C25   H5    S    
C25   C26   S    
C23   C28   T    
C24   H15   S    
O9    Zn2   S    
O6    Zn2   S    
C8    C10   A    
N2    Zn1   S    
C10   C13   A    
