data_mof_unit_60848.cif
_audit_creation_date              2012-12-11T17:15:12-0500
_audit_creation_method            fapswitch 2.2
_symmetry_space_group_name_H-M    P1
_symmetry_Int_Tables_number       1
_space_group_crystal_system       triclinic
_cell_length_a                    18.994269
_cell_length_b                    19.773598
_cell_length_c                    19.936874
_cell_angle_alpha                 111.703492
_cell_angle_beta                  107.114886
_cell_angle_gamma                 108.678128
_cell_volume                      5821.27406452

loop_
_atom_site_label
_atom_site_type_symbol
_atom_type_description
_atom_site_fract_x
_atom_site_fract_y
_atom_site_fract_z
_atom_type_partial_charge
C1    C     C_R   0.993269 0.727357 0.070404 -0.236709
C2    C     C_R   0.156221 0.727271 0.227621 -0.140229
C3    C     C_R   0.968022 0.432540 0.167691 -0.131970
C4    C     C_R   0.835003 0.301955 0.764453 -0.115215
C5    C     C_R   0.239825 0.569096 0.017345 0.749807
C6    C     C_R   0.019633 0.502850 0.244414 0.089306
C7    C     C_R   0.250932 0.500269 0.986530 -0.110405
C8    C     C_R   0.230609 0.772675 0.231104 0.043282
C9    C     C_R   0.003151 0.252567 0.993533 0.036723
C10   C     C_1   0.673479 0.501509 0.010620 -0.038993
C11   C     C_1   0.608909 0.501574 0.006900 0.010931
C12   C     C_R   0.755002 0.275185 0.756748 0.086257
C13   C     C_1   0.532969 0.501417 0.001768 0.008180
C14   C     C_1   0.468094 0.501166 0.997256 0.002977
C15   C     C_1   0.392134 0.500811 0.992332 0.011497
C16   C     C_R   0.067408 0.568322 0.840356 0.770174
C17   C     C_1   0.327529 0.500525 0.988965 0.070870
C18   C     C_R   0.473181 0.052680 0.399586 0.036373
C19   C     C_R   0.398788 0.012734 0.402174 0.104273
C20   C     C_R   0.392833 0.045360 0.474376 -0.176372
C21   C     C_R   0.463331 0.112724 0.546075 -0.164767
C22   C     C_R   0.539493 0.147381 0.545253 0.156058
C23   C     C_R   0.041013 0.499098 0.767521 -0.134041
C24   C     C_R   0.543704 0.120320 0.471790 -0.221791
C25   C     C_1   0.335997 0.930069 0.338253 -0.036796
C26   C     C_1   0.615462 0.197454 0.620418 -0.047777
C27   C     C_1   0.679260 0.234114 0.682997 -0.033155
C28   C     C_R   0.760657 0.431495 0.985007 -0.132742
C29   C     C_1   0.286965 0.858540 0.288269 -0.006632
C30   C     C_R   0.147970 0.576875 0.599837 -0.141523
C31   C     C_R   0.110139 0.500737 0.595177 0.151311
C32   C     C_R   0.075460 0.425872 0.522397 -0.169915
C33   C     C_R   0.072229 0.427088 0.452204 -0.157897
C34   C     C_R   0.749992 0.501087 0.013672 0.085798
C35   C     C_R   0.103638 0.503151 0.455336 0.166274
C36   C     C_R   0.144689 0.578091 0.529634 -0.175355
C37   C     C_1   0.091058 0.499417 0.658651 -0.054526
C38   C     C_1   0.079037 0.503955 0.381142 -0.058680
C39   C     C_1   0.053052 0.503919 0.318749 -0.028921
C40   C     C_R   0.000902 0.430324 0.771833 -0.264010
C41   C     C_1   0.069444 0.498873 0.709103 0.090076
C42   C     C_R   0.064499 0.113408 0.137423 -0.343917
C43   C     C_R   0.098427 0.136331 0.090934 0.012210
C44   C     C_R   0.150480 0.106454 0.068029 0.056059
C45   C     C_R   0.036704 0.571328 0.235736 -0.121354
C46   C     C_R   0.159364 0.045610 0.083429 -0.286279
C47   C     C_R   0.116397 0.015337 0.120821 -0.095210
C48   C     C_R   0.073339 0.052571 0.152390 0.776003
C49   C     C_1   0.066801 0.177783 0.055594 0.017973
C50   C     C_1   0.094806 0.932994 0.103340 0.090638
C51   C     C_1   0.069617 0.860723 0.079339 0.085518
C52   C     C_R   0.828138 0.570172 0.051249 -0.109867
C53   C     C_1   0.036960 0.210188 0.024992 -0.025965
C54   C     C_R   0.762013 0.300088 0.833973 -0.122951
C55   C     C_R   0.065927 0.728046 0.001609 0.760460
C56   C     C_R   0.172390 0.430926 0.946942 -0.258003
C57   C     C_R   0.037160 0.773871 0.045205 -0.144892
C58   C     C_1   0.886171 0.239696 0.028978 0.015401
C59   C     C_1   0.480607 0.020813 0.325554 0.073757
C60   C     C_1   0.187989 0.131030 0.021839 0.082658
C61   C     C_R   0.228523 0.727355 0.158253 -0.046972
C62   C     C_R   0.953742 0.283745 0.017204 0.050802
C63   C     C_R   0.032551 0.289929 0.954237 -0.134648
F1    F     F_    0.297256 0.648675 0.048294 -0.698996
F2    F     F_    0.031061 0.022751 0.188125 -0.696905
F3    F     F_    0.127865 0.645738 0.868782 -0.633475
F4    F     F_    0.131161 0.760539 0.988139 -0.644011
H1    H     H_    0.975045 0.750019 0.117172 0.156508
H2    H     H_    0.460215 0.133166 0.603103 0.127234
H3    H     H_    0.168145 0.637055 0.531994 0.128576
H4    H     H_    0.173830 0.634927 0.655878 0.145166
H5    H     H_    0.045084 0.366824 0.518367 0.128197
H6    H     H_    0.039502 0.368952 0.394504 0.129480
H7    H     H_    0.024691 0.136812 0.155408 0.173180
H8    H     H_    0.192188 0.015865 0.058765 0.179869
H9    H     H_    0.714731 0.368562 0.961897 0.102038
H10   H     H_    0.985436 0.367386 0.731348 0.148529
H11   H     H_    0.844362 0.634574 0.086371 0.109187
H12   H     H_    0.156586 0.367556 0.908039 0.146465
H13   H     H_    0.710857 0.287168 0.848711 0.102667
H14   H     H_    0.074834 0.635850 0.283794 0.104709
H15   H     H_    0.269488 0.751185 0.135410 0.197657
H16   H     H_    0.070462 0.277266 0.925481 0.112700
H17   H     H_    0.131180 0.750493 0.267776 0.107111
H18   H     H_    0.942211 0.370101 0.155639 0.119139
H19   H     H_    0.603280 0.147536 0.471922 0.131960
H20   H     H_    0.335915 0.014393 0.476811 0.133154
H21   H     H_    0.852064 0.292770 0.715942 0.107775
N1    N     N_R   0.996070 0.655850 0.042990 -0.080729
N2    N     N_R   0.043260 0.542980 0.887390 -0.126010
N3    N     N_R   0.841360 0.457030 0.000110 -0.043296
N4    N     N_R   0.001470 0.457070 0.844510 -0.075178
N5    N     N_R   0.883150 0.542930 0.042990 -0.042335
N6    N     N_R   0.844430 0.344140 0.887390 -0.044995
N7    N     N_R   0.040190 0.655860 0.000110 -0.121985
N8    N     N_R   0.998530 0.542930 0.155490 -0.043607
N9    N     N_1   0.831737 0.204003 0.038132 -0.076688
N10   N     N_1   0.486502 0.995237 0.266223 -0.052248
N11   N     N_1   0.218010 0.150742 0.984835 -0.081559
N12   N     N_R   0.116850 0.457070 0.957010 -0.072478
N13   N     N_R   0.155570 0.655860 0.112610 -0.061285
N14   N     N_R   0.959810 0.344140 0.999890 -0.061972
N15   N     N_R   0.003930 0.344150 0.957010 -0.045562
N16   N     N_R   0.111450 0.655840 0.155490 -0.050743
N17   N     N_R   0.956740 0.457020 0.112610 -0.045121
N18   N     N_R   0.158640 0.542970 0.999890 -0.117006
N19   N     N_R   0.888550 0.344160 0.844510 -0.039769
Ni1   Ni    Ni4+2 0.997320 0.598490 0.098350 0.200706
Ni2   Ni    Ni4+2 0.002680 0.401510 0.901650 0.200027
Ni3   Ni    Ni4+2 0.098520 0.598520 0.000000 0.318989
Ni4   Ni    Ni4+2 0.901480 0.401480 0.000000 0.221764

loop_
_geom_bond_atom_site_label_1
_geom_bond_atom_site_label_2
_ccdc_geom_bond_type
C58   C62   S    
N8    N17   A    
C16   N2    A    
C6    C45   A    
C3    H18   S    
C2    H17   S    
C19   C20   A    
C60   N11   T    
C30   H4    S    
C32   H5    S    
C3    N17   A    
C26   C27   T    
C56   H12   S    
C18   C24   A    
C8    C29   S    
C61   H15   S    
N5    Ni1   S    
C30   C31   A    
N4    Ni2   S    
C23   C40   A    
C20   H20   S    
N6    Ni4   S    
C1    H1    S    
C18   C19   A    
N3    Ni4   S    
C31   C32   A    
C44   C46   A    
C7    C17   S    
C51   C57   S    
C48   F2    S    
C4    C12   A    
C63   N15   A    
C8    C61   A    
C3    C6    A    
N8    Ni1   S    
C28   C34   A    
N12   Ni2   S    
C21   C22   A    
N19   Ni2   S    
N14   Ni4   S    
C58   N9    T    
C7    C56   A    
C52   H11   S    
C46   H8    S    
C36   H3    S    
C47   C50   S    
C54   H13   S    
C5    N18   A    
C25   C29   T    
N17   Ni4   S    
C4    N19   A    
C45   H14   S    
N6    N19   A    
C42   H7    S    
C12   C27   S    
C9    C62   A    
C35   C38   S    
C55   N7    A    
C5    C7    A    
C43   C49   S    
N13   Ni3   S    
C31   C37   S    
C5    F1    S    
C63   H16   S    
C35   C36   A    
N1    N7    A    
C61   N13   A    
C43   C44   A    
C1    C57   A    
N3    N5    A    
N2    N4    A    
C47   C48   A    
C2    N16   A    
C6    C39   S    
C50   C51   T    
C52   N5    A    
C10   C34   S    
C42   C48   A    
C40   N4    A    
C33   H6    S    
C16   C23   A    
C55   C57   A    
C22   C24   A    
C16   F3    S    
C42   C43   A    
N2    Ni3   S    
C28   H9    S    
N16   Ni1   S    
N18   Ni3   S    
C15   C17   T    
C46   C47   A    
C1    N1    A    
C9    C63   A    
C34   C52   A    
C2    C8    A    
N7    Ni3   S    
C55   F4    S    
C4    H21   S    
N13   N16   A    
N12   N18   A    
C23   C41   S    
C30   C36   A    
N15   Ni2   S    
C32   C33   A    
C11   C13   S    
C38   C39   T    
C44   C60   S    
C49   C53   T    
N1    Ni1   S    
C33   C35   A    
C28   N3    A    
C40   H10   S    
C37   C41   T    
N14   N15   A    
C19   C25   S    
C54   N6    A    
C10   C11   T    
C18   C59   S    
C9    C53   S    
C20   C21   A    
C22   C26   S    
C21   H2    S    
C59   N10   T    
C56   N12   A    
C14   C15   S    
C13   C14   T    
C45   N8    A    
C24   H19   S    
C12   C54   A    
C62   N14   A    
