data_mof_unit_42124.cif
_audit_creation_date              2013-03-05T15:42:28-0500
_audit_creation_method            fapswitch 2.2
_symmetry_space_group_name_H-M    P1
_symmetry_Int_Tables_number       1
_space_group_crystal_system       triclinic
_cell_length_a                    7.824808
_cell_length_b                    8.57027
_cell_length_c                    23.24438
_cell_angle_alpha                 91.946874
_cell_angle_beta                  85.351061
_cell_angle_gamma                 93.813687
_cell_volume                      1549.57564886

loop_
_atom_site_label
_atom_site_type_symbol
_atom_site_description
_atom_site_fract_x
_atom_site_fract_y
_atom_site_fract_z
_atom_type_partial_charge
O1    O     O_R   0.389250 0.738570 0.503790 -0.631589
O2    O     O_R   0.610750 0.261430 0.496210 -0.637598
O3    O     O_R   0.678390 0.711620 0.493890 -0.568885
O4    O     O_R   0.321610 0.288380 0.506110 -0.567091
C1    C     C_R   0.545650 0.794521 0.498596 0.946012
C2    C     C_R   0.454347 0.205482 0.501408 0.944338
O5    O     O_R   0.355400 0.513520 0.588790 -0.654898
O6    O     O_R   0.644600 0.486480 0.411210 -0.649983
O7    O     O_R   0.644550 0.486570 0.578900 -0.589409
O8    O     O_R   0.355450 0.513430 0.421100 -0.595200
C3    C     C_R   0.502040 0.499305 0.610767 0.862217
C4    C     C_R   0.500179 0.502464 0.389363 0.849565
Zn1   Zn    Zn3+2 0.306930 0.518000 0.506610 1.035663
Zn2   Zn    Zn3+2 0.693070 0.482000 0.493390 1.032156
C5    C     C_R   0.622387 0.384778 0.119733 0.578766
C6    C     C_R   0.655515 0.605024 0.873166 0.569870
N1    N     N_R   0.615327 0.530704 0.145686 -0.358560
N2    N     N_R   0.600838 0.464068 0.849200 -0.356931
C7    C     C_R   0.631076 0.662914 0.113538 0.465846
C8    C     C_R   0.572041 0.332419 0.881238 0.463247
C9    C     C_R   0.658351 0.650380 0.053385 -0.012396
C10   C     C_R   0.596343 0.340163 0.940191 -0.012243
C11   C     C_R   0.640932 0.501332 0.026522 -0.022993
C12   C     C_R   0.637286 0.487133 0.966291 -0.023450
C13   C     C_R   0.620110 0.367044 0.059943 -0.030280
C14   C     C_R   0.667825 0.620920 0.932645 -0.037490
C15   C     C_R   0.694696 0.782548 0.019478 -0.164041
C16   C     C_R   0.573554 0.206635 0.974010 -0.167568
C17   C     C_R   0.703139 0.767546 0.959443 -0.153274
C18   C     C_R   0.589036 0.219713 0.033304 -0.153830
O9    O     O_2   0.625549 0.257056 0.151999 -0.487391
O10   O     O_2   0.693117 0.730075 0.839565 -0.497431
O11   O     O_2   0.615984 0.805181 0.139446 -0.521610
O12   O     O_2   0.517456 0.195659 0.856222 -0.525730
H1    H     H_    0.717449 0.897136 0.039257 0.183469
H2    H     H_    0.541471 0.092499 0.954961 0.195006
H3    H     H_    0.730349 0.871620 0.934300 0.195398
H4    H     H_    0.566590 0.115920 0.058719 0.204993
C19   C     C_R   0.665552 0.377410 0.748122 -0.032200
C20   C     C_R   0.686039 0.623958 0.243759 -0.028826
C21   C     C_R   0.633147 0.386348 0.690373 -0.174350
C22   C     C_R   0.647007 0.618609 0.303250 -0.180278
H5    H     H_    0.709844 0.321718 0.658004 0.210303
H6    H     H_    0.731472 0.682428 0.331868 0.203560
C23   C     C_R   0.511010 0.484384 0.673130 -0.226961
C24   C     C_R   0.509653 0.521653 0.326925 -0.222292
C25   C     C_R   0.410653 0.569030 0.714927 -0.146682
C26   C     C_R   0.400077 0.435596 0.290668 -0.152494
C27   C     C_R   0.428110 0.545613 0.773755 0.587984
C28   C     C_R   0.424241 0.457768 0.230751 0.602731
C29   C     C_R   0.562410 0.458209 0.789974 0.067487
C30   C     C_R   0.574180 0.541459 0.207076 0.052479
C31   C     C_2   0.569489 0.958213 0.497765 -0.370835
C32   C     C_2   0.430509 0.041790 0.502231 -0.368542
H7    H     H_    0.700737 0.009378 0.493495 0.197799
H8    H     H_    0.299264 0.990626 0.506495 0.198100
N3    N     N_2   0.950330 0.457950 0.484560 0.193824
N4    N     N_2   0.049670 0.542050 0.515440 0.192045
C33   C     C_2   0.812240 0.290117 0.763843 0.512359
H9    H     H_    0.848903 0.293231 0.807843 0.055266
O13   O     O_2   0.895677 0.214105 0.727555 -0.556978
C34   C     C_2   0.848501 0.708098 0.221171 0.501453
H10   H     H_    0.897761 0.691256 0.176630 0.053977
O14   O     O_2   0.931145 0.796654 0.252332 -0.543417
C35   C     C_2   0.305788 0.694989 0.697682 0.494405
H11   H     H_    0.342760 0.755307 0.657995 0.022426
O15   O     O_2   0.180097 0.735071 0.727741 -0.512579
C36   C     C_2   0.276719 0.310172 0.314356 0.458157
H12   H     H_    0.286454 0.270052 0.357582 0.057383
O16   O     O_2   0.166269 0.246645 0.285769 -0.503707
O17   O     O_3   0.331092 0.626549 0.815778 -0.546915
C37   C     C_3   0.190538 0.526549 0.836259 -0.197292
H13   H     H_    0.233635 0.423839 0.857828 0.152527
H14   H     H_    0.108930 0.487082 0.800837 0.167100
H15   H     H_    0.109589 0.592312 0.868770 0.194234
O18   O     O_3   0.314362 0.380202 0.194042 -0.538811
C38   C     C_3   0.188224 0.482178 0.182679 -0.214995
H16   H     H_    0.246142 0.588720 0.160680 0.153929
H17   H     H_    0.111614 0.514822 0.223165 0.173212
H18   H     H_    0.098992 0.420783 0.153419 0.193123
O19   O     O_3   0.024763 0.331901 0.460381 -0.542593
C39   C     C_3   0.944336 0.288874 0.409918 -0.114280
H19   H     H_    0.957082 0.386201 0.379075 0.160721
H20   H     H_    0.809150 0.247655 0.418605 0.182894
H21   H     H_    0.007132 0.186905 0.389311 0.166954
O20   O     O_3   0.972651 0.666606 0.539690 -0.536153
C40   C     C_3   0.045272 0.704974 0.591709 -0.089202
H22   H     H_    0.172910 0.766630 0.583468 0.157619
H23   H     H_    0.050023 0.600137 0.618385 0.158405
H24   H     H_    0.962474 0.787130 0.616939 0.171250

loop_
_geom_bond_atom_site_label_1
_geom_bond_atom_site_label_2
_geom_bond_distance
_ccdc_geom_bond_type
C19   C29   1.406621 A    
C40   H22   1.104106 S    
C15   C17   1.393644 A    
C31   H7    1.087825 S    
O19   C39   1.402603 S    
C25   C27   1.407618 A    
C31   C32   1.336694 D    
O5    C3    1.307760 A    
O1    C1    1.282231 A    
C1    C31   1.403462 S    
C7    C9    1.398786 A    
C12   C14   1.406286 A    
C5    C13   1.394357 A    
C35   O15   1.220953 D    
C20   C34   1.485695 S    
C18   H4    1.081304 S    
C22   C24   1.401720 A    
O4    Zn1   1.978454 S    
C34   O14   1.221518 D    
C36   H12   1.083023 S    
C27   C29   1.412691 A    
C28   C30   1.415633 A    
C11   C12   1.403609 A    
C38   H16   1.113417 S    
C8    O12   1.349691 S    
C38   H17   1.111860 S    
C9    C15   1.402345 A    
C33   H9    1.083394 S    
C10   C16   1.403781 A    
C21   H5    1.084322 S    
O2    C2    1.282248 A    
C22   H6    1.084860 S    
C2    C32   1.403450 S    
C37   H15   1.109464 S    
N4    O20   1.345390 S    
N1    C30   1.438377 S    
N2    C29   1.431272 S    
C24   C26   1.407168 A    
C23   C25   1.411043 A    
C6    C14   1.395090 A    
C32   H8    1.087801 S    
C33   O13   1.221499 D    
O18   C38   1.407288 S    
O4    C2    1.292267 A    
C7    O11   1.349421 S    
O20   C40   1.397333 S    
C37   H13   1.112114 S    
Zn1   N4    2.030312 S    
C15   H1    1.080195 S    
C20   C30   1.410948 A    
C4    C24   1.461529 S    
O7    Zn2   1.992664 S    
C34   H10   1.083443 S    
C28   O18   1.383311 S    
O6    C4    1.293083 A    
C19   C33   1.487111 S    
C26   C36   1.485384 S    
O7    C3    1.296476 A    
C16   H2    1.082508 S    
O3    Zn2   1.978453 S    
O8    C4    1.307506 A    
C37   H14   1.112503 S    
C8    C10   1.397396 A    
C35   H11   1.082188 S    
C39   H20   1.097740 S    
C9    C11   1.405922 A    
C10   C12   1.408241 A    
C3    C23   1.467265 S    
O1    Zn1   1.957603 S    
C38   H18   1.109393 S    
C13   C18   1.402609 A    
C5    N1    1.372422 A    
Zn2   N3    2.030311 S    
O6    Zn2   1.979551 S    
C20   C22   1.393406 A    
O3    C1    1.292302 A    
O8    Zn1   1.992664 S    
C5    O9    1.350432 S    
C6    O10   1.350148 S    
C39   H21   1.106840 S    
C40   H23   1.113185 S    
O17   C37   1.410019 S    
N3    N4    1.272672 D    
C26   C28   1.407877 A    
N1    C7    1.371666 A    
C16   C18   1.393394 A    
N2    C8    1.369093 A    
C11   C13   1.403523 A    
O2    Zn2   1.957604 S    
N3    O19   1.345915 S    
O5    Zn1   1.979551 S    
C19   C21   1.391670 A    
C14   C17   1.404282 A    
C6    N2    1.369994 A    
C39   H19   1.112498 S    
C27   O17   1.383977 S    
C40   H24   1.109262 S    
C17   H3    1.082787 S    
C36   O16   1.220991 D    
C21   C23   1.404188 A    
C25   C35   1.483193 S    
