data_mof_unit_64637.cif
_audit_creation_date              2013-03-05T16:37:05-0500
_audit_creation_method            fapswitch 2.2
_symmetry_space_group_name_H-M    P1
_symmetry_Int_Tables_number       1
_space_group_crystal_system       triclinic
_cell_length_a                    36.291719
_cell_length_b                    25.679109
_cell_length_c                    25.681846
_cell_angle_alpha                 89.998491
_cell_angle_beta                  90.042665
_cell_angle_gamma                 90.002545
_cell_volume                      23933.9074173

loop_
_atom_site_label
_atom_site_type_symbol
_atom_site_description
_atom_site_fract_x
_atom_site_fract_y
_atom_site_fract_z
_atom_type_partial_charge
Zn1   Zn    Zn3+2 0.719300 0.249980 0.438970 0.994184
Zn2   Zn    Zn3+2 0.280700 0.249980 0.438970 0.997025
Zn3   Zn    Zn3+2 0.280700 0.249980 0.561030 0.993824
Zn4   Zn    Zn3+2 0.719300 0.249980 0.561030 0.996877
Zn5   Zn    Zn3+2 0.219300 0.749980 0.938970 0.994222
Zn6   Zn    Zn3+2 0.780700 0.749980 0.938970 0.997051
Zn7   Zn    Zn3+2 0.780700 0.749980 0.061030 0.993847
Zn8   Zn    Zn3+2 0.219300 0.749980 0.061030 0.996860
Zn9   Zn    Zn3+2 0.780720 0.311020 0.500000 0.987200
Zn10  Zn    Zn3+2 0.219280 0.311020 0.500000 0.987134
Zn11  Zn    Zn3+2 0.280720 0.811020 0.000000 0.987173
Zn12  Zn    Zn3+2 0.719280 0.811020 0.000000 0.987147
Zn13  Zn    Zn3+2 0.780730 0.188950 0.500000 0.979757
Zn14  Zn    Zn3+2 0.219270 0.188950 0.500000 0.979779
Zn15  Zn    Zn3+2 0.280730 0.688950 0.000000 0.979725
Zn16  Zn    Zn3+2 0.719270 0.688950 0.000000 0.979743
O1    O     O_3   0.750020 0.249980 0.500000 -0.486513
O2    O     O_3   0.249980 0.249980 0.500000 -0.486475
O3    O     O_3   0.250020 0.749980 0.000000 -0.486506
O4    O     O_3   0.749980 0.749980 0.000000 -0.486481
O5    O     O_R   0.728520 0.310110 0.602800 -0.627644
O6    O     O_R   0.271480 0.310110 0.602800 -0.628718
O7    O     O_R   0.271480 0.310110 0.397200 -0.627593
O8    O     O_R   0.728520 0.310110 0.397200 -0.628578
O9    O     O_R   0.228520 0.810110 0.102800 -0.627643
O10   O     O_R   0.771480 0.810110 0.102800 -0.628677
O11   O     O_R   0.771480 0.810110 0.897200 -0.627577
O12   O     O_R   0.228520 0.810110 0.897200 -0.628525
O13   O     O_R   0.728520 0.189860 0.397190 -0.638420
O14   O     O_R   0.271480 0.189860 0.397190 -0.638553
O15   O     O_R   0.271480 0.189860 0.602810 -0.638467
O16   O     O_R   0.728520 0.189860 0.602810 -0.638607
O17   O     O_R   0.228520 0.689860 0.897190 -0.638470
O18   O     O_R   0.771480 0.689860 0.897190 -0.638566
O19   O     O_R   0.771480 0.689860 0.102810 -0.638421
O20   O     O_R   0.228520 0.689860 0.102810 -0.638603
O21   O     O_R   0.771490 0.352810 0.439870 -0.636665
O22   O     O_R   0.228510 0.352810 0.439870 -0.637072
O23   O     O_R   0.228510 0.352810 0.560130 -0.636669
O24   O     O_R   0.771490 0.352810 0.560130 -0.637021
O25   O     O_R   0.271490 0.852810 0.939870 -0.636735
O26   O     O_R   0.728510 0.852810 0.939870 -0.637088
O27   O     O_R   0.728510 0.852810 0.060130 -0.636656
O28   O     O_R   0.271490 0.852810 0.060130 -0.637047
O29   O     O_R   0.771530 0.147160 0.560090 -0.635435
O30   O     O_R   0.228470 0.147160 0.560090 -0.635287
O31   O     O_R   0.228470 0.147160 0.439910 -0.635486
O32   O     O_R   0.771530 0.147160 0.439910 -0.635336
O33   O     O_R   0.271530 0.647160 0.060090 -0.635473
O34   O     O_R   0.728470 0.647160 0.060090 -0.635347
O35   O     O_R   0.728470 0.647160 0.939910 -0.635416
O36   O     O_R   0.271530 0.647160 0.939910 -0.635305
O37   O     O_R   0.832000 0.292700 0.500000 -0.638854
O38   O     O_R   0.168000 0.292700 0.500000 -0.638802
O39   O     O_R   0.332000 0.792700 0.000000 -0.638815
O40   O     O_R   0.668000 0.792700 0.000000 -0.638779
O41   O     O_R   0.668030 0.249990 0.542720 -0.628310
O42   O     O_R   0.331970 0.249990 0.542720 -0.635021
O43   O     O_R   0.331970 0.249990 0.457280 -0.628001
O44   O     O_R   0.668030 0.249990 0.457280 -0.634713
O45   O     O_R   0.168030 0.749990 0.042720 -0.628328
O46   O     O_R   0.831970 0.749990 0.042720 -0.635054
O47   O     O_R   0.831970 0.749990 0.957280 -0.627986
O48   O     O_R   0.168030 0.749990 0.957280 -0.634659
O49   O     O_R   0.832010 0.207260 0.500000 -0.635231
O50   O     O_R   0.167990 0.207260 0.500000 -0.635251
O51   O     O_R   0.332010 0.707260 0.000000 -0.635253
O52   O     O_R   0.667990 0.707260 0.000000 -0.635312
C1    C     C_R   0.750003 0.349071 0.599065 0.835569
C2    C     C_R   0.250005 0.349066 0.599079 0.835671
C3    C     C_R   0.249997 0.349070 0.400935 0.835492
C4    C     C_R   0.749995 0.349067 0.400921 0.835756
C5    C     C_R   0.250003 0.849071 0.099065 0.835561
C6    C     C_R   0.750005 0.849066 0.099079 0.835690
C7    C     C_R   0.749997 0.849070 0.900935 0.835492
C8    C     C_R   0.249995 0.849067 0.900921 0.835751
C9    C     C_R   0.750023 0.150909 0.400946 0.822596
C10   C     C_R   0.249969 0.150905 0.400960 0.821896
C11   C     C_R   0.249977 0.150909 0.599053 0.822668
C12   C     C_R   0.750031 0.150906 0.599039 0.821898
C13   C     C_R   0.250022 0.650909 0.900946 0.822585
C14   C     C_R   0.749969 0.650905 0.900960 0.821935
C15   C     C_R   0.749977 0.650909 0.099053 0.822652
C16   C     C_R   0.250031 0.650906 0.099039 0.821877
C17   C     C_R   0.849557 0.249985 0.499999 0.829787
C18   C     C_R   0.150442 0.249983 0.500001 0.829813
C19   C     C_R   0.349558 0.749985 0.999999 0.829804
C20   C     C_R   0.650442 0.749983 0.000001 0.829788
C21   C     C_R   0.650404 0.249927 0.499977 0.835327
C22   C     C_R   0.349597 0.249937 0.500024 0.835136
C23   C     C_R   0.150404 0.749927 0.999977 0.835349
C24   C     C_R   0.849597 0.749937 0.000024 0.835116
C25   C     C_3   0.521742 0.227860 0.550278 -0.095930
C26   C     C_3   0.478402 0.225007 0.548136 -0.055281
C27   C     C_3   0.478207 0.227355 0.450162 -0.096103
C28   C     C_3   0.521538 0.224446 0.452357 -0.055956
C29   C     C_3   0.021742 0.727858 0.050278 -0.095892
C30   C     C_3   0.978402 0.725006 0.048135 -0.055214
C31   C     C_3   0.978207 0.727356 0.950161 -0.096144
C32   C     C_3   0.021538 0.724446 0.952357 -0.056018
H1    H     H_    0.472390 0.183530 0.538334 0.130398
H2    H     H_    0.531431 0.186742 0.546948 0.142776
H3    H     H_    0.527537 0.183089 0.462647 0.130645
H4    H     H_    0.468490 0.186281 0.453839 0.143034
H5    H     H_    0.972390 0.683529 0.038333 0.130361
H6    H     H_    0.031431 0.686741 0.046946 0.142752
H7    H     H_    0.027537 0.683089 0.962646 0.130640
H8    H     H_    0.968490 0.686281 0.953838 0.143026
C33   C     C_1   0.389057 0.251643 0.500073 -0.100229
C34   C     C_1   0.610941 0.251598 0.499946 -0.100254
C35   C     C_1   0.889057 0.751643 0.000073 -0.100250
C36   C     C_1   0.110940 0.751598 0.999946 -0.100229
C37   C     C_3   0.536931 0.257084 0.500437 -0.011253
C38   C     C_3   0.463055 0.257172 0.499675 -0.011444
C39   C     C_3   0.036931 0.757084 0.000437 -0.011239
C40   C     C_3   0.963055 0.757171 0.999676 -0.011422
C41   C     C_3   0.477447 0.316491 0.501312 0.348381
C42   C     C_3   0.522616 0.316379 0.498187 0.349057
C43   C     C_3   0.977447 0.816491 0.001313 0.348359
C44   C     C_3   0.022616 0.816379 0.998189 0.348982
C45   C     C_1   0.422239 0.253871 0.499982 0.067744
C46   C     C_1   0.577753 0.253805 0.500100 0.069107
C47   C     C_1   0.922238 0.753870 0.999983 0.067725
C48   C     C_1   0.077753 0.753805 0.000101 0.069092
H9    H     H_    0.708050 0.075913 0.241889 0.144857
H10   H     H_    0.292229 0.075640 0.242314 0.144855
H11   H     H_    0.291736 0.076131 0.758320 0.144787
H12   H     H_    0.707809 0.075675 0.757726 0.144839
H13   H     H_    0.207989 0.575852 0.741949 0.144812
H14   H     H_    0.792171 0.575700 0.742254 0.144875
H15   H     H_    0.796326 0.571476 0.253685 0.144177
H16   H     H_    0.207773 0.575637 0.257688 0.144826
C49   C     C_R   0.226396 0.504310 0.707138 -0.174477
C50   C     C_R   0.773707 0.504239 0.707295 -0.174492
C51   C     C_R   0.776013 0.501831 0.290409 -0.175037
C52   C     C_R   0.226262 0.504202 0.292674 -0.174574
C53   C     C_R   0.726430 0.004345 0.207104 -0.174427
C54   C     C_R   0.273739 0.004206 0.207328 -0.174549
C55   C     C_R   0.273450 0.004467 0.793015 -0.174458
C56   C     C_R   0.726283 0.004223 0.792695 -0.174561
H17   H     H_    0.208006 0.507979 0.674091 0.144971
H18   H     H_    0.792179 0.507851 0.674371 0.145004
H19   H     H_    0.796312 0.503612 0.321534 0.144380
H20   H     H_    0.207766 0.507785 0.325573 0.144959
H21   H     H_    0.708066 0.008039 0.174030 0.145011
H22   H     H_    0.292238 0.007791 0.174431 0.144973
H23   H     H_    0.291720 0.008257 0.826181 0.144975
H24   H     H_    0.707802 0.007822 0.825610 0.144961
C57   C     C_R   0.250041 0.461386 0.711417 0.158631
C58   C     C_R   0.749970 0.461401 0.711400 0.158506
C59   C     C_R   0.749960 0.461405 0.288564 0.159163
C60   C     C_R   0.250031 0.461400 0.288599 0.158522
C61   C     C_R   0.750042 0.961387 0.211417 0.158602
C62   C     C_R   0.249970 0.961401 0.211400 0.158531
C63   C     C_R   0.249959 0.961387 0.788583 0.158623
C64   C     C_R   0.750031 0.961400 0.788599 0.158504
C65   C     C_R   0.273680 0.457147 0.754373 -0.166220
C66   C     C_R   0.726226 0.457235 0.754197 -0.165985
C67   C     C_R   0.723914 0.459600 0.248107 -0.165559
C68   C     C_R   0.273806 0.457271 0.245835 -0.165955
C69   C     C_R   0.773646 0.957113 0.254406 -0.166170
C70   C     C_R   0.226193 0.957269 0.254164 -0.166008
C71   C     C_R   0.226475 0.956990 0.745476 -0.166130
C72   C     C_R   0.773785 0.957250 0.745813 -0.165907
H25   H     H_    0.292076 0.424124 0.758075 0.149648
H26   H     H_    0.707758 0.424280 0.757765 0.149816
H27   H     H_    0.703609 0.428501 0.246291 0.150335
H28   H     H_    0.292299 0.424343 0.242292 0.149857
H29   H     H_    0.792017 0.924064 0.258134 0.149675
H30   H     H_    0.207699 0.924340 0.257705 0.149803
H31   H     H_    0.208198 0.923846 0.741656 0.149701
H32   H     H_    0.792262 0.924306 0.742254 0.149882
C73   C     C_R   0.773637 0.995634 0.292919 -0.172517
C74   C     C_R   0.226188 0.995776 0.292691 -0.172647
C75   C     C_R   0.226483 0.995511 0.706962 -0.172494
C76   C     C_R   0.773789 0.995758 0.707286 -0.172572
C77   C     C_R   0.273671 0.495667 0.792886 -0.172511
C78   C     C_R   0.726221 0.495742 0.792725 -0.172556
C79   C     C_R   0.723921 0.498147 0.209567 -0.172454
C80   C     C_R   0.273810 0.495779 0.207307 -0.172644
H33   H     H_    0.792000 0.991938 0.325994 0.146998
H34   H     H_    0.207691 0.992190 0.325590 0.146983
H35   H     H_    0.208214 0.991720 0.673794 0.147014
H36   H     H_    0.792269 0.992158 0.674369 0.147040
H37   H     H_    0.292060 0.491998 0.825934 0.147000
H38   H     H_    0.707750 0.492130 0.825650 0.147034
H39   H     H_    0.703622 0.496365 0.178442 0.147020
H40   H     H_    0.292306 0.492196 0.174407 0.146994
C81   C     C_R   0.750025 0.038591 0.288607 0.158617
C82   C     C_R   0.249959 0.038580 0.288620 0.158611
C83   C     C_R   0.249975 0.038590 0.711392 0.158650
C84   C     C_R   0.750040 0.038580 0.711380 0.158596
C85   C     C_R   0.250024 0.538590 0.788607 0.158642
C86   C     C_R   0.749959 0.538579 0.788620 0.158579
C87   C     C_R   0.749974 0.538572 0.211412 0.159487
C88   C     C_R   0.250040 0.538580 0.211380 0.158622
C89   C     C_R   0.726421 0.042865 0.245617 -0.175062
C90   C     C_R   0.273734 0.042712 0.245855 -0.174998
C91   C     C_R   0.273458 0.042987 0.754501 -0.175140
C92   C     C_R   0.726287 0.042732 0.754167 -0.175000
C93   C     C_R   0.226387 0.542831 0.745651 -0.175137
C94   C     C_R   0.773702 0.542746 0.745822 -0.174980
C95   C     C_R   0.776020 0.540378 0.251870 -0.175289
C96   C     C_R   0.226267 0.542711 0.254146 -0.175024
C97   C     C_1   0.250040 0.421749 0.671790 -0.063501
C98   C     C_1   0.749983 0.421774 0.671760 -0.063264
C99   C     C_1   0.749961 0.421752 0.328210 -0.063296
C100  C     C_1   0.250018 0.421773 0.328239 -0.063294
C101  C     C_1   0.750041 0.921750 0.171790 -0.063434
C102  C     C_1   0.249983 0.921774 0.171760 -0.063309
C103  C     C_1   0.249961 0.921751 0.828211 -0.063411
C104  C     C_1   0.750018 0.921773 0.828239 -0.063269
C105  C     C_1   0.750018 0.078224 0.328238 -0.070461
C106  C     C_1   0.249954 0.078201 0.328265 -0.070492
C107  C     C_1   0.249981 0.078222 0.671761 -0.070500
C108  C     C_1   0.750044 0.078203 0.671735 -0.070463
C109  C     C_1   0.250018 0.578223 0.828238 -0.070498
C110  C     C_1   0.749955 0.578201 0.828265 -0.070421
C111  C     C_1   0.749981 0.578221 0.171762 -0.070374
C112  C     C_1   0.250044 0.578203 0.171735 -0.070518
C113  C     C_1   0.750018 0.111415 0.361438 -0.134011
C114  C     C_1   0.249955 0.111393 0.361467 -0.133732
C115  C     C_1   0.249980 0.111414 0.638561 -0.134080
C116  C     C_1   0.750043 0.111395 0.638534 -0.133684
C117  C     C_1   0.250018 0.611415 0.861438 -0.134040
C118  C     C_1   0.749955 0.611393 0.861467 -0.133660
C119  C     C_1   0.749980 0.611415 0.138560 -0.134242
C120  C     C_1   0.250043 0.611395 0.138534 -0.133738
C121  C     C_1   0.250028 0.388557 0.638591 -0.126765
C122  C     C_1   0.749996 0.388581 0.638560 -0.125958
C123  C     C_1   0.749973 0.388558 0.361411 -0.126732
C124  C     C_1   0.250005 0.388579 0.361439 -0.125927
C125  C     C_1   0.750028 0.888558 0.138591 -0.126691
C126  C     C_1   0.249996 0.888581 0.138560 -0.125999
C127  C     C_1   0.249973 0.888559 0.861411 -0.126622
C128  C     C_1   0.750005 0.888579 0.861439 -0.125916
H41   H     H_    0.966056 0.333936 0.502281 0.144256
H42   H     H_    0.033954 0.333934 0.502282 0.144273
H43   H     H_    0.466054 0.833929 0.997437 0.144284
H44   H     H_    0.533951 0.833926 0.997439 0.144287
C129  C     C_R   0.019240 0.297231 0.501284 -0.176921
C130  C     C_R   0.980765 0.297232 0.501283 -0.176954
C131  C     C_R   0.519239 0.797227 0.998559 -0.176899
C132  C     C_R   0.480764 0.797228 0.998558 -0.176913
C133  C     C_R   0.038486 0.249995 0.500000 0.160856
C134  C     C_R   0.961514 0.249998 0.499998 0.160859
C135  C     C_R   0.538486 0.749995 0.000002 0.160872
C136  C     C_R   0.461514 0.749997 0.000000 0.160865
C137  C     C_R   0.019234 0.202760 0.498715 -0.172482
C138  C     C_R   0.980760 0.202762 0.498714 -0.172473
C139  C     C_R   0.519236 0.702765 0.001444 -0.172557
C140  C     C_R   0.480761 0.702766 0.001443 -0.172511
H45   H     H_    0.033943 0.166059 0.497718 0.147320
H46   H     H_    0.966047 0.166062 0.497716 0.147322
H47   H     H_    0.533945 0.666066 0.002564 0.147264
H48   H     H_    0.466050 0.666069 0.002562 0.147291
C141  C     C_1   0.077972 0.249994 0.500001 -0.071957
C142  C     C_1   0.922028 0.249999 0.499998 -0.071979
C143  C     C_1   0.577972 0.749994 0.000002 -0.071997
C144  C     C_1   0.422028 0.749999 0.999999 -0.071970
C145  C     C_1   0.888910 0.249995 0.499998 -0.132602
C146  C     C_1   0.111090 0.249990 0.500001 -0.132581
C147  C     C_1   0.388910 0.749995 0.999999 -0.132586
C148  C     C_1   0.611090 0.749990 0.000002 -0.132628
C149  C     C_3   0.542354 0.228409 0.399216 -0.725538
H49   H     H_    0.546014 0.188690 0.382376 0.195279
H50   H     H_    0.527811 0.250863 0.368873 0.282548
H51   H     H_    0.570203 0.245736 0.403106 0.251629
C150  C     C_3   0.460920 0.242497 0.397208 -0.723870
H52   H     H_    0.469143 0.213765 0.367020 0.211725
H53   H     H_    0.430392 0.240998 0.399034 0.244658
H54   H     H_    0.469120 0.281504 0.383640 0.309375
C151  C     C_3   0.457505 0.229814 0.601158 -0.723283
H55   H     H_    0.452361 0.190363 0.617605 0.194719
H56   H     H_    0.472521 0.251099 0.631872 0.279846
H57   H     H_    0.430328 0.249047 0.597209 0.253769
C152  C     C_3   0.539138 0.243431 0.603038 -0.723570
H58   H     H_    0.531012 0.214919 0.633477 0.211272
H59   H     H_    0.569654 0.241920 0.601093 0.244592
H60   H     H_    0.530962 0.282536 0.616323 0.309766
C153  C     C_3   0.042355 0.728410 0.899216 -0.725445
H61   H     H_    0.046014 0.688692 0.882375 0.195257
H62   H     H_    0.027811 0.750865 0.868873 0.282572
H63   H     H_    0.070203 0.745737 0.903106 0.251655
C154  C     C_3   0.960920 0.742499 0.897208 -0.723812
H64   H     H_    0.969143 0.713767 0.867019 0.211726
H65   H     H_    0.930392 0.741000 0.899034 0.244659
H66   H     H_    0.969120 0.781506 0.883640 0.309387
C155  C     C_3   0.957505 0.729811 0.101157 -0.723410
H67   H     H_    0.952361 0.690360 0.117604 0.194632
H68   H     H_    0.972521 0.751095 0.131872 0.279859
H69   H     H_    0.930328 0.749045 0.097209 0.253775
C156  C     C_3   0.039138 0.743428 0.103038 -0.723611
H70   H     H_    0.031012 0.714915 0.133476 0.211250
H71   H     H_    0.069654 0.741917 0.101093 0.244589
H72   H     H_    0.030962 0.782533 0.116324 0.309767
N1    N     N_R   0.537891 0.348897 0.540963 0.237219
O53   O     O_R   0.526246 0.396704 0.545214 -0.254286
O54   O     O_R   0.570225 0.339138 0.560642 -0.377668
N2    N     N_R   0.462933 0.340814 0.549864 0.231499
O55   O     O_R   0.478478 0.334782 0.595003 -0.391558
O56   O     O_R   0.433177 0.369140 0.548078 -0.298205
N3    N     N_R   0.462110 0.348522 0.458219 0.237164
O57   O     O_R   0.429747 0.338684 0.438764 -0.377679
O58   O     O_R   0.473920 0.396185 0.453128 -0.253972
N4    N     N_R   0.537297 0.340198 0.449468 0.233043
O59   O     O_R   0.567396 0.367704 0.450927 -0.299430
O60   O     O_R   0.521616 0.334011 0.404424 -0.392001
N5    N     N_R   0.037892 0.848896 0.040965 0.237216
O61   O     O_R   0.026246 0.896703 0.045217 -0.254276
O62   O     O_R   0.070225 0.839136 0.060644 -0.377676
N6    N     N_R   0.962933 0.840812 0.049867 0.231505
O63   O     O_R   0.978478 0.834780 0.095005 -0.391566
O64   O     O_R   0.933177 0.869139 0.048081 -0.298194
N7    N     N_R   0.962111 0.848522 0.958221 0.237162
O65   O     O_R   0.929747 0.838685 0.938766 -0.377635
O66   O     O_R   0.973921 0.896186 0.953131 -0.253870
N8    N     N_R   0.037297 0.840199 0.949470 0.233066
O67   O     O_R   0.067396 0.867705 0.950930 -0.299175
O68   O     O_R   0.021616 0.834013 0.904425 -0.391836

loop_
_geom_bond_atom_site_label_1
_geom_bond_atom_site_label_2
_geom_bond_distance
_ccdc_geom_bond_type
C137  H45   1.083456 S    
C4    C123  1.434551 S    
C44   N5    1.486780 S    
N3    O58   1.303413 A    
C79   C87   1.404886 A    
C153  H63   1.108703 S    
C66   H26   1.083421 S    
O26   C7    1.272135 A    
C77   C85   1.401203 A    
H41   C130  1.083528 S    
C129  C133  1.400138 A    
C36   C48   1.205769 T    
O30   C11   1.272252 A    
C87   C95   1.404907 A    
C151  H57   1.107665 S    
C85   C93   1.401203 A    
Zn12  O26   1.910284 S    
C106  C114  1.205639 T    
C37   C46   1.483927 S    
C50   C94   1.398865 A    
C88   C96   1.401205 A    
C25   C152  1.546977 S    
H14   C94   1.083422 S    
C54   C62   1.401188 A    
C32   C39   1.593159 S    
O11   C7    1.272065 A    
C52   C60   1.401190 A    
O34   C15   1.272250 A    
C49   C93   1.398847 A    
C30   C155  1.564019 S    
Zn1   O44   1.919516 S    
C31   C40   1.583258 S    
Zn2   O43   1.918837 S    
C51   C95   1.399796 A    
C71   H31   1.083433 S    
Zn5   O48   1.919516 S    
C61   C69   1.401207 A    
Zn6   O47   1.918837 S    
C108  C116  1.205619 T    
Zn7   O46   1.919516 S    
O16   C12   1.272639 A    
N3    O57   1.300810 A    
Zn16  O4    1.923044 S    
Zn12  O4    1.923122 S    
Zn1   O13   1.909799 S    
N4    O59   1.301298 A    
C53   C61   1.401202 A    
Zn3   O15   1.909730 S    
C5    C126  1.434662 S    
Zn4   O16   1.909474 S    
C100  C124  1.205617 T    
C53   C89   1.398845 A    
C43   N6    1.491105 S    
C150  H53   1.109617 S    
C102  C126  1.205636 T    
C62   C70   1.401219 A    
N2    O55   1.298130 A    
C75   H35   1.083429 S    
C81   C89   1.401204 A    
C76   H36   1.083419 S    
C24   C35   1.432742 S    
Zn10  O22   1.910284 S    
C66   C78   1.398878 A    
C62   C102  1.439422 S    
O25   C8    1.271678 A    
Zn13  O29   1.909260 S    
C33   C45   1.205580 T    
Zn10  O2    1.923122 S    
C103  C127  1.205582 T    
O29   C12   1.272706 A    
C68   H28   1.083424 S    
C56   C92   1.398857 A    
C78   H38   1.083420 S    
C154  H65   1.109617 S    
O37   C17   1.268560 A    
O48   C23   1.269886 A    
C59   C99   1.439932 S    
C18   C146  1.428181 S    
C136  C140  1.400136 A    
C23   C36   1.432853 S    
C40   C47   1.483766 S    
C97   C121  1.205605 T    
Zn16  O35   1.909325 S    
C71   C75   1.398844 A    
C74   H34   1.083418 S    
C26   C151  1.564020 S    
C87   C111  1.439932 S    
C29   C30   1.575512 S    
Zn15  O33   1.909260 S    
C85   C109  1.439369 S    
C31   H8    1.116157 S    
C14   C118  1.434669 S    
C137  C138  1.396306 A    
Zn7   O10   1.909862 S    
O33   C16   1.272704 A    
O40   C20   1.268553 A    
N6    O63   1.298130 A    
C129  C130  1.396335 A    
C68   C80   1.398868 A    
N8    O68   1.298594 A    
Zn6   O11   1.909536 S    
C67   H27   1.087577 S    
Zn5   O17   1.909799 S    
H13   C93   1.083428 S    
H10   C90   1.083422 S    
C84   C92   1.401206 A    
C152  H58   1.111038 S    
N1    O54   1.301676 A    
C98   C122  1.205636 T    
C104  C128  1.205615 T    
N5    O62   1.301675 A    
Zn8   O3    1.924108 S    
C7    C128  1.434624 S    
C58   C98   1.439422 S    
C65   H25   1.083430 S    
O38   C18   1.268553 A    
C63   C71   1.401199 A    
C21   C34   1.432853 S    
O5    C1    1.272036 A    
C59   C67   1.404912 A    
O32   C9    1.272273 A    
C156  H70   1.111041 S    
C55   C63   1.401183 A    
Zn15  O51   1.919498 S    
C155  H67   1.113394 S    
Zn11  O28   1.910344 S    
C149  H50   1.103487 S    
C81   C105  1.439367 S    
C10   C114  1.434667 S    
C72   H32   1.083426 S    
C29   C39   1.583184 S    
C19   C147  1.428181 S    
C133  C141  1.433011 S    
C20   C148  1.428181 S    
Zn9   O1    1.923041 S    
C133  C137  1.400122 A    
C150  H54   1.101551 S    
C60   C100  1.439384 S    
C80   C88   1.401194 A    
O50   C18   1.268549 A    
C11   C115  1.434573 S    
C135  C139  1.400126 A    
C153  H62   1.103486 S    
Zn1   O1    1.922757 S    
Zn13  O1    1.923125 S    
Zn2   O14   1.909495 S    
C2    C121  1.434609 S    
C41   C42   1.641286 S    
C54   H22   1.083418 S    
C151  H56   1.103294 S    
C110  C118  1.205638 T    
O9    C5    1.272038 A    
O39   C19   1.268560 A    
O36   C13   1.272275 A    
C38   C41   1.610836 S    
O13   C9    1.272267 A    
Zn1   O8    1.909792 S    
C152  H60   1.101378 S    
Zn2   O7    1.909536 S    
Zn3   O6    1.909862 S    
O18   C14   1.272611 A    
C22   C33   1.432746 S    
O6    C2    1.271695 A    
C109  C117  1.205607 T    
C138  H46   1.083453 S    
C139  C140  1.396306 A    
Zn14  O30   1.908875 S    
Zn15  O3    1.923125 S    
C78   C86   1.401197 A    
H42   C129  1.083522 S    
Zn11  O3    1.923041 S    
C130  C134  1.400128 A    
O41   C21   1.270082 A    
C29   C156  1.546975 S    
C53   H21   1.083424 S    
Zn16  O34   1.908875 S    
C156  H72   1.101376 S    
C79   H39   1.087597 S    
C27   C38   1.583263 S    
C131  C132  1.396335 A    
C86   C94   1.401219 A    
C155  H69   1.107666 S    
C77   H37   1.083424 S    
C112  C120  1.205619 T    
Zn8   O20   1.909474 S    
C80   H40   1.083419 S    
C83   C107  1.439325 S    
C136  C144  1.433011 S    
C38   C45   1.483762 S    
C105  C113  1.205607 T    
C32   C153  1.563716 S    
N4    O60   1.298593 A    
H15   C95   1.087578 S    
C73   H33   1.083426 S    
N7    O65   1.300808 A    
C150  H52   1.111265 S    
Zn8   O9    1.909558 S    
C144  C147  1.201895 T    
N2    O56   1.302837 A    
H16   C96   1.083427 S    
C35   C47   1.205580 T    
C141  C146  1.201895 T    
O7    C3    1.272065 A    
C143  C148  1.201895 T    
C57   C97   1.439368 S    
O19   C15   1.272228 A    
C15   C119  1.434555 S    
O44   C21   1.269886 A    
H44   C131  1.083528 S    
Zn6   O18   1.909495 S    
H11   C91   1.083433 S    
Zn10  O23   1.909924 S    
H12   C92   1.083425 S    
C154  H64   1.111262 S    
C12   C116  1.434631 S    
C69   C73   1.398858 A    
C139  H47   1.083463 S    
C70   H30   1.083418 S    
C25   C37   1.583185 S    
Zn15  O36   1.908906 S    
C6    C125  1.434611 S    
O15   C11   1.272232 A    
O42   C22   1.269889 A    
C74   C82   1.401194 A    
C29   H6    1.116183 S    
C131  C135  1.400144 A    
C43   N7    1.486657 S    
C28   C37   1.593160 S    
Zn9   O37   1.919602 S    
O12   C8    1.271662 A    
Zn11  O39   1.919602 S    
C82   C90   1.401212 A    
C28   C149  1.563717 S    
C39   C48   1.483923 S    
C58   C66   1.401224 A    
C67   C79   1.399809 A    
C25   H2    1.116184 S    
C43   C44   1.641286 S    
Zn5   O3    1.922757 S    
C154  H66   1.101551 S    
Zn6   O4    1.924110 S    
C49   H17   1.083425 S    
C52   H20   1.083420 S    
C34   C46   1.205766 T    
C61   C101  1.439367 S    
C51   C59   1.404881 A    
N6    O64   1.302837 A    
C72   C76   1.398868 A    
Zn9   O24   1.910344 S    
O28   C5    1.272117 A    
Zn3   O42   1.919516 S    
C132  C136  1.400135 A    
Zn7   O4    1.922755 S    
O21   C4    1.271677 A    
C111  C119  1.205664 T    
C57   C65   1.401208 A    
C60   C68   1.401210 A    
C25   C26   1.575512 S    
C64   C104  1.439385 S    
N1    O53   1.302989 A    
Zn14  O2    1.923044 S    
C27   C28   1.575308 S    
C56   H24   1.083416 S    
C26   C38   1.593821 S    
C86   C110  1.439423 S    
Zn13  O49   1.919498 S    
N5    O61   1.302990 A    
C41   N2    1.491105 S    
C55   H23   1.083430 S    
C30   H5    1.115932 S    
C13   C117  1.434614 S    
C83   C91   1.401197 A    
Zn12  O27   1.909924 S    
C75   C83   1.401189 A    
C55   C91   1.398833 A    
C76   C84   1.401197 A    
C50   H18   1.083422 S    
C50   C58   1.401191 A    
Zn3   O2    1.922755 S    
C73   C81   1.401203 A    
O10   C6    1.271695 A    
C26   H1    1.115932 S    
O46   C24   1.269889 A    
O47   C24   1.270115 A    
C3    C124  1.434624 S    
H43   C132  1.083534 S    
Zn16  O52   1.919539 S    
C44   N8    1.491459 S    
C149  H49   1.115830 S    
Zn8   O45   1.918837 S    
C140  H48   1.083455 S    
O27   C6    1.271701 A    
H9    C89   1.083431 S    
C88   C112  1.439387 S    
C27   C150  1.546912 S    
C31   C154  1.546914 S    
O8    C4    1.271658 A    
N7    O66   1.303414 A    
O24   C1    1.272119 A    
C49   C57   1.401197 A    
C153  H61   1.115832 S    
O43   C22   1.270115 A    
Zn4   O41   1.918837 S    
N8    O67   1.301303 A    
C134  C142  1.433011 S    
Zn5   O12   1.909792 S    
C30   C40   1.593821 S    
C31   C32   1.575308 S    
C41   N3    1.486657 S    
Zn9   O21   1.909897 S    
C151  H55   1.113395 S    
Zn14  O50   1.919539 S    
C65   C77   1.398858 A    
C82   C106  1.439423 S    
O35   C14   1.272690 A    
Zn12  O40   1.919558 S    
C54   C90   1.398867 A    
C9    C113  1.434614 S    
C56   C64   1.401192 A    
C152  H59   1.109322 S    
O52   C20   1.268549 A    
C142  C145  1.201895 T    
Zn4   O1    1.924108 S    
C16   C120  1.434631 S    
C52   C96   1.398855 A    
C27   H4    1.116157 S    
C134  C138  1.400132 A    
O22   C3    1.272135 A    
C32   H7    1.115808 S    
C42   N1    1.486784 S    
Zn7   O19   1.909730 S    
C17   C145  1.428181 S    
Zn2   O2    1.924110 S    
C107  C115  1.205584 T    
Zn13  O32   1.908906 S    
C135  C143  1.433011 S    
O49   C17   1.268540 A    
Zn14  O31   1.909325 S    
C70   C74   1.398878 A    
O51   C19   1.268540 A    
O31   C10   1.272690 A    
C40   C43   1.610837 S    
C63   C103  1.439325 S    
C69   H29   1.083430 S    
C156  H71   1.109322 S    
C1    C122  1.434662 S    
Zn4   O5    1.909558 S    
C99   C123  1.205662 T    
O20   C16   1.272641 A    
C42   N4    1.491460 S    
C51   H19   1.087597 S    
C155  H68   1.103292 S    
O23   C2    1.271701 A    
Zn11  O25   1.909897 S    
C8    C127  1.434569 S    
Zn10  O38   1.919558 S    
C149  H51   1.108702 S    
C101  C125  1.205605 T    
C37   C42   1.609883 S    
O14   C10   1.272611 A    
C64   C72   1.401211 A    
C39   C44   1.609884 S    
C28   H3    1.115807 S    
O17   C13   1.272264 A    
C84   C108  1.439387 S    
O45   C23   1.270082 A    
