data_mof_unit_62936.cif
_audit_creation_date              2012-12-10T18:07:28-0500
_audit_creation_method            fapswitch 2.2
_symmetry_space_group_name_H-M    P1
_symmetry_Int_Tables_number       1
_space_group_crystal_system       triclinic
_cell_length_a                    12.75225
_cell_length_b                    13.904177
_cell_length_c                    15.896077
_cell_angle_alpha                 90.226546
_cell_angle_beta                  92.717998
_cell_angle_gamma                 97.936447
_cell_volume                      2788.2323098

loop_
_atom_site_label
_atom_site_type_symbol
_atom_type_description
_atom_site_fract_x
_atom_site_fract_y
_atom_site_fract_z
_atom_type_partial_charge
C1    C     C_R   0.483580 0.315827 0.499131 0.816979
C2    C     C_3   0.395744 0.441041 0.947909 -0.340820
C3    C     C_3   0.499213 0.499349 0.917308 0.204040
C4    C     C_3   0.507938 0.604720 0.951848 -0.491787
C5    C     C_3   0.509246 0.604918 0.049384 -0.387031
C6    C     C_1   0.498071 0.499575 0.825163 -0.032399
C7    C     C_1   0.502083 0.499920 0.174839 -0.075434
C8    C     C_1   0.501995 0.500021 0.250331 -0.168135
C9    C     C_1   0.525793 0.787510 0.501342 -0.151530
C10   C     C_2   0.543505 0.978379 0.502210 -0.154696
C11   C     C_2   0.456493 0.021621 0.497811 -0.152177
C12   C     C_R   0.500656 0.500024 0.339893 0.819500
C13   C     C_1   0.465669 0.125437 0.498253 0.017008
C14   C     C_1   0.534329 0.874563 0.501763 0.018908
C15   C     C_1   0.474206 0.212490 0.498668 -0.154803
C16   C     C_2   0.028324 0.473786 0.476968 -0.388677
C17   C     C_2   0.971711 0.527688 0.524319 0.551862
C18   C     C_1   0.854609 0.519562 0.517175 0.121252
C19   C     C_1   0.145437 0.480923 0.483241 0.318799
C20   C     C_R   0.516420 0.684173 0.500872 0.813323
C21   C     C_R   0.499346 0.499971 0.660106 0.825869
C22   C     C_3   0.397170 0.440934 0.045440 -0.376725
C23   C     C_3   0.596104 0.452932 0.051710 -0.406071
C24   C     C_3   0.595407 0.453117 0.954080 0.492500
C25   C     C_1   0.498026 0.499756 0.749668 -0.136347
C26   C     C_3   0.501236 0.499704 0.082733 0.237379
Cu1   Cu    Cu3+1 0.395330 0.493960 0.494700 1.002645
Cu2   Cu    Cu3+1 0.604670 0.506040 0.505300 1.000212
H1    H     H_    0.386753 0.364963 0.923770 0.212800
H2    H     H_    0.327611 0.472948 0.067001 0.173698
H3    H     H_    0.325891 0.473716 0.922764 0.167771
H4    H     H_    0.581625 0.648515 0.930801 0.174651
H5    H     H_    0.378057 0.979366 0.493859 0.165908
H6    H     H_    0.621941 0.020634 0.506162 0.163072
H7    H     H_    0.986166 0.422100 0.431562 0.111732
H8    H     H_    0.389782 0.364787 0.068168 0.180045
H9    H     H_    0.671939 0.493885 0.077778 0.130504
H10   H     H_    0.592006 0.377204 0.075083 0.206902
H11   H     H_    0.670282 0.495663 0.933889 0.080001
H12   H     H_    0.441806 0.640147 0.070872 0.186103
H13   H     H_    0.583639 0.648652 0.075121 0.175862
H14   H     H_    0.439814 0.639780 0.926572 0.202241
N1    N     N_1   0.238030 0.484880 0.486720 -0.159170
N2    N     N_1   0.761970 0.515120 0.513270 -0.155977
O1    O     O_R   0.399110 0.356330 0.494870 -0.572731
O2    O     O_R   0.575900 0.366540 0.503830 -0.569399
O3    O     O_R   0.411570 0.494900 0.374960 -0.575062
O4    O     O_R   0.588350 0.505100 0.383910 -0.573694
O5    O     O_R   0.424100 0.633460 0.496170 -0.563220
O6    O     O_R   0.600890 0.643670 0.505130 -0.564838
O7    O     O_R   0.411650 0.494900 0.616090 -0.565065
O8    O     O_R   0.588430 0.505100 0.625040 -0.559561
F1    F     F_    0.023987 0.592544 0.581294 -0.638110
F2    F     F_    0.591668 0.358893 0.923907 -0.658106

loop_
_geom_bond_atom_site_label_1
_geom_bond_atom_site_label_2
_ccdc_geom_bond_type
C2    C22   S    
C20   O6    A    
C9    C14   T    
C20   O5    A    
C1    C15   S    
C11   H5    S    
C18   N2    T    
C23   H10   S    
Cu2   O8    S    
C9    C20   S    
C12   O4    A    
C8    C12   S    
C3    C6    S    
Cu2   O2    S    
Cu1   O1    S    
C17   C18   S    
C7    C8    T    
C10   H6    S    
C11   C13   S    
C1    O1    A    
C3    C24   S    
C4    H4    S    
C7    C26   S    
C4    H14   S    
C2    H1    S    
C12   O3    A    
C19   N1    T    
C2    C3    S    
C13   C15   T    
C16   H7    S    
C10   C14   S    
C1    O2    A    
C5    H12   S    
C6    C25   T    
C16   C17   D    
C10   C11   D    
C23   C24   S    
C24   F2    S    
C5    C26   S    
C17   F1    S    
C21   O7    A    
C24   H11   S    
C22   H8    S    
Cu1   O5    S    
C22   C26   S    
C23   C26   S    
Cu1   O3    S    
Cu1   Cu2   S    
Cu1   N1    S    
C5    H13   S    
C4    C5    S    
C21   C25   S    
C22   H2    S    
C23   H9    S    
Cu2   O6    S    
Cu2   N2    S    
C21   O8    A    
Cu2   O4    S    
C3    C4    S    
Cu1   O7    S    
C2    H3    S    
C16   C19   S    
