data_mof_unit_29827.cif
_audit_creation_date              2012-10-26T20:50:44-0400
_audit_creation_method            fapswitch 2.2
_symmetry_space_group_name_H-M    P1
_symmetry_Int_Tables_number       1
_space_group_crystal_system       triclinic
_cell_length_a                    11.017673
_cell_length_b                    10.932438
_cell_length_c                    9.620786
_cell_angle_alpha                 90.579117
_cell_angle_beta                  101.21933
_cell_angle_gamma                 91.053641
_cell_volume                      1136.37546646

loop_
_atom_site_label
_atom_site_type_symbol
_atom_type_description
_atom_site_fract_x
_atom_site_fract_y
_atom_site_fract_z
_atom_type_partial_charge
C1    C     C_R   0.500616 0.263025 0.499594 0.542547
C2    C     C_R   0.393751 0.486653 0.052308 -0.020474
C3    C     C_R   0.392114 0.486127 0.904776 0.214849
C4    C     C_R   0.263681 0.498217 0.443181 0.596812
C5    C     C_R   0.608525 0.496967 0.950325 0.175060
C6    C     C_3   0.713378 0.587766 0.967576 -0.057318
C7    C     C_3   0.709156 0.595505 0.124417 -0.267648
C8    C     C_R   0.501218 0.737710 0.500710 0.558758
C9    C     C_R   0.736642 0.503538 0.556562 0.549964
C10   C     C_2   0.129944 0.480868 0.412619 0.125752
C11   C     C_2   0.060861 0.543064 0.488808 0.104441
C12   C     C_R   0.496804 0.130436 0.496880 -0.036367
C13   C     C_2   0.870112 0.523250 0.584428 -0.145925
C14   C     C_2   0.930717 0.506784 0.478714 -0.145638
C15   C     C_R   0.465029 0.065558 0.608320 -0.038116
C16   C     C_3   0.217725 0.364726 0.783153 -0.270829
C17   C     C_3   0.396607 0.774403 0.884684 -0.253837
C18   C     C_3   0.723963 0.895629 0.760600 -0.328151
C19   C     C_3   0.461375 0.163924 0.983867 -0.289617
C20   C     C_R   0.523033 0.065487 0.380614 -0.149059
C21   C     C_R   0.528036 0.937309 0.381636 0.073223
C22   C     C_R   0.499970 0.871808 0.499247 0.019928
C23   C     C_R   0.464145 0.938964 0.609660 0.000491
C24   C     C_3   0.501043 0.940478 0.770586 0.296969
C25   C     C_3   0.509631 0.080980 0.764320 0.067572
C26   C     C_R   0.608255 0.500311 0.097214 0.120818
Cu1   Cu    Cu3+1 0.499990 0.499980 0.640670 0.986348
Cu2   Cu    Cu3+1 0.500010 0.500020 0.359330 0.929499
H1    H     H_    0.883483 0.460857 0.382411 0.162062
H2    H     H_    0.212640 0.314552 0.881761 0.102577
H3    H     H_    0.270804 0.312932 0.716522 0.200575
H4    H     H_    0.122154 0.373632 0.721477 0.140540
H5    H     H_    0.900210 0.594931 0.975896 0.213436
H6    H     H_    0.845741 0.452734 0.997669 0.228192
H7    H     H_    0.059646 0.724843 0.528078 0.216803
H8    H     H_    0.100075 0.640758 0.674304 0.219538
H9    H     H_    0.144201 0.335399 0.280698 0.230638
H10   H     H_    0.031418 0.433360 0.219741 0.207820
H11   H     H_    0.663470 0.850148 0.311603 0.213878
H12   H     H_    0.604694 0.121851 0.790377 0.135494
H13   H     H_    0.577890 0.934047 0.186266 0.208438
H14   H     H_    0.313071 0.925573 0.788293 0.232217
H15   H     H_    0.326356 0.764611 0.952608 0.123259
H16   H     H_    0.486762 0.748135 0.948917 0.171789
H17   H     H_    0.368446 0.713401 0.791265 0.207388
H18   H     H_    0.645526 0.906837 0.940273 0.237165
H19   H     H_    0.811089 0.876247 0.836194 0.124186
H20   H     H_    0.733310 0.987715 0.716131 0.125298
H21   H     H_    0.713871 0.825504 0.675146 0.161968
H22   H     H_    0.330885 0.125113 0.799038 0.238086
H23   H     H_    0.307072 0.478687 0.088162 0.127800
H24   H     H_    0.395972 0.224603 0.023931 0.141755
H25   H     H_    0.555361 0.206861 0.010353 0.143755
H26   H     H_    0.460751 0.074768 0.037411 0.161223
H27   H     H_    0.689880 0.672970 0.908294 0.185207
H28   H     H_    0.794298 0.563872 0.194179 0.126942
H29   H     H_    0.676204 0.684891 0.155727 0.138386
H30   H     H_    0.916246 0.557833 0.687582 0.120572
H31   H     H_    0.548202 0.114698 0.292974 0.125835
H32   H     H_    0.213516 0.541848 0.853732 0.202889
N1    N     N_R   0.500780 0.500930 0.148120 -0.252929
N2    N     N_2   0.423388 0.147048 0.832327 -0.502945
N3    N     N_R   0.500790 0.500890 0.852210 -0.229980
N4    N     N_2   0.273511 0.484914 0.815627 -0.468045
N5    N     N_3   0.826952 0.533182 0.939982 -0.632663
N6    N     N_3   0.111385 0.649929 0.569967 -0.624525
N7    N     N_3   0.075163 0.388285 0.310635 -0.681507
N8    N     N_3   0.572676 0.875175 0.269809 -0.603565
N9    N     N_2   0.399833 0.899107 0.838596 -0.503801
N10   N     N_2   0.620126 0.887690 0.833185 -0.512034
O1    O     O_R   0.500000 0.319640 0.618810 -0.482449
O2    O     O_R   0.500010 0.319680 0.381230 -0.514862
O3    O     O_R   0.320680 0.500000 0.575130 -0.449554
O4    O     O_R   0.320690 0.500040 0.337550 -0.534394
O5    O     O_R   0.499990 0.680320 0.618770 -0.503894
O6    O     O_R   0.500000 0.680360 0.381190 -0.461611
O7    O     O_R   0.679310 0.499960 0.662450 -0.467130
O8    O     O_R   0.679320 0.500000 0.424870 -0.509875

loop_
_geom_bond_atom_site_label_1
_geom_bond_atom_site_label_2
_ccdc_geom_bond_type
C18   N10   S    
C17   N9    S    
H11   N8    S    
C6    H27   S    
Cu2   O4    S    
C18   H19   S    
C24   N10   S    
C3    N4    S    
C16   H3    S    
C1    O1    A    
C7    C26   S    
C26   N1    A    
C17   H17   S    
C25   H12   S    
C5    C6    S    
C11   C14   S    
H8    N6    S    
C15   C25   S    
C19   N2    S    
C16   H2    S    
C8    O6    A    
C5    N3    A    
C9    C13   S    
C19   H24   S    
C6    N5    S    
C8    C22   S    
C23   C24   S    
C13   C14   D    
Cu2   O8    S    
C4    O4    A    
C2    N1    A    
C25   N2    S    
Cu2   N1    S    
C19   H25   S    
C15   C23   A    
C21   C22   A    
Cu2   O2    S    
C1    C12   S    
C7    H28   S    
Cu1   O5    S    
H6    N5    S    
C24   N9    S    
H13   N8    S    
C1    O2    A    
H5    N5    S    
C24   C25   S    
C2    H23   S    
C13   H30   S    
H7    N6    S    
C10   N7    S    
H14   N9    S    
C17   H15   S    
C12   C15   A    
C12   C20   A    
C9    O7    A    
C20   C21   A    
C20   H31   S    
C4    O3    A    
Cu1   N3    S    
C19   H26   S    
C21   N8    S    
H22   N2    S    
C14   H1    S    
C4    C10   S    
Cu2   O6    S    
Cu1   O1    S    
Cu1   O7    S    
C18   H20   S    
C11   N6    S    
C6    C7    S    
C3    N3    A    
C16   H4    S    
H32   N4    S    
C2    C3    A    
C17   H16   S    
H9    N7    S    
C9    O8    A    
C8    O5    A    
H18   N10   S    
C10   C11   D    
C5    C26   A    
H10   N7    S    
Cu1   Cu2   S    
C22   C23   A    
C16   N4    S    
Cu1   O3    S    
C7    H29   S    
C18   H21   S    
