data_mof_unit_53000.cif
_audit_creation_date              2012-12-11T16:45:45-0500
_audit_creation_method            fapswitch 2.2
_symmetry_space_group_name_H-M    P1
_symmetry_Int_Tables_number       1
_space_group_crystal_system       triclinic
_cell_length_a                    19.78465
_cell_length_b                    17.06163
_cell_length_c                    15.316396
_cell_angle_alpha                 90.063617
_cell_angle_beta                  52.682088
_cell_angle_gamma                 90.04475
_cell_volume                      4111.75707988

loop_
_atom_site_label
_atom_site_type_symbol
_atom_type_description
_atom_site_fract_x
_atom_site_fract_y
_atom_site_fract_z
_atom_type_partial_charge
C1    C     C_R   0.840393 0.673762 0.045994 -0.113309
C2    C     C_R   0.150809 0.311186 0.070466 0.160010
C3    C     C_R   0.349265 0.811073 0.929433 0.157307
C4    C     C_R   0.651556 0.811314 0.069287 0.156134
C5    C     C_R   0.885730 0.685499 0.305015 0.087953
C6    C     C_R   0.112635 0.683895 0.693607 0.073979
C7    C     C_R   0.388391 0.184070 0.305985 0.068285
C8    C     C_R   0.611360 0.184047 0.694274 0.067219
C9    C     C_R   0.850414 0.718277 0.484196 -0.007391
C10   C     C_R   0.145907 0.714048 0.512612 0.149256
C11   C     C_R   0.353312 0.213282 0.488148 0.123462
C12   C     C_R   0.159649 0.673707 0.953867 -0.105971
C13   C     C_R   0.647980 0.212212 0.511281 0.126173
C14   C     C_R   0.865428 0.743623 0.387119 0.059487
C15   C     C_R   0.129107 0.740181 0.610980 0.016673
C16   C     C_R   0.371745 0.240039 0.389078 0.017719
C17   C     C_R   0.628480 0.239624 0.610742 0.023182
C18   C     C_R   0.358913 0.319963 0.380552 -0.172683
C19   C     C_R   0.640736 0.319715 0.619334 -0.179640
C20   C     C_R   0.843704 0.820495 0.380571 -0.176365
C21   C     C_R   0.142528 0.819969 0.619547 -0.179001
C22   C     C_R   0.308592 0.365475 0.475772 -0.191798
C23   C     C_R   0.340306 0.173668 0.046350 -0.113579
C24   C     C_R   0.691175 0.365098 0.524092 -0.200103
C25   C     C_R   0.798042 0.867191 0.474013 -0.166029
C26   C     C_R   0.192098 0.865658 0.524480 -0.174149
C27   C     C_R   0.270669 0.330475 0.578867 0.026541
C28   C     C_R   0.729777 0.329808 0.420944 0.032029
C29   C     C_R   0.771608 0.836605 0.575466 0.066609
C30   C     C_R   0.228694 0.831019 0.421389 0.047635
C31   C     C_R   0.802819 0.764105 0.578315 0.109687
C32   C     C_R   0.196435 0.758637 0.418713 0.207560
C33   C     C_R   0.301439 0.257553 0.582211 0.201022
C34   C     C_R   0.659828 0.173520 0.953462 -0.114317
C35   C     C_R   0.699918 0.256400 0.417266 0.198768
C36   C     C_3   0.862993 0.750570 0.605151 -0.530186
C37   C     C_3   0.240235 0.687963 0.347552 -0.606537
C38   C     C_3   0.255122 0.187010 0.652244 -0.622153
C39   C     C_3   0.747445 0.185976 0.347626 -0.622481
C40   C     C_R   0.849494 0.330317 0.218405 -0.139734
C41   C     C_R   0.150663 0.330535 0.781487 -0.140698
C42   C     C_R   0.349211 0.830535 0.218481 -0.133586
C43   C     C_R   0.651300 0.830470 0.779441 -0.122837
C44   C     C_3   0.915235 0.700383 0.502427 -0.237472
C45   C     C_R   0.808292 0.360992 0.322762 0.073361
C46   C     C_3   0.184583 0.638674 0.449585 -0.303901
C47   C     C_3   0.313138 0.137995 0.550467 -0.326267
C48   C     C_3   0.689459 0.136997 0.449342 -0.325418
C49   C     C_2   0.784795 0.184188 0.956878 -0.190274
C50   C     C_2   0.215578 0.184465 0.042474 -0.190369
C51   C     C_2   0.284332 0.684456 0.957751 -0.197839
C52   C     C_2   0.715859 0.684488 0.041817 -0.196419
C53   C     C_2   0.309918 0.753121 0.904244 -0.194704
C54   C     C_2   0.690667 0.753427 0.094742 -0.196141
C55   C     C_2   0.810104 0.253064 0.903862 -0.199703
C56   C     C_R   0.191910 0.361292 0.677191 0.071513
C57   C     C_2   0.190263 0.253365 0.095583 -0.198408
C58   C     C_R   0.866408 0.388385 0.895549 -0.156952
C59   C     C_R   0.133697 0.388552 0.104321 -0.161483
C60   C     C_R   0.366337 0.888414 0.895636 -0.152261
C61   C     C_R   0.633948 0.888521 0.103932 -0.156629
C62   C     C_R   0.904796 0.607796 0.305135 -0.093957
C63   C     C_R   0.092646 0.606531 0.696471 -0.157986
C64   C     C_R   0.408467 0.106843 0.302922 -0.155957
C65   C     C_R   0.591032 0.106935 0.697455 -0.158175
C66   C     C_R   0.877469 0.298526 0.990765 -0.132373
C67   C     C_R   0.307754 0.861477 0.322805 0.058560
C68   C     C_R   0.122600 0.298573 0.009065 -0.132923
C69   C     C_R   0.377427 0.798557 0.990853 -0.135501
C70   C     C_R   0.623558 0.798786 0.007595 -0.131715
C71   C     C_R   0.896462 0.698432 0.208524 -0.141839
C72   C     C_R   0.103127 0.698163 0.789749 -0.127244
C73   C     C_R   0.397253 0.198248 0.210273 -0.122444
C74   C     C_R   0.602684 0.198274 0.789864 -0.124160
C75   C     C_R   0.858893 0.420904 0.316548 -0.127459
C76   C     C_R   0.141193 0.421039 0.683497 -0.117694
C77   C     C_R   0.358604 0.921281 0.316405 -0.116649
C78   C     C_R   0.693526 0.865045 0.676507 0.045534
C79   C     C_R   0.641795 0.923889 0.684525 -0.116729
C80   C     C_R   0.830490 0.580946 0.950005 -0.138327
C81   C     C_R   0.169484 0.581112 0.050037 -0.099413
C82   C     C_R   0.330418 0.080990 0.950155 -0.127724
C83   C     C_R   0.669713 0.080928 0.049560 -0.129664
C84   C     C_R   0.789326 0.644797 0.019940 0.146672
C85   C     C_R   0.210677 0.644862 0.979981 0.133671
C86   C     C_R   0.289207 0.144797 0.020282 0.146068
C87   C     C_R   0.710993 0.144613 0.979332 0.144827
C88   C     C_2   0.003456 0.730306 0.411988 1.115109
C89   C     C_R   0.849378 0.311015 0.929244 0.158616
C90   C     C_2   0.125111 0.586824 0.444677 1.057542
C91   C     C_2   0.372039 0.086771 0.557226 1.083663
C92   C     C_2   0.631915 0.084377 0.441495 1.080886
H1    H     H_    0.830990 0.724915 0.093575 0.090887
H2    H     H_    0.227596 0.680882 0.286365 0.203629
H3    H     H_    0.263915 0.178898 0.716874 0.207473
H4    H     H_    0.739461 0.176930 0.282381 0.207562
H5    H     H_    0.832852 0.715953 0.681846 0.186845
H6    H     H_    0.308386 0.684093 0.312988 0.202564
H7    H     H_    0.187910 0.184222 0.682536 0.202867
H8    H     H_    0.814474 0.184229 0.318166 0.203061
H9    H     H_    0.914584 0.637322 0.520960 0.159592
H10   H     H_    0.221581 0.606382 0.470938 0.123894
H11   H     H_    0.278160 0.105837 0.525810 0.144517
H12   H     H_    0.169118 0.724643 0.905979 0.090927
H13   H     H_    0.724234 0.105893 0.475007 0.143803
H14   H     H_    0.807134 0.163388 0.002127 0.125047
H15   H     H_    0.193287 0.163619 0.997135 0.125147
H16   H     H_    0.306367 0.663824 0.003418 0.128443
H17   H     H_    0.693670 0.663647 0.996362 0.123729
H18   H     H_    0.289552 0.772890 0.856337 0.129045
H19   H     H_    0.711003 0.773364 0.142666 0.128477
H20   H     H_    0.789500 0.273001 0.856289 0.126484
H21   H     H_    0.210861 0.273377 0.143185 0.130825
H22   H     H_    0.826745 0.285984 0.192313 0.115327
H23   H     H_    0.330845 0.224591 0.094378 0.093064
H24   H     H_    0.173509 0.286386 0.807540 0.115875
H25   H     H_    0.326381 0.786328 0.192347 0.114402
H26   H     H_    0.673521 0.782219 0.801387 0.102725
H27   H     H_    0.862017 0.415051 0.835110 0.099430
H28   H     H_    0.138148 0.415337 0.164722 0.106717
H29   H     H_    0.361911 0.915076 0.835220 0.103236
H30   H     H_    0.638205 0.915083 0.164611 0.104588
H31   H     H_    0.914069 0.580352 0.360767 0.106688
H32   H     H_    0.078072 0.578059 0.647149 0.124495
H33   H     H_    0.424453 0.079123 0.351299 0.130783
H34   H     H_    0.669366 0.224359 0.905387 0.090441
H35   H     H_    0.574640 0.079372 0.649328 0.130719
H36   H     H_    0.886275 0.243013 0.016488 0.084781
H37   H     H_    0.113844 0.243023 0.983223 0.084959
H38   H     H_    0.386264 0.743052 0.016557 0.087115
H39   H     H_    0.615480 0.743404 0.980717 0.084900
H40   H     H_    0.898936 0.754467 0.173951 0.087826
H41   H     H_    0.101348 0.754859 0.822584 0.085928
H42   H     H_    0.398779 0.254935 0.177731 0.086528
H43   H     H_    0.601362 0.254987 0.822344 0.083693
H44   H     H_    0.846258 0.457481 0.382497 0.092723
H45   H     H_    0.291053 0.423938 0.468977 0.135009
H46   H     H_    0.153854 0.457708 0.617671 0.095635
H47   H     H_    0.345815 0.958345 0.382037 0.134639
H48   H     H_    0.653757 0.962136 0.620575 0.134490
H49   H     H_    0.809891 0.546931 0.910447 0.099734
H50   H     H_    0.190065 0.547274 0.089670 0.110255
H51   H     H_    0.309763 0.047017 0.910625 0.104210
H52   H     H_    0.690444 0.046972 0.088925 0.104766
H53   H     H_    0.377996 0.344803 0.303708 0.129738
H54   H     H_    0.620975 0.344853 0.696402 0.123633
H55   H     H_    0.855881 0.842929 0.306273 0.124034
H56   H     H_    0.708172 0.423833 0.530964 0.128472
H57   H     H_    0.124577 0.844562 0.696033 0.127284
H58   H     H_    0.109877 0.715290 0.257043 0.311327
H59   H     H_    0.113458 0.495776 0.370601 0.312330
H60   H     H_    0.418141 0.978162 0.542066 0.315696
H61   H     H_    0.587726 0.974913 0.455983 0.314939
H62   H     H_    0.776879 0.923906 0.467940 0.140808
H63   H     H_    0.210286 0.923865 0.531206 0.137875
H64   H     H_    0.893303 0.805774 0.604275 0.230099
N1    N     N_R   0.908660 0.628630 0.995840 -0.047476
N2    N     N_R   0.096530 0.421430 0.063580 -0.042495
N3    N     N_R   0.403470 0.921430 0.936420 -0.040301
N4    N     N_R   0.596530 0.921430 0.063580 -0.040751
N5    N     N_R   0.927500 0.575670 0.211370 -0.044167
N6    N     N_R   0.072500 0.575670 0.788630 -0.039830
N7    N     N_R   0.427500 0.075670 0.211370 -0.039763
N8    N     N_R   0.572500 0.075670 0.788630 -0.040340
N9    N     N_R   0.908660 0.365680 0.995820 -0.045109
N10   N     N_R   0.091340 0.365680 0.004180 -0.045383
N11   N     N_R   0.408660 0.865680 0.995820 -0.045010
N12   N     N_R   0.091340 0.628630 0.004160 -0.047070
N13   N     N_R   0.591340 0.865680 0.004180 -0.045401
N14   N     N_R   0.922310 0.631420 0.151980 -0.042521
N15   N     N_R   0.077690 0.631420 0.848020 -0.041836
N16   N     N_R   0.422310 0.131420 0.151980 -0.041596
N17   N     N_R   0.577690 0.131420 0.848020 -0.041251
N18   N     N_R   0.927500 0.426330 0.211360 -0.041363
N19   N     N_R   0.072500 0.426330 0.788640 -0.040913
N20   N     N_R   0.427500 0.926330 0.211360 -0.040807
N21   N     N_R   0.572500 0.926330 0.788640 -0.041300
N22   N     N_R   0.903470 0.570760 0.936440 -0.040346
N23   N     N_R   0.408660 0.128630 0.995840 -0.048296
N24   N     N_R   0.096530 0.570760 0.063560 -0.038406
N25   N     N_R   0.403470 0.070760 0.936440 -0.041852
N26   N     N_R   0.596530 0.070760 0.063560 -0.041802
N27   N     N_R   0.591340 0.128630 0.004160 -0.048399
N28   N     N_R   0.922310 0.368460 0.151950 -0.042919
N29   N     N_R   0.077690 0.368460 0.848050 -0.043234
N30   N     N_R   0.422310 0.868460 0.151950 -0.043670
N31   N     N_R   0.577690 0.868460 0.848050 -0.043909
N32   N     N_R   0.903470 0.421430 0.936420 -0.039616
Ni1   Ni    Ni4+2 1.000000 0.630300 0.000000 0.211495
Ni2   Ni    Ni4+2 0.500000 0.130300 0.000000 0.208242
Ni3   Ni    Ni4+2 0.000000 0.369700 0.000000 0.207675
Ni4   Ni    Ni4+2 0.500000 0.869700 0.000000 0.210454
Ni5   Ni    Ni4+2 0.988090 0.497570 0.863760 0.224660
Ni6   Ni    Ni4+2 0.011910 0.497570 0.136240 0.230926
Ni7   Ni    Ni4+2 0.488090 0.997570 0.863760 0.231472
Ni8   Ni    Ni4+2 0.511910 0.997570 0.136240 0.232101
O1    O     O_2   0.032910 0.787606 0.426198 -0.659921
O2    O     O_R   0.051901 0.690679 0.311556 -0.823110
O3    O     O_2   0.048193 0.596267 0.508877 -0.693867
O4    O     O_R   0.158961 0.526763 0.366731 -0.805369
O5    O     O_2   0.414150 0.114636 0.583843 -0.619349
O6    O     O_R   0.376887 0.006723 0.534748 -0.845190
O7    O     O_2   0.590064 0.110953 0.413834 -0.619135
O8    O     O_R   0.628086 0.004502 0.464112 -0.848679

loop_
_geom_bond_atom_site_label_1
_geom_bond_atom_site_label_2
_ccdc_geom_bond_type
C53   H18   S    
C88   O1    D    
C63   N6    A    
C83   C87   A    
C21   C26   A    
C59   H28   S    
C56   C76   A    
C55   H20   S    
C49   C87   S    
C11   C47   S    
C67   C77   A    
C60   N3    A    
C80   C84   A    
C18   H53   S    
C51   C85   S    
C4    C70   A    
C63   H32   S    
C39   H8    S    
N8    Ni7   S    
C7    C73   A    
C27   C33   A    
C43   C78   A    
C6    C72   A    
N11   Ni4   S    
C46   H10   S    
C82   N25   A    
N2    N10   A    
N2    Ni6   S    
C12   C85   A    
C65   H35   S    
C22   H45   S    
C3    C69   A    
C70   N13   A    
C12   H12   S    
C2    C68   A    
C10   C15   A    
C83   H52   S    
C59   N2    A    
C62   N5    A    
C90   O4    S    
C20   C25   A    
N17   Ni2   S    
N15   Ni1   S    
N10   Ni3   S    
C88   O2    S    
C52   C84   S    
N26   N27   A    
C62   H31   S    
C17   C19   A    
C71   H40   S    
C77   H47   S    
C54   H19   S    
C40   H22   S    
C29   C78   S    
C28   C35   A    
C66   H36   S    
C69   H38   S    
C23   C86   A    
C38   H3    S    
C10   C46   S    
N4    N13   A    
C79   N21   A    
C36   H5    S    
C45   C75   A    
C21   H57   S    
C23   N23   A    
C30   C67   S    
C92   O8    S    
C34   N27   A    
N4    Ni8   S    
H61   O8    S    
C3    C60   A    
C42   N30   A    
C79   H48   S    
C6    C15   S    
C8    C65   A    
C18   C22   A    
N5    Ni6   S    
C75   N18   A    
H60   O6    S    
C26   H63   S    
C60   H29   S    
C64   N7    A    
N25   Ni7   S    
N19   Ni5   S    
C37   H6    S    
C52   C54   D    
N29   Ni3   S    
C66   C89   A    
N1    Ni1   S    
C25   C29   A    
C40   C45   A    
C7    C64   A    
N22   Ni5   S    
C28   C45   S    
C2    C57   S    
C19   H54   S    
C47   H11   S    
N6    N15   A    
C58   N32   A    
N9    N32   A    
C72   N15   A    
C14   C20   A    
C11   C33   A    
C74   N17   A    
C24   H56   S    
C61   N4    A    
N18   N28   A    
C9    C31   A    
C78   C79   A    
C51   H16   S    
C57   H21   S    
C90   O3    D    
N16   Ni2   S    
C82   C86   A    
C4    C61   A    
N12   Ni1   S    
C83   N26   A    
C61   H30   S    
C1    C84   A    
C80   N22   A    
C6    C63   A    
N3    Ni7   S    
C9    C14   A    
C69   N11   A    
C41   C56   A    
N28   Ni3   S    
N19   N29   A    
C11   C16   A    
C48   H13   S    
N14   Ni1   S    
C43   N31   A    
C34   H34   S    
C49   C55   D    
C74   H43   S    
C8    C74   A    
N31   Ni4   S    
C20   H55   S    
C41   N29   A    
N8    N17   A    
C16   C18   A    
C32   C37   S    
N20   Ni8   S    
C73   N16   A    
N20   N30   A    
N7    N16   A    
N6    Ni5   S    
C5    C14   S    
C91   O5    D    
C92   O7    D    
N5    N14   A    
C1    H1    S    
C7    C16   S    
C2    C59   A    
N32   Ni5   S    
C26   C30   A    
C77   N20   A    
C37   H2    S    
C50   H15   S    
C82   H51   S    
C36   C44   S    
N26   Ni8   S    
C41   H24   S    
N27   Ni2   S    
N24   Ni6   S    
C64   H33   S    
C36   H64   S    
N7    Ni8   S    
C81   H50   S    
C9    C44   S    
N21   Ni7   S    
C66   N9    A    
C4    C54   S    
C25   H62   S    
C75   H44   S    
C50   C57   D    
C47   C91   S    
H59   O4    S    
C76   N19   A    
C24   C28   A    
C81   N24   A    
C38   H7    S    
C12   N12   A    
C13   C48   S    
C44   H9    S    
C42   H25   S    
C13   C35   A    
C49   H14   S    
C46   C90   S    
C76   H46   S    
C27   C56   S    
C8    C17   S    
N21   N31   A    
C38   C47   S    
C22   C27   A    
N1    N22   A    
C1    N1    A    
C19   C24   A    
C5    C71   A    
N12   N24   A    
C30   C32   A    
C3    C53   S    
C72   H41   S    
C42   C67   A    
N23   Ni2   S    
C52   H17   S    
C35   C39   S    
C65   N8    A    
C70   H39   S    
N9    Ni3   S    
N3    N11   A    
C5    C62   A    
C34   C87   A    
N30   Ni4   S    
C68   H37   S    
C55   C89   S    
C58   C89   A    
C71   N14   A    
C39   H4    S    
C91   O6    S    
C50   C86   S    
C43   H26   S    
C23   H23   S    
C13   C17   A    
N18   Ni6   S    
C10   C32   A    
C15   C21   A    
C58   H27   S    
C73   H42   S    
C29   C31   A    
C80   H49   S    
C48   C92   S    
C31   C36   S    
C33   C38   S    
N23   N25   A    
N13   Ni4   S    
C51   C53   D    
C37   C46   S    
C44   C88   S    
H58   O2    S    
C81   C85   A    
C39   C48   S    
C40   N28   A    
C68   N10   A    
