data_mof_unit_28413.cif
_audit_creation_date              2012-12-10T19:01:21-0500
_audit_creation_method            fapswitch 2.2
_symmetry_space_group_name_H-M    P1
_symmetry_Int_Tables_number       1
_space_group_crystal_system       triclinic
_cell_length_a                    9.601302
_cell_length_b                    10.870753
_cell_length_c                    15.407019
_cell_angle_alpha                 88.320555
_cell_angle_beta                  74.392247
_cell_angle_gamma                 90.822927
_cell_volume                      1547.70778855

loop_
_atom_site_label
_atom_site_type_symbol
_atom_type_description
_atom_site_fract_x
_atom_site_fract_y
_atom_site_fract_z
_atom_type_partial_charge
C1    C     C_R   0.999015 0.262635 0.500378 0.805876
C2    C     C_R   0.673650 0.501828 0.910431 0.061904
C3    C     C_R   0.769341 0.462296 0.960954 0.031757
C4    C     C_R   0.527532 0.527390 0.955310 0.071326
C5    C     C_R   0.471372 0.491599 0.047733 0.059031
C6    C     C_R   0.567442 0.445918 0.095198 -0.176749
C7    C     C_R   0.712872 0.431634 0.052871 -0.228175
C8    C     C_R   0.440137 0.597386 0.912722 -0.176361
C9    C     C_R   0.304232 0.634712 0.960642 -0.131248
C10   C     C_R   0.246602 0.596021 0.050315 0.106114
C11   C     C_R   0.324044 0.514006 0.092253 0.051216
C12   C     C_R   0.918545 0.503174 0.672688 0.872734
C13   C     C_R   0.112905 0.640008 0.098951 -0.229213
C14   C     C_R   0.056081 0.604401 0.189044 -0.251163
C15   C     C_R   0.252329 0.461514 0.178496 0.195006
C16   C     C_R   0.108619 0.065420 0.524910 0.188354
C17   C     C_R   0.994653 0.129366 0.506116 -0.110998
C18   C     C_R   0.874682 0.062657 0.495306 -0.243717
C19   C     C_R   0.875054 0.934609 0.496404 -0.207671
C20   C     C_R   0.997405 0.871163 0.505335 -0.097531
C21   C     C_R   0.110594 0.938350 0.523935 0.136673
C22   C     C_3   0.268604 0.940009 0.477482 -0.515099
C23   C     C_R   0.000531 0.737703 0.500197 0.784836
C24   C     C_3   0.266462 0.078824 0.479733 -0.441110
C25   C     C_R   0.605603 0.545777 0.427235 0.186204
C26   C     C_R   0.545548 0.433763 0.564028 0.243573
C27   C     C_R   0.397123 0.431639 0.562513 0.423855
C28   C     C_R   0.459166 0.545500 0.427213 0.172465
C29   C     C_3   0.473080 0.670913 0.384969 -0.478356
C30   C     C_3   0.631212 0.672035 0.385370 -0.475281
C31   C     C_R   0.081486 0.500679 0.327998 0.768583
C32   C     C_R   0.873646 0.503149 0.772809 -0.195379
C33   C     C_R   0.126533 0.517386 0.229793 -0.096559
C34   C     C_R   0.919777 0.458363 0.918421 0.174507
C35   C     C_R   0.971555 0.490382 0.826197 0.393607
C36   C     C_R   0.726367 0.512766 0.816214 -0.323367
Cu1   Cu    Cu3+1 0.140670 0.499980 0.500000 1.011518
Cu2   Cu    Cu3+1 0.859330 0.500020 0.500000 0.961277
H1    H     H_    0.779584 0.396828 0.094014 0.148964
H2    H     H_    0.054820 0.705333 0.068134 0.152240
H3    H     H_    0.783958 0.108834 0.481167 0.164871
H4    H     H_    0.782313 0.886345 0.485724 0.158469
H5    H     H_    0.332682 0.899198 0.520937 0.207250
H6    H     H_    0.291507 0.906494 0.407653 0.198863
H7    H     H_    0.328298 0.116614 0.524738 0.231655
H8    H     H_    0.289818 0.124598 0.411646 0.191503
H9    H     H_    0.456766 0.671435 0.316206 0.196905
H10   H     H_    0.408434 0.736157 0.431588 0.212013
H11   H     H_    0.706600 0.673125 0.316590 0.187309
H12   H     H_    0.656492 0.740339 0.431237 0.204141
H13   H     H_    0.958715 0.647114 0.227560 0.157410
H14   H     H_    0.244243 0.695166 0.927427 0.171144
H15   H     H_    0.652530 0.526583 0.775327 0.181743
H16   H     H_    0.535022 0.429322 0.167294 0.181033
H17   H     H_    0.479110 0.633926 0.844423 0.157378
N1    N     N_R   0.648210 0.500930 0.499430 -0.218378
N2    N     N_R   0.352300 0.500890 0.499430 -0.228212
O1    O     O_R   0.118810 0.319640 0.500000 -0.544436
O2    O     O_R   0.881230 0.319680 0.499990 -0.572406
O3    O     O_R   0.055580 0.499970 0.629840 -0.477767
O4    O     O_R   0.818000 0.500010 0.629830 -0.569119
O5    O     O_R   0.118770 0.680320 0.500010 -0.574305
O6    O     O_R   0.881190 0.680360 0.500000 -0.590140
O7    O     O_R   0.182000 0.499990 0.370170 -0.590152
O8    O     O_R   0.944420 0.500030 0.370160 -0.576874
N3    N     N_2   0.585671 0.369483 0.634920 -0.363237
H18   H     H_    0.530457 0.397129 0.698114 0.266634
C37   C     C_3   0.592401 0.236766 0.629497 -0.579196
H19   H     H_    0.503444 0.192154 0.683261 0.230670
H20   H     H_    0.696234 0.206067 0.640340 0.227408
H21   H     H_    0.582950 0.205543 0.563235 0.201231
Cl1   Cl    Cl    0.275064 0.329484 0.637471 -0.606849
N4    N     N_2   0.296404 0.346430 0.208981 -0.452273
H22   H     H_    0.260641 0.325499 0.277025 0.258891
C38   C     C_3   0.278428 0.242198 0.156337 -0.711436
H23   H     H_    0.319248 0.158264 0.183241 0.227671
H24   H     H_    0.340749 0.256925 0.084750 0.246289
H25   H     H_    0.162070 0.227033 0.160430 0.223489
N5    N     N_2   0.021844 0.427841 0.967368 -0.396605
H26   H     H_    0.997765 0.455747 0.032730 0.256673
C39   C     C_3   0.071503 0.302815 0.957720 -0.611818
H27   H     H_    0.158868 0.290649 0.991717 0.220276
H28   H     H_    0.115849 0.282388 0.885382 0.274525
H29   H     H_    0.980974 0.237150 0.989130 0.200315
Cl2   Cl    Cl    0.157231 0.529112 0.784013 -0.596201

loop_
_geom_bond_atom_site_label_1
_geom_bond_atom_site_label_2
_ccdc_geom_bond_type
C8    C9    A    
N3    C37   S    
C16   C21   A    
N4    H22   S    
C19   C20   A    
C25   N1    A    
C4    C8    A    
C39   H29   S    
C14   C33   A    
Cu1   O5    S    
C28   N2    A    
C25   C28   A    
C26   C27   A    
Cu1   Cu2   S    
C29   H9    S    
C24   H7    S    
C32   C36   A    
C28   C29   S    
C5    C11   A    
C3    C7    A    
C1    O2    A    
C5    C6    A    
C34   C35   A    
C13   H2    S    
C36   H15   S    
C37   H19   S    
C11   C15   A    
C23   O5    A    
C22   H6    S    
C14   H13   S    
C16   C17   A    
C31   C33   S    
C9    C10   A    
Cu1   O1    S    
C19   H4    S    
Cu2   O4    S    
C23   O6    A    
N3    H18   S    
C30   H12   S    
C16   C24   S    
C13   C14   A    
C12   C32   S    
N4    C38   S    
C9    H14   S    
C6    H16   S    
C8    H17   S    
C39   H28   S    
C39   H27   S    
C29   H10   S    
C26   N3    S    
C32   C35   A    
C27   N2    A    
C18   H3    S    
N5    C39   S    
C18   C19   A    
C3    C34   A    
Cu2   O2    S    
C2    C4    A    
C38   H23   S    
C29   C30   S    
C34   N5    S    
C22   H5    S    
C20   C23   S    
C17   C18   A    
C38   H24   S    
C15   N4    S    
C30   H11   S    
C22   C24   S    
Cu1   O7    S    
Cu2   O6    S    
C2    C36   A    
C25   C30   S    
C31   O8    A    
C31   O7    A    
C4    C5    A    
C10   C13   A    
C26   N1    A    
C6    C7    A    
C1    C17   S    
C24   H8    S    
C2    C3    A    
C1    O1    A    
C12   O4    A    
C35   Cl2   S    
C37   H21   S    
C38   H25   S    
Cu1   O3    S    
C10   C11   A    
N5    H26   S    
C12   O3    A    
Cu2   N1    S    
C20   C21   A    
C37   H20   S    
C7    H1    S    
C21   C22   S    
Cu2   O8    S    
C15   C33   A    
Cu1   N2    S    
C27   Cl1   S    
