data_mof_unit_46918.cif
_audit_creation_date              2012-12-11T14:49:43-0500
_audit_creation_method            fapswitch 2.2
_symmetry_space_group_name_H-M    P1
_symmetry_Int_Tables_number       1
_space_group_crystal_system       triclinic
_cell_length_a                    16.49771
_cell_length_b                    7.256737
_cell_length_c                    17.602562
_cell_angle_alpha                 90.004288
_cell_angle_beta                  99.894701
_cell_angle_gamma                 89.997088
_cell_volume                      2076.02399419

loop_
_atom_site_label
_atom_site_type_symbol
_atom_type_description
_atom_site_fract_x
_atom_site_fract_y
_atom_site_fract_z
_atom_type_partial_charge
O1    O     O_R   0.579510 0.506290 0.439030 -0.534432
O2    O     O_R   0.420490 0.006290 0.560970 -0.534405
O3    O     O_R   0.412540 0.170090 0.405290 -0.511983
O4    O     O_R   0.587460 0.670090 0.594710 -0.512009
C1    C     C_R   0.386319 0.345785 0.381881 0.707697
C2    C     C_R   0.613681 0.845784 0.618118 0.707814
O5    O     O_R   0.578390 0.176230 0.429330 -0.518209
O6    O     O_R   0.421610 0.676230 0.570670 -0.518268
O7    O     O_R   0.587530 0.011250 0.585190 -0.532948
O8    O     O_R   0.412470 0.511250 0.414810 -0.532995
C3    C     C_R   0.602322 0.345432 0.412204 0.759616
C4    C     C_R   0.397678 0.845442 0.587796 0.759597
O9    O     O_3   0.502800 0.340940 0.551110 -0.377068
O10   O     O_3   0.497200 0.840940 0.448890 -0.377063
V1    V     V_3+5 0.499480 0.064020 0.490520 1.644848
V2    V     V_3+5 0.500520 0.564020 0.509480 1.644681
C5    C     C_R   0.170769 0.911952 0.862007 -0.169058
C6    C     C_R   0.829242 0.412030 0.138013 -0.169051
C7    C     C_R   0.333484 0.857762 0.637965 -0.122080
C8    C     C_R   0.666525 0.357728 0.362044 -0.122132
C9    C     C_R   0.192792 0.937661 0.652690 -0.132436
C10   C     C_R   0.807261 0.437402 0.347362 -0.132549
C11   C     C_R   0.252078 0.898355 0.605816 0.393898
C12   C     C_R   0.747952 0.398074 0.394217 0.394102
C13   C     C_R   0.352697 0.827439 0.717442 -0.238939
C14   C     C_R   0.647289 0.327673 0.282550 -0.239017
C15   C     C_R   0.293093 0.853982 0.766215 0.072249
C16   C     C_R   0.706901 0.354202 0.233790 0.072253
C17   C     C_R   0.214663 0.927023 0.734608 0.047317
C18   C     C_R   0.785370 0.427000 0.265429 0.047352
C19   C     C_R   0.159839 0.982387 0.785547 -0.096866
C20   C     C_R   0.840192 0.482405 0.214495 -0.096887
C21   C     C_R   0.249958 0.843273 0.893076 -0.091643
C22   C     C_R   0.750029 0.343507 0.106924 -0.091701
C23   C     C_R   0.310481 0.811318 0.845759 -0.057576
C24   C     C_R   0.689477 0.311739 0.154226 -0.057673
H1    H     H_    0.414717 0.783512 0.740063 0.139767
H2    H     H_    0.585246 0.283931 0.259902 0.139788
C25   C     C_3   0.757408 0.740051 0.819842 0.258665
C26   C     C_3   0.242589 0.240013 0.180163 0.258637
H3    H     H_    0.790278 0.620431 0.805936 0.127250
H4    H     H_    0.209719 0.120412 0.194086 0.127203
C27   C     C_3   0.676325 0.746537 0.761241 0.114469
C28   C     C_3   0.323677 0.246516 0.238758 0.114433
H5    H     H_    0.630146 0.804953 0.792044 0.245909
H6    H     H_    0.369853 0.304924 0.207952 0.245890
C29   C     C_3   0.851130 0.879048 0.734479 -0.257642
C30   C     C_3   0.148871 0.379109 0.265520 -0.257619
C31   C     C_3   0.750725 0.087304 0.802737 0.234045
C32   C     C_3   0.249275 0.587281 0.197256 0.234037
C33   C     C_3   0.812812 0.914017 0.811850 -0.304839
C34   C     C_3   0.187188 0.414013 0.188149 -0.304752
C35   C     C_3   0.686428 0.867805 0.688878 -0.295658
C36   C     C_3   0.313573 0.367812 0.311120 -0.295746
C37   C     C_3   0.775520 0.825497 0.663825 -0.219998
C38   C     C_3   0.224481 0.325542 0.336173 -0.219928
C39   C     C_3   0.685388 0.070900 0.723338 0.190472
C40   C     C_3   0.314612 0.570893 0.276657 0.190471
O11   O     O_R   0.087500 0.266000 0.085220 -0.531939
O12   O     O_R   0.912500 0.766000 0.914780 -0.531930
O13   O     O_R   0.921600 0.589950 0.070670 -0.531452
O14   O     O_R   0.078400 0.089950 0.929330 -0.531405
C41   C     C_R   0.896192 0.422025 0.087793 0.621903
C42   C     C_R   0.103819 0.922009 0.912221 0.621997
O15   O     O_R   0.087460 0.596020 0.094710 -0.563881
O16   O     O_R   0.912540 0.096020 0.905290 -0.563909
O17   O     O_R   0.079520 0.760970 0.939020 -0.531966
O18   O     O_R   0.920480 0.260970 0.060980 -0.531977
C43   C     C_R   0.116892 0.427465 0.116028 0.708554
C44   C     C_R   0.883111 0.927466 0.883969 0.708520
O19   O     O_3   0.997180 0.425140 0.948910 -0.380724
O20   O     O_3   0.002820 0.925140 0.051090 -0.380745
V3    V     V_3+5 0.000520 0.702080 0.009480 1.503532
V4    V     V_3+5 0.999480 0.202080 0.990520 1.503539
C45   C     C_2   0.106340 0.146970 0.766758 0.440277
H7    H     H_    0.058258 0.177953 0.798741 0.055874
O21   O     O_2   0.120338 0.260349 0.719434 -0.475695
C46   C     C_2   0.893673 0.647040 0.233305 0.439234
H8    H     H_    0.941592 0.678397 0.201156 0.056339
O22   O     O_2   0.879824 0.760115 0.280858 -0.475729
Cl1   Cl    Cl    0.631553 0.529005 0.745249 -0.632889
Cl2   Cl    Cl    0.368458 0.028982 0.254751 -0.632832
C47   C     C_2   0.917981 0.727406 0.750723 0.432451
H9    H     H_    0.917417 0.624191 0.794648 0.108354
O23   O     O_2   0.972573 0.712983 0.712130 -0.485289
C48   C     C_2   0.082015 0.227494 0.249279 0.431997
H10   H     H_    0.082552 0.124299 0.205332 0.108439
O24   O     O_2   0.027455 0.213049 0.287913 -0.485343
C49   C     C_2   0.777761 0.623364 0.644127 0.667700
H11   H     H_    0.720553 0.555747 0.626177 0.160090
O25   O     O_2   0.840264 0.545625 0.632999 -0.402235
C50   C     C_2   0.222243 0.123399 0.355849 0.667818
H12   H     H_    0.279450 0.055787 0.373803 0.160078
O26   O     O_2   0.159741 0.045640 0.366956 -0.402210
C51   C     C_2   0.794178 0.272518 0.814130 0.482935
H13   H     H_    0.798868 0.344382 0.868468 0.097210
O27   O     O_2   0.829627 0.341675 0.766268 -0.541942
C52   C     C_2   0.205825 0.772507 0.185864 0.482960
H14   H     H_    0.201187 0.844414 0.131543 0.097238
O28   O     O_2   0.170325 0.841634 0.233706 -0.541882
Cl3   Cl    Cl    0.696896 0.086246 0.883471 -0.530573
Cl4   Cl    Cl    0.303095 0.586149 0.116514 -0.530584
C53   C     C_2   0.595915 0.129485 0.729730 0.546335
H15   H     H_    0.563047 0.224185 0.687873 0.149383
O29   O     O_2   0.555806 0.064433 0.775376 -0.513469
C54   C     C_2   0.404083 0.629464 0.270266 0.546260
H16   H     H_    0.436958 0.724127 0.312141 0.149385
O30   O     O_2   0.444177 0.564459 0.224589 -0.513508
Cl5   Cl    Cl    0.710845 0.225725 0.652584 -0.630246
Cl6   Cl    Cl    0.289148 0.725750 0.347405 -0.630358
C55   C     C_2   0.902763 0.044805 0.719613 0.561664
H17   H     H_    0.929376 0.128024 0.767805 0.054291
O31   O     O_2   0.929502 0.066879 0.659852 -0.491970
C56   C     C_2   0.097232 0.544895 0.280370 0.562226
H18   H     H_    0.070528 0.627913 0.232142 0.053944
O32   O     O_2   0.070590 0.567201 0.340168 -0.491908
C57   C     C_2   0.780565 0.914245 0.584960 0.586008
H19   H     H_    0.809244 0.044932 0.579534 0.211738
O33   O     O_2   0.746224 0.845434 0.524364 -0.517894
C58   C     C_2   0.219444 0.414284 0.415051 0.585968
H20   H     H_    0.190827 0.545052 0.420497 0.211692
O34   O     O_2   0.253733 0.345364 0.475644 -0.517802
C59   C     C_2   0.273503 0.839715 0.977548 0.705896
H21   H     H_    0.226818 0.818979 0.012571 0.021374
O35   O     O_2   0.343818 0.874001 0.009022 -0.422263
C60   C     C_2   0.726521 0.339854 0.022449 0.705647
H22   H     H_    0.773220 0.318911 0.987453 0.021441
O36   O     O_2   0.656232 0.374271 0.990937 -0.422308
C61   C     C_2   0.105868 0.963900 0.615484 0.703189
H23   H     H_    0.057614 0.901980 0.640963 0.102214
O37   O     O_2   0.087602 0.058341 0.557645 -0.412020
C62   C     C_2   0.894208 0.463570 0.384578 0.703713
H24   H     H_    0.942502 0.402508 0.358869 0.102127
O38   O     O_2   0.912478 0.557121 0.442675 -0.412080
C63   C     C_2   0.390107 0.722198 0.878828 0.585181
H25   H     H_    0.447782 0.775947 0.866523 0.099712
O39   O     O_2   0.391507 0.586087 0.919824 -0.443182
C64   C     C_2   0.609752 0.223066 0.121118 0.585149
H26   H     H_    0.552113 0.277329 0.133353 0.099937
O40   O     O_2   0.608228 0.086780 0.080178 -0.443074
Cl7   Cl    Cl    0.222398 0.866257 0.506626 -0.511448
Cl8   Cl    Cl    0.777580 0.365739 0.493399 -0.511323
Cl9   Cl    Cl    0.738460 0.689161 0.915356 -0.529401
Cl10  Cl    Cl    0.261533 0.189046 0.084650 -0.529423

loop_
_geom_bond_atom_site_label_1
_geom_bond_atom_site_label_2
_ccdc_geom_bond_type
C25   C33   S    
C60   H22   S    
C15   C17   A    
C51   H13   S    
C37   C49   S    
C12   Cl8   S    
C55   H17   S    
O1    C3    A    
O2    C4    A    
C2    O7    A    
C56   H18   S    
O15   V3    S    
C59   H21   S    
C25   H3    S    
O5    C3    A    
C54   O30   D    
C29   C37   S    
C28   Cl2   S    
C57   O33   D    
C5    C42   S    
C31   Cl3   S    
C46   O22   D    
C6    C41   S    
C59   O35   D    
C54   H16   S    
O18   V4    S    
O16   V4    S    
O12   V3    S    
C31   C39   S    
C30   C38   S    
O13   C41   A    
O14   C42   A    
C34   C43   S    
C13   H1    S    
C27   C35   S    
C39   Cl5   S    
C8    C12   A    
C28   H6    S    
C62   H24   S    
C31   C33   S    
C32   C34   S    
O17   V3    S    
C33   C44   S    
C29   C47   S    
C49   O25   D    
C22   C60   S    
O5    V1    S    
O6    V2    S    
C40   Cl6   S    
C26   H4    S    
C38   C58   S    
O12   C44   A    
C5    C21   A    
C58   O34   D    
C35   C37   S    
C39   C53   S    
C36   C38   S    
C3    C8    S    
C32   C52   S    
C48   O24   D    
C32   C40   S    
C42   O17   A    
C1    C36   S    
C63   H25   S    
O20   V4    S    
C23   C63   S    
O19   V3    S    
C35   C39   S    
C46   H8    S    
C14   H2    S    
C30   C48   S    
C29   C33   S    
C15   C23   A    
C26   C34   S    
C9    C17   A    
C56   O32   D    
C40   C54   S    
O4    V2    S    
C7    C11   A    
C45   H7    S    
C29   C55   S    
C45   O21   D    
C19   C45   S    
C47   H9    S    
C30   C34   S    
O6    C4    A    
C50   O26   D    
C55   O31   D    
O1    V2    S    
C31   C51   S    
O2    V1    S    
C6    C22   A    
O11   V4    S    
C9    C61   S    
C64   O40   D    
O11   C43   A    
C62   O38   D    
C37   C57   S    
O4    C2    A    
C47   O23   D    
C25   Cl9   S    
C32   Cl4   S    
C52   O28   D    
C9    C11   A    
C5    C19   A    
C53   O29   D    
C10   C12   A    
C6    C20   A    
C2    C35   S    
O3    V1    S    
C58   H20   S    
C30   C56   S    
C61   H23   S    
C36   C40   S    
C63   O39   D    
C41   O18   A    
C60   O36   D    
C10   C18   A    
C27   Cl1   S    
C10   C62   S    
C48   H10   S    
O14   V4    S    
O20   V3    S    
O3    C1    A    
O19   V4    S    
C25   C27   S    
C51   O27   D    
C13   C15   A    
C14   C16   A    
O13   V3    S    
C26   Cl10  S    
O7    V1    S    
C1    O8    A    
C27   H5    S    
O8    V2    S    
C57   H19   S    
C18   C20   A    
O16   C44   A    
C8    C14   A    
O15   C43   A    
C4    C7    S    
C16   C18   A    
C50   H12   S    
C21   C23   A    
C22   C24   A    
C7    C13   A    
C64   H26   S    
C20   C46   S    
C28   C36   S    
C26   C28   S    
C16   C24   A    
C17   C19   A    
C52   H14   S    
O9    V2    S    
C53   H15   S    
C21   C59   S    
O10   V1    S    
C11   Cl7   S    
C49   H11   S    
C38   C50   S    
C24   C64   S    
C61   O37   D    
