data_mof_unit_66072.cif
_audit_creation_date              2012-12-10T17:45:24-0500
_audit_creation_method            fapswitch 2.2
_symmetry_space_group_name_H-M    P1
_symmetry_Int_Tables_number       1
_space_group_crystal_system       triclinic
_cell_length_a                    17.931802
_cell_length_b                    17.89138
_cell_length_c                    17.690519
_cell_angle_alpha                 115.036557
_cell_angle_beta                  93.014351
_cell_angle_gamma                 68.946712
_cell_volume                      4765.70246132

loop_
_atom_site_label
_atom_site_type_symbol
_atom_type_description
_atom_site_fract_x
_atom_site_fract_y
_atom_site_fract_z
_atom_type_partial_charge
Br1   Br    Br    0.588174 0.482834 0.183217 -0.412859
Br2   Br    Br    0.206051 0.742739 0.709797 -0.360289
Br3   Br    Br    0.954316 0.260174 0.199223 -0.425347
Br4   Br    Br    0.335218 0.347220 0.892441 -0.235059
Br5   Br    Br    0.587112 0.711091 0.816018 -0.396826
Br6   Br    Br    0.353852 0.489403 0.832580 -0.368351
Br7   Br    Br    0.259669 0.395001 0.073501 -0.357438
Br8   Br    Br    0.335008 0.867785 0.712031 -0.336799
Br9   Br    Br    0.295662 0.184581 0.693678 -0.388190
Br10  Br    Br    0.619332 0.947661 0.190082 -0.484119
Br11  Br    Br    0.537637 0.209415 0.594147 -0.434951
C1    C     C_R   0.464130 0.463872 0.287286 0.542480
C2    C     C_R   0.913254 0.606127 0.564904 -0.099094
C3    C     C_R   0.952835 0.660044 0.614662 -0.128823
C4    C     C_R   0.534296 0.537867 0.713425 0.530325
C5    C     C_R   0.036064 0.632054 0.600408 -0.020834
C6    C     C_R   0.080905 0.549283 0.532659 0.025496
C7    C     C_R   0.074504 0.687376 0.652668 -0.100356
C8    C     C_R   0.157168 0.662536 0.638473 0.118120
C9    C     C_R   0.166211 0.520077 0.525763 0.205225
C10   C     C_R   0.538606 0.565501 0.804932 -0.019849
C11   C     C_R   0.446771 0.449192 0.201790 0.007841
C12   C     C_R   0.832165 0.365279 0.338239 -0.125929
C13   C     C_R   0.557557 0.664325 0.944436 0.292712
C14   C     C_R   0.559746 0.638843 0.857284 0.165036
C15   C     C_R   0.513173 0.522015 0.841986 -0.117164
C16   C     C_R   0.463598 0.730032 0.553581 0.595305
C17   C     C_R   0.496721 0.556772 0.929473 -0.010813
C18   C     C_R   0.523275 0.625804 0.980782 -0.015828
C19   C     C_R   0.458686 0.521383 0.967435 -0.028194
C20   C     C_R   0.468597 0.538082 0.052235 0.014318
C21   C     C_R   0.486489 0.614049 0.104094 0.287679
C22   C     C_R   0.513827 0.656493 0.068004 -0.079139
C23   C     C_R   0.840943 0.471730 0.476749 0.221460
C24   C     C_R   0.407693 0.474762 0.926424 0.162746
C25   C     C_R   0.379220 0.433482 0.964411 0.223014
C26   C     C_R   0.395198 0.444361 0.047043 -0.017751
C27   C     C_R   0.449751 0.486822 0.085557 -0.026796
C28   C     C_R   0.536804 0.269110 0.446022 0.523391
C29   C     C_R   0.357526 0.417845 0.095005 0.186689
C30   C     C_R   0.382398 0.423226 0.172528 -0.129312
C31   C     C_R   0.483741 0.476537 0.156369 0.194171
C32   C     C_R   0.547681 0.175290 0.418930 -0.004942
C33   C     C_R   0.447567 0.822398 0.572854 0.046623
C34   C     C_R   0.915834 0.465841 0.447504 -0.004897
C35   C     C_R   0.578901 0.026765 0.306013 0.157589
C36   C     C_R   0.572974 0.114501 0.334369 -0.112797
C37   C     C_R   0.528364 0.147083 0.475773 0.118241
C38   C     C_R   0.520036 0.063804 0.444832 0.009391
C39   C     C_R   0.552414 0.000599 0.361118 0.038924
C40   C     C_R   0.288202 0.555260 0.554228 0.590181
C41   C     C_R   0.480340 0.041564 0.494750 0.014138
C42   C     C_R   0.493113 0.951416 0.471589 0.026017
C43   C     C_R   0.529927 0.888498 0.389511 -0.122228
C44   C     C_R   0.556586 0.913336 0.334579 -0.110381
C45   C     C_R   0.953084 0.399104 0.366078 0.013687
C46   C     C_R   0.420405 0.108006 0.560836 -0.058985
C47   C     C_R   0.380966 0.087423 0.610154 0.171380
C48   C     C_R   0.403609 0.998728 0.597181 -0.018570
C49   C     C_R   0.462336 0.929301 0.528800 -0.008423
C50   C     C_R   0.367747 0.978186 0.650675 -0.073602
C51   C     C_R   0.388122 0.890800 0.637688 0.106717
C52   C     C_R   0.712625 0.445839 0.446050 0.522419
C53   C     C_R   0.488093 0.841180 0.521540 0.198129
C54   C     C_R   0.796781 0.426501 0.420197 -0.013118
C55   C     C_R   0.202792 0.579281 0.574622 0.056119
C56   C     C_R   0.955533 0.522878 0.497677 0.030375
C57   C     C_R   0.910474 0.349198 0.311718 0.151098
C58   C     C_3   0.666791 0.702188 0.990506 0.025600
C59   C     C_3   0.696121 0.675458 0.061190 -0.376759
C60   C     C_3   0.391708 0.706363 0.217425 -0.016822
C61   C     C_3   0.376268 0.742935 0.312378 -0.327205
C62   C     C_3   0.223453 0.379275 0.513983 -0.000227
C63   C     C_3   0.284379 0.286704 0.460497 -0.342939
C64   C     C_3   0.624318 0.773125 0.503059 -0.004977
C65   C     C_3   0.694880 0.691259 0.446130 -0.331019
C66   C     C_3   0.844979 0.462597 0.601304 -0.001896
C67   C     C_R   0.038494 0.499500 0.475705 0.030751
C68   C     C_3   0.808802 0.511818 0.692878 -0.338699
C69   C     C_R   0.074053 0.432326 0.394813 -0.115282
C70   C     C_R   0.031628 0.384479 0.340602 -0.104723
H1    H     H_    0.061623 0.335388 0.278668 0.188514
H2    H     H_    0.322908 0.029486 0.702686 0.216593
H3    H     H_    0.917949 0.724111 0.664868 0.133213
H4    H     H_    0.799069 0.329108 0.294513 0.194392
H5    H     H_    0.132851 0.419816 0.369239 0.195306
H6    H     H_    0.848438 0.633917 0.576728 0.178959
H7    H     H_    0.685330 0.757682 0.998170 0.218105
H8    H     H_    0.698128 0.645943 0.928892 0.126504
H9    H     H_    0.684156 0.615671 0.052112 0.156778
H10   H     H_    0.761947 0.659578 0.061040 0.140426
H11   H     H_    0.665213 0.730812 0.122861 0.186628
H12   H     H_    0.039985 0.751030 0.703578 0.166645
H13   H     H_    0.351678 0.668889 0.188705 0.142333
H14   H     H_    0.376088 0.763332 0.200903 0.145262
H15   H     H_    0.412982 0.783513 0.343509 0.165671
H16   H     H_    0.311691 0.785397 0.333941 0.116534
H17   H     H_    0.392189 0.687433 0.330740 0.201654
H18   H     H_    0.164952 0.373664 0.522688 0.146393
H19   H     H_    0.245455 0.405545 0.576389 0.181687
H20   H     H_    0.344008 0.289910 0.452433 0.170831
H21   H     H_    0.290394 0.242706 0.491580 0.119803
H22   H     H_    0.264182 0.258222 0.397782 0.168256
H23   H     H_    0.528027 0.713464 0.109191 0.174383
H24   H     H_    0.621352 0.771493 0.565114 0.167430
H25   H     H_    0.635667 0.833312 0.511646 0.151524
H26   H     H_    0.700585 0.691479 0.384016 0.173277
H27   H     H_    0.751450 0.691076 0.474925 0.104731
H28   H     H_    0.685472 0.630091 0.437123 0.182977
H29   H     H_    0.911419 0.444065 0.599118 0.142965
H30   H     H_    0.831057 0.401104 0.571600 0.134967
H31   H     H_    0.742590 0.529695 0.696988 0.195565
H32   H     H_    0.834969 0.468827 0.725506 0.110481
H33   H     H_    0.821919 0.573425 0.724554 0.175397
H34   H     H_    0.350609 0.407870 0.211022 0.152725
H35   H     H_    0.506123 0.460386 0.801566 0.201675
H36   H     H_    0.580928 0.863051 0.271309 0.164278
H37   H     H_    0.589087 0.134882 0.290031 0.184509
H38   H     H_    0.532746 0.821035 0.363368 0.192736
H39   H     H_    0.399812 0.176716 0.571386 0.178235
O1    O     O_3   0.500000 0.500000 0.500000 -0.472884
O2    O     O_R   0.309700 0.585900 0.509470 -0.523159
O3    O     O_R   0.674980 0.398780 0.398780 -0.543934
O4    O     O_R   0.340340 0.501790 0.578230 -0.509925
O5    O     O_R   0.674980 0.513530 0.513520 -0.492891
O6    O     O_3   0.581643 0.733277 0.995526 -0.511479
O7    O     O_3   0.473592 0.650878 0.190857 -0.530232
O8    O     O_3   0.215355 0.433982 0.472904 -0.592051
O9    O     O_3   0.552989 0.772219 0.465452 -0.582928
O10   O     O_3   0.811652 0.518607 0.561189 -0.554220
O11   O     O_R   0.524320 0.685780 0.578230 -0.507245
O12   O     O_R   0.567430 0.291230 0.398780 -0.553558
O13   O     O_R   0.417260 0.532000 0.348010 -0.551458
O14   O     O_R   0.490990 0.490990 0.674980 -0.503517
O15   O     O_R   0.524330 0.409580 0.302030 -0.502359
O16   O     O_R   0.567420 0.567430 0.674980 -0.506377
O17   O     O_R   0.417260 0.693460 0.509470 -0.528768
O18   O     O_R   0.490990 0.329540 0.513520 -0.497303
Zn1   Zn    Zn3+2 0.565540 0.565550 0.565540 1.017904
Zn2   Zn    Zn3+2 0.412570 0.576510 0.467300 0.997831
Zn3   Zn    Zn3+2 0.456340 0.456340 0.565550 1.024584
Zn4   Zn    Zn3+2 0.565550 0.401610 0.401610 0.980837

loop_
_geom_bond_atom_site_label_1
_geom_bond_atom_site_label_2
_ccdc_geom_bond_type
C62   H19   S    
C10   C15   A    
C52   C54   S    
C29   C30   A    
C1    C11   S    
C22   H23   S    
C16   O11   A    
C62   C63   S    
C59   H10   S    
C3    H3    S    
Br4   C25   S    
C70   H1    S    
C45   C70   A    
C60   H13   S    
C61   H17   S    
C42   C43   A    
O5    Zn1   S    
C16   O17   A    
C68   H31   S    
O1    Zn2   S    
C9    C55   A    
C17   C18   A    
C27   C31   A    
C26   C29   A    
C2    C56   A    
C19   C20   A    
C67   C69   A    
C11   C30   A    
C60   H14   S    
C28   O12   A    
C18   C22   A    
C6    C9    A    
Br6   C24   S    
C8    C55   A    
Br9   C47   S    
C66   H30   S    
C13   C18   A    
C69   H5    S    
C35   C36   A    
C16   C33   S    
C36   H37   S    
Br3   C57   S    
C34   C45   A    
C65   H28   S    
C1    O15   A    
C34   C56   A    
Br7   C29   S    
C32   C37   A    
C63   H21   S    
C28   O18   A    
C48   C49   A    
C65   H27   S    
C2    C3    A    
C13   O6    S    
C40   O4    A    
C60   O7    S    
Br11  C37   S    
C58   C59   S    
C56   C67   A    
C30   H34   S    
O16   Zn1   S    
C58   H8    S    
C23   C54   A    
C42   C49   A    
C61   H16   S    
C66   C68   S    
O12   Zn4   S    
O17   Zn2   S    
C48   C50   A    
C21   O7    S    
O1    Zn3   S    
C13   C14   A    
C50   H2    S    
C4    O14   A    
C7    C8    A    
C28   C32   S    
C4    O16   A    
C33   C51   A    
C47   C48   A    
C45   C57   A    
C33   C53   A    
C40   C55   S    
C12   C57   A    
C64   C65   S    
Br10  C35   S    
C26   C27   A    
C20   C21   A    
C38   C41   A    
C2    H6    S    
C23   C34   A    
C52   O5    A    
C58   H7    S    
C64   H25   S    
C63   H20   S    
Br5   C14   S    
C19   C24   A    
C37   C38   A    
C58   O6    S    
C64   H24   S    
C65   H26   S    
C1    O13   A    
C46   H39   S    
C3    C5    A    
O4    Zn3   S    
C41   C42   A    
O15   Zn4   S    
C44   H36   S    
C62   H18   S    
C10   C14   A    
C43   C44   A    
C25   C26   A    
Br2   C8    S    
O1    Zn4   S    
C59   H11   S    
C69   C70   A    
O18   Zn3   S    
C52   O3    A    
C9    O8    S    
C62   O8    S    
C35   C39   A    
C15   C17   A    
C39   C44   A    
C20   C27   A    
C49   C53   A    
C21   C22   A    
O1    Zn1   S    
C68   H32   S    
O2    Zn2   S    
C60   C61   S    
C40   O2    A    
O14   Zn3   S    
C12   C54   A    
C46   C47   A    
C11   C31   A    
C59   H9    S    
O3    Zn4   S    
C17   C19   A    
C6    C67   A    
C66   O10   S    
C50   C51   A    
C15   H35   S    
O11   Zn1   S    
C41   C46   A    
C61   H15   S    
Br1   C31   S    
C4    C10   S    
C53   O9    S    
C23   O10   S    
O13   Zn2   S    
C5    C7    A    
C38   C39   A    
C12   H4    S    
C68   H33   S    
C7    H12   S    
C24   C25   A    
C43   H38   S    
C32   C36   A    
C66   H29   S    
C64   O9    S    
C5    C6    A    
Br8   C51   S    
C63   H22   S    
