data_mof_unit_16304.cif
_audit_creation_date              2012-12-11T16:08:53-0500
_audit_creation_method            fapswitch 2.2
_symmetry_space_group_name_H-M    P1
_symmetry_Int_Tables_number       1
_space_group_crystal_system       triclinic
_cell_length_a                    19.907981
_cell_length_b                    19.877045
_cell_length_c                    19.872668
_cell_angle_alpha                 110.45705
_cell_angle_beta                  107.427602
_cell_angle_gamma                 110.669316
_cell_volume                      6038.59020406

loop_
_atom_site_label
_atom_site_type_symbol
_atom_type_description
_atom_site_fract_x
_atom_site_fract_y
_atom_site_fract_z
_atom_type_partial_charge
C1    C     C_R   0.653753 0.930802 0.919625 0.566692
C2    C     C_3   0.522194 0.553044 0.054609 -0.285338
C3    C     C_3   0.645913 0.606483 0.067389 -0.296687
C4    C     C_3   0.554853 0.547433 0.132367 -0.329641
C5    C     C_1   0.556566 0.739806 0.060086 0.037183
C6    C     C_1   0.579491 0.364496 0.074481 0.095815
C7    C     C_3   0.629409 0.636225 0.175919 0.560863
C8    C     C_3   0.571359 0.518367 0.024122 0.667640
C9    C     C_3   0.597075 0.641526 0.099029 -0.034723
C10   C     C_3   0.603691 0.512174 0.100613 -0.064095
C11   C     C_1   0.580731 0.701524 0.084383 0.082098
C12   C     C_R   0.331534 0.069133 0.035479 0.368793
C13   C     C_1   0.595918 0.434035 0.091256 0.069793
C14   C     C_3   0.457446 0.082649 0.539615 0.354740
C15   C     C_3   0.351917 0.923821 0.414872 0.355789
C16   C     C_R   0.497575 0.070218 0.227704 0.606564
C17   C     C_R   0.459808 0.930438 0.763177 0.689950
C18   C     C_3   0.478584 0.029802 0.482007 0.315852
C19   C     C_3   0.330403 0.976617 0.473120 0.336934
C20   C     C_1   0.420362 0.998309 0.284351 0.026020
C21   C     C_1   0.448556 0.005467 0.684452 -0.012285
C22   C     C_3   0.376561 0.053402 0.466743 0.344513
C23   C     C_R   0.450441 0.000454 0.228621 -0.169090
C24   C     C_3   0.432684 0.953427 0.487351 0.324127
C25   C     C_3   0.397611 0.000208 0.407863 -0.331457
C26   C     C_3   0.411656 0.006310 0.546624 -0.327305
C27   C     C_1   0.403191 0.998034 0.336705 0.247736
C28   C     C_1   0.428423 0.007358 0.622715 0.239235
C29   C     C_3   0.995502 0.453847 0.474849 -0.316689
C30   C     C_3   0.051104 0.399065 0.574239 -0.310536
C31   C     C_3   0.008807 0.486204 0.563292 -0.360347
C32   C     C_3   0.036747 0.365696 0.484340 -0.322044
C33   C     C_1   0.216353 0.635769 0.711528 0.085543
C34   C     C_R   0.475630 0.001333 0.756510 -0.135552
C35   C     C_1   0.814767 0.260960 0.320839 0.111904
C36   C     C_3   0.077466 0.456362 0.502207 0.706412
C37   C     C_3   0.968194 0.396059 0.545909 0.712374
C38   C     C_3   0.091589 0.489070 0.590017 -0.008552
C39   C     C_3   0.954351 0.363570 0.458224 -0.003515
C40   C     C_R   0.737351 0.201093 0.169539 0.510581
C41   C     C_R   0.276684 0.765297 0.844092 0.533262
C42   C     C_1   0.163205 0.566293 0.658672 0.093685
C43   C     C_1   0.877431 0.303062 0.383874 0.098015
C44   C     C_3   0.999214 0.980067 0.958883 0.499561
C45   C     C_R   0.742101 0.216520 0.244892 -0.111123
C46   C     C_3   0.949902 0.021926 0.847849 0.414413
C47   C     C_3   0.989672 0.056287 0.975320 0.485900
C48   C     C_3   0.960483 0.945439 0.831422 0.394906
C49   C     C_1   0.782759 0.999895 0.916599 0.187999
C50   C     C_1   0.180978 0.000232 0.948458 0.087006
C51   C     C_3   0.916152 0.923883 0.879429 -0.458677
C52   C     C_3   0.033947 0.078185 0.927554 -0.451123
C53   C     C_3   0.906889 0.001230 0.896246 -0.276108
C54   C     C_3   0.042933 0.000592 0.910775 -0.269346
C55   C     C_1   0.835860 0.000461 0.900626 0.238066
C56   C     C_R   0.272927 0.721562 0.770737 -0.190609
C57   C     C_1   0.118503 0.000580 0.927342 0.220495
C58   C     C_R   0.465296 0.798903 0.036321 0.623452
C59   C     C_R   0.572534 0.229038 0.000319 0.510316
C60   C     C_R   0.664991 0.191074 0.236041 -0.234737
C61   C     C_R   0.342810 0.769652 0.772683 -0.108708
C62   C     C_R   0.537457 0.800470 0.969204 0.546585
C63   C     C_R   0.512038 0.234695 0.077880 0.597314
C64   C     C_R   0.425126 0.931444 0.157123 -0.054879
C65   C     C_R   0.528415 0.070325 0.833865 -0.225502
C66   C     C_R   0.723098 0.068631 0.989359 0.598988
C67   C     C_R   0.520264 0.776018 0.022553 -0.347938
C68   C     C_R   0.262976 0.930122 0.960876 0.546807
C69   C     C_R   0.725493 0.999620 0.945163 -0.352106
C70   C     C_R   0.254880 0.999622 0.978749 -0.295560
C71   C     C_3   0.615300 0.071559 0.551713 -0.077574
C72   C     C_3   0.193789 0.934891 0.405130 -0.092872
C73   C     C_3   0.551520 0.219330 0.586793 -0.144512
C74   C     C_3   0.258513 0.787018 0.367865 -0.133983
C75   C     C_3   0.468927 0.855800 0.436943 -0.075869
C76   C     C_3   0.340900 0.151605 0.516184 -0.092624
C77   C     C_3   0.934899 0.401821 0.648201 -0.133128
C78   C     C_R   0.551936 0.278796 0.047784 -0.297574
C79   C     C_3   0.109119 0.453265 0.399367 -0.139678
C80   C     C_3   0.549518 0.179488 0.357362 -0.188391
C81   C     C_3   0.354167 0.824677 0.632575 -0.233292
C82   C     C_3   0.403793 0.705613 0.073855 -0.037039
C83   C     C_3   0.631885 0.303918 0.947277 -0.066841
C84   C     C_3   0.575789 0.709030 0.908858 0.069236
C85   C     C_3   0.595933 0.328761 0.217117 -0.020106
C86   C     C_3   0.738808 0.133017 0.913276 0.012026
C87   C     C_3   0.136010 0.829943 0.927315 0.050537
C88   C     C_3   0.679226 0.600518 0.145602 -0.278599
H1    H     H_    0.743428 0.619317 0.183688 0.189811
H2    H     H_    0.366312 0.745632 0.733744 0.226455
H3    H     H_    0.375046 0.869824 0.132976 0.216919
H4    H     H_    0.553348 0.134330 0.848975 0.182608
H5    H     H_    0.682468 0.630836 0.040011 0.185467
H6    H     H_    0.518142 0.523184 0.159671 0.187870
H7    H     H_    0.570509 0.828012 0.698765 0.397533
H8    H     H_    0.310123 0.202996 0.025871 0.328289
H9    H     H_    0.466705 0.426425 0.802253 0.381030
H10   H     H_    0.650311 0.633615 0.325417 0.336432
H11   H     H_    0.612208 0.012048 0.542637 0.178435
H12   H     H_    0.457671 0.533525 0.016516 0.181566
H13   H     H_    0.612256 0.102554 0.608522 0.144682
H14   H     H_    0.676065 0.113238 0.561303 0.157240
H15   H     H_    0.195126 0.901984 0.347726 0.153140
H16   H     H_    0.197758 0.994532 0.413400 0.165939
H17   H     H_    0.133379 0.894829 0.397308 0.159128
H18   H     H_    0.510385 0.209737 0.527827 0.141708
H19   H     H_    0.604386 0.214448 0.583628 0.158524
H20   H     H_    0.576037 0.284132 0.635095 0.166819
H21   H     H_    0.206038 0.792114 0.371986 0.163197
H22   H     H_    0.300170 0.796286 0.426384 0.135755
H23   H     H_    0.998291 0.535922 0.596786 0.173925
H24   H     H_    0.233519 0.722240 0.319186 0.159032
H25   H     H_    0.493611 0.891554 0.409234 0.153322
H26   H     H_    0.408456 0.799093 0.389452 0.155193
H27   H     H_    0.511331 0.834670 0.458347 0.173440
H28   H     H_    0.401614 0.208040 0.563557 0.161464
H29   H     H_    0.315786 0.116362 0.544099 0.149683
H30   H     H_    0.299027 0.173175 0.494551 0.159062
H31   H     H_    0.952966 0.468651 0.672615 0.142507
H32   H     H_    0.986956 0.396348 0.681101 0.148112
H33   H     H_    0.884937 0.372504 0.660693 0.171919
H34   H     H_    0.046677 0.315758 0.450258 0.175556
H35   H     H_    0.061282 0.465641 0.370381 0.133762
H36   H     H_    0.084797 0.384839 0.370969 0.151045
H37   H     H_    0.159899 0.479764 0.386759 0.176134
H38   H     H_    0.114905 0.215610 0.192995 0.376791
H39   H     H_    0.811399 0.806353 0.687156 0.346615
H40   H     H_    0.989116 0.930885 0.117701 0.378485
H41   H     H_    0.032085 0.103891 0.778697 0.338906
H42   H     H_    0.588657 0.154000 0.376525 0.124443
H43   H     H_    0.501618 0.165985 0.376393 0.173761
H44   H     H_    0.589709 0.248435 0.390966 0.166970
H45   H     H_    0.972263 0.475334 0.433370 0.187009
H46   H     H_    0.371044 0.839886 0.589207 0.183042
H47   H     H_    0.317427 0.852047 0.649392 0.122874
H48   H     H_    0.314087 0.755761 0.599714 0.181425
H49   H     H_    0.919548 0.396719 0.244116 0.368512
H50   H     H_    0.118791 0.668074 0.796333 0.321589
H51   H     H_    0.453433 0.708827 0.121566 0.136304
H52   H     H_    0.384598 0.656583 0.011464 0.137114
H53   H     H_    0.350092 0.686155 0.084205 0.175492
H54   H     H_    0.665674 0.371314 0.994051 0.176427
H55   H     H_    0.567372 0.282574 0.905977 0.155061
H56   H     H_    0.074894 0.378528 0.616426 0.175883
H57   H     H_    0.662161 0.296612 0.908766 0.154031
H58   H     H_    0.510224 0.660876 0.881484 0.100396
H59   H     H_    0.615995 0.704123 0.957093 0.107354
H60   H     H_    0.592334 0.694187 0.859264 0.193795
H61   H     H_    0.612726 0.393308 0.230718 0.123270
H62   H     H_    0.642092 0.314869 0.205132 0.089031
H63   H     H_    0.599187 0.326386 0.272893 0.172531
H64   H     H_    0.679047 0.075578 0.863865 0.090884
H65   H     H_    0.788293 0.132493 0.898646 0.150827
H66   H     H_    0.734506 0.187219 0.913470 0.168946
H67   H     H_    0.082596 0.141192 0.947353 0.221077
H68   H     H_    0.088961 0.837314 0.888848 0.154296
H69   H     H_    0.156248 0.868228 0.993679 0.145726
H70   H     H_    0.105834 0.763796 0.911212 0.193083
H71   H     H_    0.867581 0.860749 0.859478 0.231658
H72   H     H_    0.649170 0.198219 0.284249 0.178845
N1    N     N_R   0.613530 0.956740 0.956480 -0.152352
N2    N     N_R   0.386500 0.842990 0.843230 -0.091267
N3    N     N_R   0.499770 0.842990 0.956480 -0.125945
N4    N     N_R   0.500230 0.157010 0.043520 -0.150503
N5    N     N_R   0.456470 0.956710 0.113500 -0.087079
N6    N     N_R   0.543530 0.043290 0.886500 -0.082358
N7    N     N_R   0.656800 0.043290 0.999750 -0.157210
N8    N     N_R   0.343200 0.956710 0.000250 -0.120240
N9    N     N_R   0.386470 0.043260 0.043520 -0.130308
N10   N     N_R   0.499750 0.043260 0.156770 -0.106502
N11   N     N_R   0.500250 0.956740 0.843230 -0.099311
N12   N     N_R   0.656790 0.157020 0.113500 -0.109750
N13   N     N_R   0.343210 0.842980 0.886500 -0.114216
N14   N     N_R   0.456490 0.842980 0.999750 -0.126736
N15   N     N_R   0.543510 0.157020 0.000250 -0.129099
N16   N     N_R   0.613500 0.157010 0.156770 -0.073798
Ni1   Ni    Ni4+2 0.500010 0.900760 0.900750 0.294833
Ni2   Ni    Ni4+2 0.499990 0.099240 0.099250 0.280516
Ni3   Ni    Ni4+2 0.599260 0.099260 0.000000 0.273872
Ni4   Ni    Ni4+2 0.400740 0.900740 0.000000 0.297278
O1    O     O_2   0.650652 0.799692 0.814982 -0.286830
O2    O     O_2   0.739245 0.794658 0.297133 -0.214032
O3    O     O_2   0.601850 0.734414 0.283563 -0.286499
O4    O     O_3   0.699014 0.686817 0.344193 -0.453896
O5    O     O_3   0.554118 0.057782 0.481318 -0.632175
O6    O     O_3   0.255666 0.948945 0.475154 -0.613377
O7    O     O_3   0.511002 0.163841 0.609105 -0.604964
O8    O     O_3   0.298511 0.842628 0.345403 -0.602688
O9    O     O_3   0.463373 0.903812 0.504456 -0.620592
O10   O     O_3   0.346067 0.102735 0.448815 -0.601330
O11   O     O_3   0.905397 0.359473 0.562914 -0.629005
O12   O     O_2   0.517185 0.784481 0.796224 -0.294229
O13   O     O_3   0.140161 0.492612 0.484909 -0.627832
O14   O     O_2   0.998163 0.200091 0.061885 -0.246263
O15   O     O_2   0.953295 0.092831 0.098770 -0.238991
O16   O     O_3   0.107954 0.174961 0.141372 -0.446680
O17   O     O_2   0.000952 0.913710 0.711364 -0.202075
O18   O     O_2   0.956785 0.804251 0.745473 -0.288007
O19   O     O_3   0.845898 0.826731 0.663676 -0.406114
O20   O     O_2   0.015551 0.863318 0.988438 -0.327230
O21   O     O_2   0.116339 0.010038 0.095494 -0.217788
O22   O     O_3   0.968713 0.946449 0.077023 -0.465599
O23   O     O_3   0.600210 0.878934 0.753549 -0.535853
O24   O     O_2   0.828785 0.982776 0.709381 -0.197806
O25   O     O_2   0.916066 0.130665 0.816765 -0.275285
O26   O     O_3   0.975857 0.063950 0.731899 -0.422291
O27   O     O_3   0.513312 0.150438 0.272493 -0.589812
O28   O     O_3   0.424835 0.848853 0.701370 -0.601987
O29   O     O_2   0.870963 0.233491 0.150860 -0.227824
O30   O     O_2   0.784165 0.284445 0.095282 -0.208803
O31   O     O_3   0.875969 0.362075 0.251785 -0.579057
O32   O     O_2   0.272962 0.655598 0.892188 -0.298735
O33   O     O_2   0.264995 0.772275 0.978118 -0.275842
O34   O     O_2   0.267221 0.139152 0.118043 -0.212033
O35   O     O_3   0.136016 0.652117 0.837595 -0.504236
O36   O     O_3   0.427956 0.785378 0.082760 -0.627551
O37   O     O_3   0.637972 0.256964 0.985654 -0.601579
O38   O     O_3   0.590723 0.791617 0.940227 -0.608562
O39   O     O_3   0.514473 0.271869 0.152461 -0.529793
O40   O     O_3   0.759378 0.143935 0.992421 -0.534500
O41   O     O_3   0.201373 0.847198 0.909052 -0.645869
O42   O     O_2   0.413612 0.195212 0.191782 -0.161999
O43   O     O_3   0.358350 0.231676 0.080469 -0.476389
O44   O     O_2   0.599456 0.435123 0.906963 -0.328457
O45   O     O_2   0.468424 0.358469 0.901513 -0.305540
O46   O     O_3   0.486683 0.470640 0.858531 -0.541575
S1    S     S_3+6 0.603121 0.843889 0.819511 -0.015000
S2    S     S_3+6 0.238930 0.711974 0.891488 -0.009558
S3    S     S_3+6 0.343479 0.160177 0.109694 0.049582
S4    S     S_3+6 0.531029 0.441549 0.920254 -0.061947
S5    S     S_3+6 0.667869 0.716777 0.277328 0.017722
S6    S     S_3+6 0.010452 0.132923 0.071431 0.046974
S7    S     S_3+6 0.942751 0.870738 0.736247 0.056779
S8    S     S_3+6 0.027934 0.949014 0.031807 0.016365
S9    S     S_3+6 0.914890 0.050688 0.774875 0.055347
S10   S     S_3+6 0.817859 0.269471 0.163472 -0.003031

loop_
_geom_bond_atom_site_label_1
_geom_bond_atom_site_label_2
_ccdc_geom_bond_type
C65   H4    S    
C29   H45   S    
C45   C60   A    
C80   H44   S    
O3    S5    D    
C14   C18   S    
N7    Ni3   S    
C68   O41   S    
C86   H64   S    
C5    C67   S    
C16   O27   S    
C74   H21   S    
O23   S1    S    
C73   H18   S    
C12   S3    S    
N2    N13   A    
C7    S5    S    
O1    S1    D    
C52   H67   S    
C48   C54   S    
C29   C36   S    
C10   C88   S    
C82   H51   S    
C66   N7    A    
N10   Ni2   S    
C18   C24   S    
O44   S4    D    
C87   O41   S    
C75   O9    S    
C86   H65   S    
O20   S8    D    
C5    C11   T    
O24   S9    D    
C59   N15   A    
O19   S7    S    
C19   O6    S    
C74   H24   S    
C32   H34   S    
C83   O37   S    
C73   H19   S    
C66   C69   A    
H7    O23   S    
C46   C52   S    
C30   H56   S    
O31   S10   S    
C30   C38   S    
N4    N15   A    
O35   S2    S    
C32   C39   S    
C63   O39   S    
C19   C26   S    
C36   O13   S    
N2    Ni1   S    
C82   H52   S    
C83   H57   S    
N8    N9    A    
C8    S4    S    
O12   S1    D    
O16   S6    S    
O42   S3    D    
C14   O7    S    
C22   C25   S    
N3    Ni1   S    
C66   O40   S    
C24   O9    S    
C75   H25   S    
O30   S10   D    
C22   O10   S    
C35   C43   T    
C48   S7    S    
C44   C47   S    
C40   S10   S    
C47   C53   S    
C1    S1    S    
C33   C56   S    
N16   Ni2   S    
H9    O46   S    
C71   H13   S    
C41   S2    S    
C2    H12   S    
N6    N11   A    
C62   O38   S    
C80   H43   S    
C49   C69   S    
C58   N14   A    
C18   C25   S    
C12   C70   A    
C71   O5    S    
C82   H53   S    
C79   H37   S    
C59   C78   A    
C77   H32   S    
C73   O7    S    
C52   C54   S    
C81   H47   S    
C74   O8    S    
C53   C55   S    
C72   H17   S    
C40   C45   A    
C37   C39   S    
C46   C48   S    
H50   O35   S    
C48   C51   S    
C80   H42   S    
C12   N9    A    
N12   N16   A    
C61   N2    A    
C77   O11   S    
O14   S6    D    
C81   H46   S    
C19   C22   S    
C76   O10   S    
H38   O16   S    
C3    C8    S    
C59   O37   S    
O34   S3    D    
O17   S7    D    
C73   H20   S    
N15   Ni3   S    
C21   C34   S    
C72   H16   S    
N13   Ni4   S    
C4    C7    S    
N8    Ni4   S    
C79   H35   S    
C65   N6    A    
C10   C13   S    
C1    C69   A    
C87   H69   S    
C30   C37   S    
C31   C37   S    
O26   S9    S    
C51   C53   S    
C84   H60   S    
C15   C19   S    
C85   H63   S    
C41   C56   A    
C74   H22   S    
C64   N5    A    
C3    C9    S    
C30   C32   S    
C44   S8    S    
O22   S8    S    
O2    S5    D    
C62   N3    A    
C20   C23   S    
O25   S9    D    
H8    O43   S    
C63   N4    A    
C29   C39   S    
C20   C27   T    
C17   N11   A    
C3    H5    S    
C75   H26   S    
C86   O40   S    
C14   C26   S    
C9    C11   S    
C72   O6    S    
N1    N7    A    
C84   O38   S    
C81   O28   S    
C82   O36   S    
C62   C67   A    
N12   Ni3   S    
C68   C70   A    
C15   C24   S    
C37   O11   S    
C21   C28   T    
H49   O31   S    
C16   C23   A    
C34   C65   A    
C60   N16   A    
C4    H6    S    
C75   H27   S    
C17   C34   A    
C33   C42   T    
C3    C88   S    
C4    C10   S    
C35   C45   S    
C87   H70   S    
N14   Ni4   S    
N9    Ni2   S    
C40   N12   A    
N4    Ni2   S    
C61   H2    S    
C44   C51   S    
C81   H48   S    
C79   H36   S    
C84   H59   S    
N5    N10   A    
C7    C9    S    
C41   N13   A    
C23   C64   A    
C85   H62   S    
C44   C54   S    
C56   C61   A    
C50   C57   T    
C71   H14   S    
C17   O28   S    
C2    C8    S    
O45   S4    D    
O4    S5    S    
C24   C26   S    
C77   H31   S    
O18   S7    D    
H39   O19   S    
C7    C88   S    
C83   H54   S    
C39   C43   S    
C32   C36   S    
C38   C42   S    
C47   C52   S    
C47   S6    S    
C72   H15   S    
C84   H58   S    
C25   C27   S    
C85   H61   S    
C15   O8    S    
C6    C78   S    
C18   O5    S    
C26   C28   S    
C76   H29   S    
C79   O13   S    
C31   C38   S    
C46   S9    S    
C14   C22   S    
C36   C38   S    
C50   C70   S    
O29   S10   D    
C29   C31   S    
O33   S2    D    
C49   C55   T    
C6    C13   T    
C83   H55   S    
H41   O26   S    
N3    N14   A    
O21   S8    D    
C86   H66   S    
C71   H11   S    
C2    C4    S    
C46   C53   S    
C51   H71   S    
C76   H28   S    
O15   S6    D    
H10   O4    S    
C76   H30   S    
C68   N8    A    
C77   H33   S    
C1    N1    A    
O32   S2    D    
C16   N10   A    
C58   C67   A    
C80   O27   S    
O46   S4    S    
C88   H1    S    
C15   C25   S    
C8    C10   S    
C85   O39   S    
N5    Ni4   S    
C31   H23   S    
C87   H68   S    
N11   Ni1   S    
N6    Ni3   S    
C64   H3    S    
C60   H72   S    
H40   O22   S    
C2    C9    S    
N1    Ni1   S    
C54   C57   S    
O43   S3    S    
C63   C78   A    
C58   O36   S    
