data_mof_unit_50263.cif
_audit_creation_date              2012-12-10T20:31:51-0500
_audit_creation_method            fapswitch 2.2
_symmetry_space_group_name_H-M    P1
_symmetry_Int_Tables_number       1
_space_group_crystal_system       triclinic
_cell_length_a                    9.897334
_cell_length_b                    10.681762
_cell_length_c                    15.428646
_cell_angle_alpha                 90.884577
_cell_angle_beta                  68.519901
_cell_angle_gamma                 90.236929
_cell_volume                      1517.65791732

loop_
_atom_site_label
_atom_site_type_symbol
_atom_type_description
_atom_site_fract_x
_atom_site_fract_y
_atom_site_fract_z
_atom_type_partial_charge
C1    C     C_R   0.500398 0.739580 0.499812 0.905818
C2    C     C_R   0.430559 0.414204 0.904191 0.060219
C3    C     C_R   0.295383 0.355638 0.951318 0.172628
C4    C     C_R   0.537825 0.420587 0.944267 0.084026
C5    C     C_R   0.498528 0.400146 0.040058 0.082325
C6    C     C_R   0.360710 0.346482 0.088679 -0.227791
C7    C     C_R   0.262902 0.321803 0.044426 -0.100906
C8    C     C_R   0.684040 0.445031 0.890267 -0.168390
C9    C     C_R   0.784089 0.472219 0.931142 -0.251666
C10   C     C_R   0.741373 0.476890 0.028263 0.073689
C11   C     C_R   0.597740 0.436961 0.083225 0.114622
C12   C     C_R   0.409483 0.494470 0.675925 0.880305
C13   C     C_R   0.837343 0.519830 0.072248 -0.023715
C14   C     C_R   0.788350 0.521763 0.169734 -0.135659
C15   C     C_R   0.553610 0.443873 0.179956 -0.239341
C16   C     C_R   0.441198 0.936489 0.446063 0.118546
C17   C     C_R   0.503782 0.871460 0.498898 -0.148289
C18   C     C_R   0.576031 0.934551 0.549059 -0.169094
C19   C     C_R   0.570098 0.064182 0.556356 -0.034417
C20   C     C_R   0.496821 0.128609 0.507071 -0.185559
C21   C     C_R   0.439046 0.064330 0.449403 0.140718
C22   C     C_3   0.289192 0.069712 0.447245 -0.452344
C23   C     C_R   0.497467 0.260684 0.504182 0.867724
C24   C     C_3   0.291881 0.927841 0.443739 -0.452954
C25   C     C_R   0.902916 0.591767 0.546836 0.087503
C26   C     C_R   0.961397 0.419774 0.443837 0.202888
C27   C     C_R   0.104204 0.419673 0.444685 -0.147884
C28   C     C_R   0.045014 0.590537 0.547496 0.190397
C29   C     C_3   0.995068 0.616488 0.649280 -0.562451
C30   C     C_3   0.841595 0.618204 0.649105 -0.245944
C31   C     C_R   0.590401 0.497917 0.324163 0.898638
C32   C     C_R   0.357082 0.459854 0.774374 -0.050297
C33   C     C_R   0.646447 0.487186 0.222881 -0.108207
C34   C     C_R   0.196517 0.338202 0.904146 -0.008452
C35   C     C_R   0.228581 0.392231 0.816159 -0.332976
C36   C     C_R   0.453466 0.472868 0.820117 -0.212660
H1    H     H_    0.158876 0.283291 0.086333 0.212854
H2    H     H_    0.626473 0.882241 0.588394 0.202878
H3    H     H_    0.207804 0.108939 0.512672 0.221658
H4    H     H_    0.288047 0.112058 0.382137 0.207641
H5    H     H_    0.212242 0.884885 0.507274 0.212724
H6    H     H_    0.292343 0.888094 0.376626 0.215046
H7    H     H_    0.183860 0.353686 0.401246 0.155595
H8    H     H_    0.015286 0.536589 0.688327 0.210500
H9    H     H_    0.444242 0.420644 0.223922 0.158665
H10   H     H_    0.035472 0.708324 0.664673 0.199205
H11   H     H_    0.773779 0.539875 0.686778 0.176417
H12   H     H_    0.858562 0.556016 0.204726 0.203270
H13   H     H_    0.894035 0.490222 0.884971 0.121931
H14   H     H_    0.156733 0.376414 0.778299 0.150109
H15   H     H_    0.547287 0.531138 0.789393 0.187353
H16   H     H_    0.326555 0.318879 0.160443 0.153319
H17   H     H_    0.723614 0.439026 0.815491 0.134762
N1    N     N_R   0.856900 0.500860 0.500610 -0.127617
N2    N     N_R   0.142540 0.500820 0.500610 -0.110275
O1    O     O_R   0.385310 0.683210 0.499990 -0.611987
O2    O     O_R   0.614650 0.683240 0.500000 -0.614615
O3    O     O_R   0.319830 0.499970 0.632240 -0.615065
O4    O     O_R   0.549170 0.500000 0.632250 -0.623790
O5    O     O_R   0.385350 0.316760 0.500000 -0.618574
O6    O     O_R   0.614690 0.316790 0.500010 -0.602927
O7    O     O_R   0.450830 0.500000 0.367750 -0.617825
O8    O     O_R   0.680170 0.500030 0.367760 -0.588726
Zn1   Zn    Zn3+2 0.346870 0.499980 0.499990 0.948971
Zn2   Zn    Zn3+2 0.653130 0.500020 0.500010 0.982853
C37   C     C_2   0.984631 0.571103 0.019757 0.387851
H18   H     H_    0.018039 0.595842 0.947221 0.078128
O9    O     O_2   0.071506 0.588806 0.058086 -0.552437
C38   C     C_2   0.627417 0.128032 0.622238 0.461717
H19   H     H_    0.592762 0.222159 0.647896 0.068861
O10   O     O_2   0.712853 0.075195 0.649947 -0.577045
I1    I     I_    0.922424 0.291554 0.349808 -0.335546
C39   C     C_2   0.771419 0.744714 0.672686 0.477599
H20   H     H_    0.828420 0.827065 0.636962 0.097994
O11   O     O_2   0.650644 0.756090 0.732710 -0.562134
C40   C     C_2   0.063844 0.259535 0.939484 0.379353
H21   H     H_    0.978290 0.272028 0.912195 0.079542
O12   O     O_2   0.051669 0.175123 0.994201 -0.549281

loop_
_geom_bond_atom_site_label_1
_geom_bond_atom_site_label_2
_ccdc_geom_bond_type
C37   O9    D    
O8    Zn2   S    
C16   C21   A    
C26   I1    S    
C39   H20   S    
C19   C20   A    
C4    C8    A    
C14   C33   A    
N1    Zn2   S    
C1    O2    A    
C25   C28   A    
C26   C27   A    
C32   C36   A    
C28   C29   S    
C1    O1    A    
C40   O12   D    
C5    C11   A    
C3    C7    A    
C5    C6    A    
C34   C35   A    
C27   N2    A    
C24   H6    S    
C18   C19   A    
C38   O10   D    
O7    Zn1   S    
C12   O4    A    
C11   C15   A    
C16   C17   A    
O1    Zn1   S    
C9    C10   A    
C12   O3    A    
C37   H18   S    
C16   C24   S    
C21   C22   S    
C12   C32   S    
C24   H5    S    
C39   O11   D    
C31   O7    A    
C26   N1    A    
C28   N2    A    
C13   C37   S    
O3    Zn1   S    
C23   O5    A    
C32   C35   A    
C31   O8    A    
C30   H11   S    
C9    H13   S    
C25   N1    A    
C30   C39   S    
C8    C9    A    
C14   H12   S    
C3    C34   A    
C2    C4    A    
C29   C30   S    
C27   H7    S    
C20   C23   S    
C22   H4    S    
N2    Zn1   S    
C35   H14   S    
C31   C33   S    
C17   C18   A    
C7    H1    S    
C40   H21   S    
C36   H15   S    
C29   H8    S    
C22   C24   S    
C19   C38   S    
C15   H9    S    
C2    C36   A    
C25   C30   S    
O2    Zn2   S    
C4    C5    A    
C10   C13   A    
C8    H17   S    
C6    C7    A    
C1    C17   S    
C29   H10   S    
O5    Zn1   S    
C2    C3    A    
C18   H2    S    
O4    Zn2   S    
C22   H3    S    
C38   H19   S    
C10   C11   A    
O6    Zn2   S    
C23   O6    A    
C20   C21   A    
C6    H16   S    
C13   C14   A    
C15   C33   A    
C34   C40   S    
