data_mof_unit_48276.cif
_audit_creation_date              2012-12-11T14:36:12-0500
_audit_creation_method            fapswitch 2.2
_symmetry_space_group_name_H-M    P1
_symmetry_Int_Tables_number       1
_space_group_crystal_system       triclinic
_cell_length_a                    13.562794
_cell_length_b                    13.567807
_cell_length_c                    27.446267
_cell_angle_alpha                 90.359181
_cell_angle_beta                  90.029006
_cell_angle_gamma                 60.045115
_cell_volume                      4375.82018659

loop_
_atom_site_label
_atom_site_type_symbol
_atom_type_description
_atom_site_fract_x
_atom_site_fract_y
_atom_site_fract_z
_atom_type_partial_charge
C1    C     C_R   0.619266 0.099588 0.571039 0.554500
C2    C     C_1   0.636168 0.715855 0.612512 0.074772
C3    C     C_3   0.702727 0.527974 0.763455 -0.129018
C4    C     C_3   0.699978 0.617263 0.799914 -0.063632
C5    C     C_3   0.597286 0.625176 0.738567 0.235124
C6    C     C_3   0.673372 0.647186 0.704600 0.041669
C7    C     C_3   0.593228 0.713068 0.775064 0.193627
C8    C     C_3   0.671479 0.734913 0.741134 0.187552
C9    C     C_1   0.705294 0.604755 0.853258 0.061573
C10   C     C_1   0.656112 0.676607 0.652855 0.109578
C11   C     C_3   0.104419 0.137119 0.737712 0.197388
C12   C     C_R   0.600545 0.776818 0.567700 0.550057
C13   C     C_3   0.194233 0.061767 0.776122 -0.046071
C14   C     C_1   0.099364 0.201036 0.902538 0.050140
C15   C     C_1   0.235924 0.138180 0.618220 0.066792
C16   C     C_3   0.064529 0.244515 0.770326 -0.089986
C17   C     C_3   0.155279 0.169376 0.808346 -0.013299
C18   C     C_3   0.152865 0.269224 0.745211 -0.142453
C19   C     C_3   0.191156 0.161917 0.713206 0.031224
C20   C     C_3   0.241246 0.194294 0.783463 0.211019
C21   C     C_3   0.279604 0.089109 0.751196 0.273486
C22   C     C_1   0.129734 0.181727 0.860617 0.036812
C23   C     C_R   0.278801 0.121664 0.569676 0.556619
C24   C     C_1   0.212160 0.150837 0.660785 0.072058
C25   C     C_3   0.638230 0.261315 0.742226 0.222376
C26   C     C_3   0.546152 0.271811 0.777572 0.205213
C27   C     C_1   0.680421 0.208559 0.906196 0.066276
C28   C     C_1   0.632247 0.127199 0.620668 0.058603
C29   C     C_3   0.731609 0.180823 0.777647 0.177054
C30   C     C_3   0.638173 0.191046 0.812997 0.016197
C31   C     C_3   0.731538 0.078752 0.753119 0.275792
C32   C     C_3   0.639324 0.159204 0.717024 -0.007801
C33   C     C_3   0.639283 0.088008 0.788682 0.164562
C34   C     C_R   0.623630 0.100873 0.432073 0.557425
C35   C     C_3   0.544610 0.169755 0.752617 -0.138013
C36   C     C_1   0.653546 0.201273 0.865177 0.086052
C37   C     C_1   0.637835 0.143258 0.663794 0.070237
C38   C     C_R   0.736586 0.695854 0.360058 -0.102995
C39   C     C_R   0.751153 0.678183 0.309277 -0.020526
C40   C     C_R   0.770047 0.654730 0.206391 0.003481
C41   C     C_R   0.865959 0.632311 0.235341 0.281887
C42   C     C_R   0.855147 0.649683 0.285939 0.256321
C43   C     C_R   0.774605 0.647238 0.154990 0.224697
C44   C     C_R   0.682839 0.650266 0.129061 -0.010770
C45   C     C_R   0.601312 0.776595 0.430159 0.537899
C46   C     C_R   0.548044 0.719697 0.354256 -0.088559
C47   C     C_R   0.556718 0.709617 0.303943 0.024497
C48   C     C_R   0.658414 0.689752 0.280991 -0.012540
C49   C     C_R   0.463321 0.725086 0.276008 0.163824
C50   C     C_R   0.468599 0.726536 0.225780 -0.064295
C51   C     C_R   0.568967 0.704542 0.202097 -0.018743
C52   C     C_R   0.666265 0.682424 0.229806 -0.069323
C53   C     C_R   0.575869 0.696254 0.151329 0.125273
C54   C     C_R   0.633116 0.722592 0.381898 -0.015882
C55   C     C_R   0.180208 0.077285 0.363156 0.123810
C56   C     C_R   0.274883 0.123010 0.431786 0.574735
C57   C     C_R   0.160881 0.084369 0.312423 -0.020879
C58   C     C_R   0.133463 0.093163 0.210228 -0.000418
C59   C     C_R   0.124392 0.010148 0.238060 0.217468
C60   C     C_R   0.129428 0.012838 0.288578 -0.007594
C61   C     C_R   0.096774 0.116429 0.161384 0.225984
C62   C     C_R   0.108448 0.200034 0.135115 0.027224
C63   C     C_R   0.202676 0.244385 0.358268 0.126748
C64   C     C_R   0.204499 0.238246 0.307547 -0.031167
C65   C     C_R   0.181187 0.159617 0.284367 -0.025098
C66   C     C_R   0.233672 0.306173 0.279659 0.004225
C67   C     C_3   0.779732 0.551938 0.729104 0.136521
C68   C     C_R   0.236038 0.300159 0.229130 0.271008
C69   C     C_R   0.193304 0.236421 0.205626 -0.001459
C70   C     C_R   0.170694 0.161950 0.233272 -0.032391
C71   C     C_R   0.162955 0.253403 0.156450 -0.154155
C72   C     C_R   0.210905 0.152026 0.385441 0.018972
C73   C     C_R   0.561297 0.235215 0.363406 -0.140918
C74   C     C_R   0.569541 0.256008 0.314217 -0.044670
C75   C     C_R   0.579468 0.287481 0.213033 -0.024466
C76   C     C_R   0.498703 0.377734 0.243107 0.281992
C77   C     C_R   0.489012 0.358413 0.292443 0.216959
C78   C     C_3   0.778220 0.639174 0.766088 0.183407
C79   C     C_R   0.586033 0.298126 0.161686 0.210540
C80   C     C_R   0.679009 0.212355 0.135859 0.028296
C81   C     C_R   0.749148 0.068036 0.360278 0.201310
C82   C     C_R   0.748385 0.073487 0.309048 0.037103
C83   C     C_R   0.659339 0.170992 0.286181 -0.059305
C84   C     C_R   0.830959 0.982848 0.280354 0.270799
C85   C     C_R   0.824811 0.990844 0.229296 0.158790
C86   C     C_R   0.743786 0.093007 0.207311 -0.029027
C87   C     C_R   0.660619 0.183900 0.235496 -0.050724
C88   C     C_R   0.748904 0.107790 0.157670 -0.150313
C89   C     C_1   0.706544 0.590605 0.896722 0.066671
C90   C     C_R   0.648076 0.139062 0.386005 -0.015526
C91   C     C_R   0.049227 0.236495 0.949956 0.548790
C92   C     C_R   0.713438 0.559145 0.947087 0.549899
C93   C     C_R   0.720353 0.225397 0.951915 0.544971
C94   C     C_R   0.047190 0.244418 0.088818 0.567231
C95   C     C_R   0.706671 0.578453 0.085124 0.557191
C96   C     C_R   0.718158 0.233837 0.089262 0.562102
Cr1   Cr    Cr6+3 0.417550 0.169090 0.500530 1.099134
Cr2   Cr    Cr6+3 0.669180 0.913420 0.499920 1.120886
Cr3   Cr    Cr6+3 0.413260 0.917540 0.499520 1.128776
Cr4   Cr    Cr6+3 0.909170 0.177380 0.020380 1.120304
Cr5   Cr    Cr6+3 0.912710 0.429210 0.018220 1.089235
Cr6   Cr    Cr6+3 0.657170 0.432570 0.019030 1.136829
H1    H     H_    0.138391 0.353061 0.732730 0.189134
H2    H     H_    0.975808 0.310194 0.779286 0.204768
H3    H     H_    0.467927 0.167036 0.740786 0.193350
H4    H     H_    0.802447 0.693130 0.383101 0.158565
H5    H     H_    0.394485 0.739557 0.205725 0.209770
H6    H     H_    0.469609 0.736995 0.371731 0.210428
H7    H     H_    0.113098 0.954106 0.308545 0.238590
H8    H     H_    0.169945 0.317416 0.135844 0.176996
H9    H     H_    0.260467 0.360527 0.296832 0.223134
H10   H     H_    0.486202 0.291718 0.384274 0.197768
H11   H     H_    0.814850 0.040669 0.135982 0.205630
H12   H     H_    0.716481 0.443516 0.774247 0.221842
H13   H     H_    0.210616 0.977392 0.788727 0.197078
O1    O     O_R   0.301710 0.195650 0.554160 -0.496722
O2    O     O_R   0.658900 0.818120 0.449760 -0.497042
O3    O     O_R   0.503220 0.801620 0.445520 -0.497460
O4    O     O_R   0.319370 0.022040 0.450020 -0.460882
O5    O     O_3   0.499990 0.000010 0.499990 -0.294259
O6    O     O_R   0.818720 0.150820 0.967160 -0.484821
O7    O     O_R   0.006410 0.181720 0.970200 -0.483727
O8    O     O_R   0.027890 0.334070 0.964920 -0.499288
O9    O     O_R   0.809600 0.521790 0.967960 -0.497110
O10   O     O_R   0.635520 0.542770 0.964420 -0.481562
O11   O     O_R   0.665950 0.325030 0.970100 -0.498987
O12   O     O_R   0.522390 0.158990 0.550460 -0.502410
O13   O     O_R   0.816620 0.158530 0.074540 -0.506895
O14   O     O_R   0.004460 0.188870 0.069750 -0.430112
O15   O     O_R   0.025800 0.341780 0.072300 -0.498813
O16   O     O_R   0.807650 0.528950 0.067500 -0.490319
O17   O     O_R   0.633420 0.550490 0.071810 -0.439341
O18   O     O_R   0.664000 0.332180 0.069640 -0.434214
O19   O     O_3   0.826350 0.346390 0.019210 -0.298306
O20   O     O_R   0.694390 0.003530 0.554040 -0.465423
O21   O     O_R   0.657700 0.819660 0.549320 -0.483759
O22   O     O_R   0.501930 0.803280 0.552920 -0.487428
O23   O     O_R   0.318170 0.023580 0.549580 -0.476739
O24   O     O_R   0.303010 0.193990 0.446760 -0.467380
O25   O     O_R   0.523600 0.157450 0.450900 -0.503960
O26   O     O_R   0.695690 0.001860 0.446640 -0.457270
Br1   Br    Br    0.909902 0.647921 0.787248 -0.353292
O27   O     O_3   0.314859 0.221210 0.808259 -0.663693
H14   H     H_    0.265269 0.296754 0.823420 0.356584
O28   O     O_3   0.449925 0.373692 0.791502 -0.637085
H15   H     H_    0.404518 0.403771 0.761374 0.336352
O29   O     O_3   0.638007 0.351081 0.717503 -0.635459
H16   H     H_    0.567428 0.386007 0.697827 0.343315
Br2   Br    Br    0.640914 0.971115 0.829821 -0.362514
O30   O     O_3   0.829341 0.977866 0.739508 -0.555565
H17   H     H_    0.870219 0.944338 0.770327 0.377131
Br3   Br    Br    0.859090 0.190226 0.803552 -0.503994
O31   O     O_3   0.867040 0.639130 0.130397 -0.601580
H18   H     H_    0.840959 0.675828 0.098188 0.343960
Br4   Br    Br    0.903675 0.443882 0.688516 -0.436603
Br5   Br    Br    0.018146 0.569078 0.209512 -0.211607
O32   O     O_3   0.950238 0.632029 0.311525 -0.589901
H19   H     H_    0.926448 0.691968 0.336757 0.369794
Br6   Br    Br    0.439840 0.750750 0.111854 -0.428643
Br7   Br    Br    0.324873 0.745289 0.303781 -0.358314
O33   O     O_3   0.036626 0.069360 0.140866 -0.644965
H20   H     H_    0.980553 0.074291 0.165326 0.348167
Br8   Br    Br    0.162523 0.968579 0.402088 -0.354652
O34   O     O_3   0.115680 0.921921 0.217505 -0.635055
H21   H     H_    0.158480 0.900764 0.186335 0.389779
Br9   Br    Br    0.657570 0.873726 0.715092 -0.380296
O35   O     O_3   0.276835 0.360735 0.204426 -0.629644
H22   H     H_    0.309099 0.321994 0.172935 0.314658
Br10  Br    Br    0.175667 0.385176 0.389049 -0.365538
O36   O     O_3   0.503715 0.388489 0.135715 -0.658119
H23   H     H_    0.428711 0.406728 0.149170 0.374633
O37   O     O_3   0.432222 0.487253 0.226504 -0.589029
H24   H     H_    0.481066 0.504883 0.205716 0.349371
Br11  Br    Br    0.371008 0.479794 0.330501 -0.302064
Br12  Br    Br    0.460000 0.815656 0.812863 -0.408585
Br13  Br    Br    0.923348 0.858923 0.189816 -0.370502
O38   O     O_3   0.909432 0.883213 0.302536 -0.632684
H25   H     H_    0.978846 0.844341 0.282174 0.409720
Br14  Br    Br    0.889313 0.978564 0.396128 -0.311277
O39   O     O_3   0.502696 0.618746 0.722721 -0.623422
H26   H     H_    0.475011 0.596813 0.751827 0.363615
Br15  Br    Br    0.012794 0.092617 0.699064 -0.304291
O40   O     O_3   0.391775 0.010638 0.738702 -0.629827
H27   H     H_    0.438459 0.013051 0.765896 0.400747

loop_
_geom_bond_atom_site_label_1
_geom_bond_atom_site_label_2
_ccdc_geom_bond_type
C45   O3    A    
C66   C68   A    
C8    C78   S    
C34   O26   A    
C77   Br11  S    
C73   C74   A    
C23   O23   A    
C83   C87   A    
O29   H16   S    
C74   C83   A    
Cr1   O12   S    
Cr6   O10   S    
C2    C12   S    
C92   O10   A    
C85   Br13  S    
C34   C90   S    
O33   H20   S    
C7    C8    S    
C47   C49   A    
Cr5   O19   S    
O37   H24   S    
C67   C78   S    
C11   C19   S    
O32   H19   S    
Cr2   O2    S    
C61   O33   S    
C79   O36   S    
O34   H21   S    
C19   C21   S    
C93   O6    A    
C73   C90   A    
C18   C19   S    
C78   Br1   S    
C5    C6    S    
C86   C88   A    
C63   Br10  S    
O36   H23   S    
O27   H14   S    
C71   H8    S    
Cr2   O21   S    
C17   C20   S    
C96   O13   A    
C67   Br4   S    
Cr4   O6    S    
C41   C42   A    
C88   H11   S    
C76   O37   S    
C93   O11   A    
C59   O34   S    
Cr3   O5    S    
C44   C53   A    
C16   H2    S    
C40   C43   A    
C31   C32   S    
C16   C17   S    
C56   C72   S    
C91   O7    A    
C7    Br12  S    
Cr6   O17   S    
C1    C28   S    
C31   C33   S    
Cr3   O23   S    
C60   H7    S    
C66   H9    S    
C80   C96   S    
Cr1   O25   S    
Cr4   O7    S    
C55   C72   A    
C41   Br5   S    
Cr5   O15   S    
C61   C62   A    
C58   C61   A    
C15   C23   S    
C23   O1    A    
C59   C60   A    
C91   O8    A    
C43   C44   A    
C95   O16   A    
C20   O27   S    
C84   O38   S    
C11   Br15  S    
C4    C7    S    
C30   C36   S    
Cr4   O19   S    
O28   H15   S    
C39   C42   A    
C25   C29   S    
C38   C39   A    
C3    C67   S    
C53   Br6   S    
C94   O14   A    
C69   C71   A    
C51   C52   A    
Cr5   O9    S    
C32   C35   S    
C76   C77   A    
C81   Br14  S    
C25   O29   S    
C5    O39   S    
C9    C89   T    
O35   H22   S    
C5    C7    S    
C56   O24   A    
Cr4   O14   S    
C68   C69   A    
C57   C60   A    
C6    C8    S    
C3    C5    S    
C25   C26   S    
C85   C86   A    
Cr2   O20   S    
C74   C77   A    
C81   C82   A    
C79   C80   A    
C46   H6    S    
C51   C53   A    
C64   C66   A    
C38   H4    S    
C26   O28   S    
C75   C76   A    
Cr6   O19   S    
O40   H27   S    
C4    C78   S    
C29   C30   S    
C35   H3    S    
C11   C16   S    
C47   C48   A    
C38   C54   A    
C4    C9    S    
C46   C54   A    
C50   C51   A    
C13   C21   S    
C49   Br7   S    
C16   C18   S    
C94   O15   A    
C32   C37   S    
C84   C85   A    
C89   C92   S    
C13   H13   S    
C8    Br9   S    
Cr5   O8    S    
C81   C90   A    
Cr5   O16   S    
C75   C87   A    
C15   C24   T    
C92   O9    A    
C45   C54   S    
C49   C50   A    
C82   C84   A    
C55   C57   A    
Cr2   O26   S    
C50   H5    S    
C56   O4    A    
C27   C93   S    
C42   O32   S    
C3    C4    S    
C2    C10   T    
C6    C67   S    
O39   H26   S    
C86   C87   A    
C73   H10   S    
C45   O2    A    
C31   O30   S    
C46   C47   A    
C40   C41   A    
C30   C33   S    
C20   C21   S    
Cr4   O13   S    
C12   O22   A    
C58   C70   A    
C1    O12   A    
C57   C65   A    
Cr6   O11   S    
C3    H12   S    
C6    C10   S    
Cr2   O5    S    
C96   O18   A    
C13   C17   S    
C27   C36   T    
C17   C22   S    
C21   O40   S    
C64   C65   A    
C14   C22   T    
Cr1   O5    S    
C62   C94   S    
C19   C24   S    
C58   C59   A    
Cr6   O18   S    
C55   Br8   S    
C80   C88   A    
C44   C95   S    
C40   C52   A    
C29   Br3   S    
C11   C13   S    
C95   O17   A    
C28   C37   T    
C25   C32   S    
C34   O25   A    
C33   C35   S    
C62   C71   A    
Cr1   O1    S    
C18   C20   S    
C18   H1    S    
C69   C70   A    
C14   C91   S    
O38   H25   S    
Cr3   O4    S    
C63   C64   A    
C68   O35   S    
C26   C35   S    
C48   C52   A    
C63   C72   A    
C29   C31   S    
C82   C83   A    
C12   O21   A    
C1    O20   A    
O30   H17   S    
Cr3   O22   S    
C33   Br2   S    
O31   H18   S    
C43   O31   S    
C75   C79   A    
Cr1   O24   S    
C65   C70   A    
C39   C48   A    
Cr3   O3    S    
C26   C30   S    
