data_mof_unit_40771.cif
_audit_creation_date              2012-12-11T14:52:28-0500
_audit_creation_method            fapswitch 2.2
_symmetry_space_group_name_H-M    P1
_symmetry_Int_Tables_number       1
_space_group_crystal_system       triclinic
_cell_length_a                    18.73024
_cell_length_b                    11.016953
_cell_length_c                    18.678838
_cell_angle_alpha                 89.999988
_cell_angle_beta                  91.275351
_cell_angle_gamma                 90.0
_cell_volume                      3853.42664812

loop_
_atom_site_label
_atom_site_type_symbol
_atom_type_description
_atom_site_fract_x
_atom_site_fract_y
_atom_site_fract_z
_atom_type_partial_charge
C1    C     C_R   0.270751 0.045568 0.852197 0.535968
C2    C     C_R   0.729249 0.045568 0.147803 0.535968
C3    C     C_R   0.770751 0.545568 0.852197 0.535968
C4    C     C_R   0.229249 0.545568 0.147803 0.535968
C5    C     C_3   0.530273 0.728983 0.972643 -0.117528
C6    C     C_3   0.469728 0.728982 0.027356 -0.117528
C7    C     C_3   0.030273 0.228983 0.972643 -0.117528
C8    C     C_3   0.969728 0.228982 0.027356 -0.117528
C9    C     C_R   0.306173 0.540958 0.965976 -0.149798
C10   C     C_R   0.693827 0.540957 0.034024 -0.149800
C11   C     C_R   0.806173 0.040958 0.965976 -0.149798
C12   C     C_R   0.193827 0.040957 0.034024 -0.149800
C13   C     C_R   0.302635 0.527291 0.039890 -0.178233
C14   C     C_R   0.697366 0.527289 0.960110 -0.178232
C15   C     C_R   0.802635 0.027291 0.039890 -0.178233
C16   C     C_R   0.197366 0.027290 0.960110 -0.178233
C17   C     C_R   0.251262 0.591644 0.078448 0.005044
C18   C     C_R   0.748738 0.591643 0.921552 0.005044
C19   C     C_R   0.751262 0.091644 0.078448 0.005044
C20   C     C_R   0.248738 0.091644 0.921552 0.005044
C21   C     C_R   0.208676 0.679710 0.043164 0.226774
C22   C     C_R   0.791322 0.679712 0.956835 0.226774
C23   C     C_R   0.708676 0.179710 0.043164 0.226774
C24   C     C_R   0.291322 0.179712 0.956835 0.226774
C25   C     C_R   0.208224 0.684268 0.969479 -0.075884
C26   C     C_R   0.791774 0.684271 0.030520 -0.075883
C27   C     C_R   0.708224 0.184268 0.969479 -0.075884
C28   C     C_R   0.291774 0.184271 0.030520 -0.075883
C29   C     C_R   0.256376 0.614824 0.930032 -0.034354
C30   C     C_R   0.743623 0.614825 0.069968 -0.034354
C31   C     C_R   0.756376 0.114824 0.930032 -0.034353
C32   C     C_R   0.243623 0.114825 0.069968 -0.034354
C33   C     C_R   0.500081 0.720916 0.536584 -0.141450
C34   C     C_R   0.499919 0.720916 0.463416 -0.141451
C35   C     C_R   0.000081 0.220916 0.536584 -0.141450
C36   C     C_R   0.999919 0.220916 0.463416 -0.141451
C37   C     C_R   0.505038 0.830345 0.425874 0.038291
C38   C     C_R   0.494962 0.830345 0.574126 0.038291
C39   C     C_R   0.005037 0.330345 0.425874 0.038291
C40   C     C_R   0.994962 0.330345 0.574126 0.038291
C41   C     C_R   0.503256 0.941180 0.462918 -0.125775
C42   C     C_R   0.496744 0.941180 0.537082 -0.125775
C43   C     C_R   0.003256 0.441180 0.462918 -0.125775
C44   C     C_R   0.996744 0.441180 0.537082 -0.125775
C45   C     C_R   0.471306 0.821722 0.855025 0.544005
C46   C     C_R   0.528694 0.821722 0.144974 0.544005
C47   C     C_R   0.971306 0.321722 0.855025 0.544005
C48   C     C_R   0.028694 0.321722 0.144974 0.544005
C49   C     C_R   0.212419 0.723602 0.517524 0.138835
C50   C     C_R   0.787581 0.723603 0.482476 0.138835
C51   C     C_R   0.712418 0.223602 0.517524 0.138835
C52   C     C_R   0.287581 0.223603 0.482476 0.138835
C53   C     C_R   0.208898 0.699482 0.444879 -0.084809
C54   C     C_R   0.791102 0.699482 0.555121 -0.084809
C55   C     C_R   0.708898 0.199482 0.444879 -0.084809
C56   C     C_R   0.291102 0.199482 0.555121 -0.084809
C57   C     C_R   0.256951 0.619136 0.414127 -0.003301
C58   C     C_R   0.743048 0.619136 0.585873 -0.003301
C59   C     C_R   0.756951 0.119136 0.414127 -0.003301
C60   C     C_R   0.243049 0.119136 0.585873 -0.003301
C61   C     C_R   0.320421 0.590646 0.450814 -0.156200
C62   C     C_R   0.679579 0.590646 0.549185 -0.156200
C63   C     C_R   0.820421 0.090646 0.450814 -0.156200
C64   C     C_R   0.179579 0.090646 0.549185 -0.156200
C65   C     C_R   0.327250 0.618672 0.523297 -0.154554
C66   C     C_R   0.672749 0.618672 0.476703 -0.154555
C67   C     C_R   0.827250 0.118672 0.523297 -0.154554
C68   C     C_R   0.172749 0.118672 0.476703 -0.154555
C69   C     C_R   0.271458 0.677973 0.558311 0.031756
C70   C     C_R   0.728542 0.677973 0.441689 0.031757
C71   C     C_R   0.771458 0.177973 0.558311 0.031757
C72   C     C_R   0.228542 0.177973 0.441689 0.031757
C73   C     C_R   0.262142 0.642055 0.854085 0.551908
C74   C     C_R   0.737858 0.642056 0.145914 0.551908
C75   C     C_R   0.762142 0.142055 0.854085 0.551908
C76   C     C_R   0.237857 0.142055 0.145914 0.551908
C77   C     C_R   0.268706 0.052692 0.649069 0.532985
C78   C     C_R   0.731294 0.052692 0.350930 0.532985
C79   C     C_R   0.768706 0.552692 0.649069 0.532985
C80   C     C_R   0.231294 0.552692 0.350930 0.532985
C81   C     C_R   0.469979 0.823486 0.646961 0.537799
C82   C     C_R   0.530021 0.823487 0.353038 0.537799
C83   C     C_R   0.969979 0.323487 0.646961 0.537799
C84   C     C_R   0.030021 0.323487 0.353038 0.537799
C85   C     C_R   0.274892 0.692420 0.636458 0.572236
C86   C     C_R   0.725107 0.692421 0.363542 0.572235
C87   C     C_R   0.774892 0.192420 0.636458 0.572236
C88   C     C_R   0.225107 0.192421 0.363542 0.572235
C89   C     C_3   0.469779 0.929385 0.027701 -0.108311
C90   C     C_3   0.530220 0.929386 0.972299 -0.108310
C91   C     C_3   0.969779 0.429385 0.027701 -0.108311
C92   C     C_3   0.030220 0.429386 0.972299 -0.108311
C93   C     C_3   0.430118 0.829171 0.984602 -0.107510
C94   C     C_3   0.569882 0.829172 0.015398 -0.107510
C95   C     C_3   0.930118 0.329171 0.984602 -0.107510
C96   C     C_3   0.069882 0.329172 0.015398 -0.107510
C97   C     C_3   0.491166 0.828888 0.930624 0.049188
C98   C     C_3   0.508834 0.828888 0.069376 0.049188
C99   C     C_3   0.991166 0.328888 0.930624 0.049188
C100  C     C_3   0.008834 0.328888 0.069376 0.049188
Cr1   Cr    Cr6+3 0.229630 0.835900 0.747350 1.009331
Cr2   Cr    Cr6+3 0.770370 0.835900 0.252650 1.009330
Cr3   Cr    Cr6+3 0.729630 0.335900 0.747350 1.009331
Cr4   Cr    Cr6+3 0.270370 0.335900 0.252650 1.009331
Cr5   Cr    Cr6+3 0.387410 0.989850 0.750850 1.031037
Cr6   Cr    Cr6+3 0.612590 0.989850 0.249150 1.031037
Cr7   Cr    Cr6+3 0.887410 0.489850 0.750850 1.031037
Cr8   Cr    Cr6+3 0.112590 0.489850 0.249150 1.031037
Cr9   Cr    Cr6+3 0.385800 0.677120 0.749340 1.014372
Cr10  Cr    Cr6+3 0.614200 0.677120 0.250660 1.014372
Cr11  Cr    Cr6+3 0.885800 0.177120 0.749340 1.014372
Cr12  Cr    Cr6+3 0.114200 0.177120 0.250660 1.014372
H1    H     H_    0.372234 0.829206 0.970201 0.124876
H2    H     H_    0.627766 0.829208 0.029799 0.124876
H3    H     H_    0.872234 0.329206 0.970201 0.124876
H4    H     H_    0.127766 0.329208 0.029799 0.124876
H5    H     H_    0.164277 0.733890 0.413339 0.143826
H6    H     H_    0.835723 0.733890 0.586661 0.143826
H7    H     H_    0.664277 0.233891 0.413339 0.143826
H8    H     H_    0.335723 0.233890 0.586661 0.143826
H9    H     H_    0.362917 0.542789 0.424766 0.116456
H10   H     H_    0.637083 0.542788 0.575234 0.116456
H11   H     H_    0.862917 0.042789 0.424766 0.116456
H12   H     H_    0.137083 0.042789 0.575234 0.116456
H13   H     H_    0.374131 0.587852 0.552739 0.134108
H14   H     H_    0.625869 0.587852 0.447261 0.134108
H15   H     H_    0.874130 0.087852 0.552739 0.134108
H16   H     H_    0.125869 0.087852 0.447261 0.134108
H17   H     H_    0.444336 0.010271 0.051748 0.135563
H18   H     H_    0.555662 0.010273 0.948252 0.135563
H19   H     H_    0.944336 0.510272 0.051748 0.135563
H20   H     H_    0.055662 0.510273 0.948252 0.135563
H21   H     H_    0.555474 0.647825 0.948719 0.128947
H22   H     H_    0.444527 0.647824 0.051281 0.128947
H23   H     H_    0.055474 0.147825 0.948719 0.128947
H24   H     H_    0.944527 0.147824 0.051281 0.128947
H25   H     H_    0.346887 0.493161 0.936991 0.184894
H26   H     H_    0.653114 0.493158 0.063009 0.184893
H27   H     H_    0.846887 0.993161 0.936991 0.184894
H28   H     H_    0.153114 0.993158 0.063009 0.184893
H29   H     H_    0.337942 0.462864 0.066328 0.143667
H30   H     H_    0.662060 0.462861 0.933673 0.143668
H31   H     H_    0.837942 0.962864 0.066328 0.143667
H32   H     H_    0.162060 0.962861 0.933673 0.143668
H33   H     H_    0.171974 0.747826 0.943567 0.159074
H34   H     H_    0.828024 0.747830 0.056432 0.159074
H35   H     H_    0.671974 0.247825 0.943567 0.159074
H36   H     H_    0.328024 0.247830 0.056432 0.159074
H37   H     H_    0.499552 0.633561 0.563212 0.122173
H38   H     H_    0.500448 0.633561 0.436787 0.122173
H39   H     H_    0.999552 0.133561 0.563212 0.122173
H40   H     H_    0.000447 0.133561 0.436787 0.122173
H41   H     H_    0.508055 0.026765 0.434918 0.128415
H42   H     H_    0.491945 0.026765 0.565082 0.128415
H43   H     H_    0.008055 0.526765 0.434918 0.128415
H44   H     H_    0.991945 0.526765 0.565082 0.128415
O1    O     O_R   0.214270 0.709000 0.827470 -0.523994
O2    O     O_R   0.785730 0.709000 0.172530 -0.523994
O3    O     O_R   0.714270 0.209000 0.827470 -0.523994
O4    O     O_R   0.285730 0.209000 0.172530 -0.523994
O5    O     O_R   0.445950 0.919440 0.676520 -0.502484
O6    O     O_R   0.554050 0.919440 0.323480 -0.502484
O7    O     O_R   0.945950 0.419440 0.676520 -0.502484
O8    O     O_R   0.054050 0.419440 0.323480 -0.502484
O9    O     O_R   0.456730 0.717630 0.669840 -0.540991
O10   O     O_R   0.543270 0.717630 0.330160 -0.540991
O11   O     O_R   0.956730 0.217630 0.669840 -0.540991
O12   O     O_R   0.043270 0.217630 0.330160 -0.540991
O13   O     O_R   0.320620 0.625640 0.672920 -0.506166
O14   O     O_R   0.679380 0.625640 0.327080 -0.506166
O15   O     O_R   0.820620 0.125640 0.672920 -0.506166
O16   O     O_R   0.179380 0.125640 0.327080 -0.506166
O17   O     O_3   0.334280 0.834290 0.749180 -0.273124
O18   O     O_3   0.665720 0.834290 0.250820 -0.273124
O19   O     O_3   0.834280 0.334290 0.749180 -0.273124
O20   O     O_3   0.165720 0.334290 0.250820 -0.273124
O21   O     O_R   0.236160 0.958490 0.823130 -0.516225
O22   O     O_R   0.763840 0.958490 0.176870 -0.516225
O23   O     O_R   0.736160 0.458490 0.823130 -0.516225
O24   O     O_R   0.263840 0.458490 0.176870 -0.516225
O25   O     O_R   0.332080 0.075470 0.831280 -0.482866
O26   O     O_R   0.667920 0.075470 0.168720 -0.482866
O27   O     O_R   0.832080 0.575470 0.831280 -0.482866
O28   O     O_R   0.167920 0.575470 0.168720 -0.482866
O29   O     O_R   0.446300 0.918110 0.826620 -0.490290
O30   O     O_R   0.553700 0.918110 0.173380 -0.490289
O31   O     O_R   0.946300 0.418110 0.826620 -0.490290
O32   O     O_R   0.053700 0.418110 0.173380 -0.490289
O33   O     O_R   0.457110 0.716200 0.831760 -0.517779
O34   O     O_R   0.542890 0.716200 0.168240 -0.517779
O35   O     O_R   0.957110 0.216200 0.831760 -0.517779
O36   O     O_R   0.042890 0.216200 0.168240 -0.517779
O37   O     O_R   0.320980 0.624310 0.823030 -0.492192
O38   O     O_R   0.679020 0.624310 0.176970 -0.492192
O39   O     O_R   0.820980 0.124310 0.823030 -0.492191
O40   O     O_R   0.179020 0.124310 0.176970 -0.492192
O41   O     O_R   0.213890 0.710430 0.665540 -0.489061
O42   O     O_R   0.786110 0.710430 0.334460 -0.489061
O43   O     O_R   0.713890 0.210430 0.665540 -0.489061
O44   O     O_R   0.286110 0.210430 0.334460 -0.489061
O45   O     O_R   0.235810 0.959820 0.673020 -0.539572
O46   O     O_R   0.764190 0.959820 0.326980 -0.539573
O47   O     O_R   0.735810 0.459820 0.673020 -0.539572
O48   O     O_R   0.264190 0.459820 0.326980 -0.539573
O49   O     O_R   0.331700 0.076900 0.669350 -0.527956
O50   O     O_R   0.668300 0.076900 0.330650 -0.527956
O51   O     O_R   0.831700 0.576900 0.669350 -0.527956
O52   O     O_R   0.168300 0.576900 0.330650 -0.527956
N1    N     N_2   0.155306 0.786524 0.550741 -0.489620
H45   H     H_    0.170672 0.857181 0.582691 0.283358
C101  C     C_3   0.086501 0.801230 0.515384 -0.332544
H46   H     H_    0.047875 0.835829 0.554700 0.134123
H47   H     H_    0.066862 0.712503 0.494797 0.152974
H48   H     H_    0.090001 0.868188 0.471183 0.125772
N2    N     N_2   0.844693 0.786524 0.449259 -0.489620
H49   H     H_    0.829328 0.857181 0.417309 0.283358
C102  C     C_3   0.913499 0.801230 0.484615 -0.332543
H50   H     H_    0.952125 0.835829 0.445300 0.134123
H51   H     H_    0.933137 0.712503 0.505202 0.152974
H52   H     H_    0.909999 0.868187 0.528817 0.125772
N3    N     N_2   0.655306 0.286524 0.550741 -0.489620
H53   H     H_    0.670672 0.357181 0.582691 0.283358
C103  C     C_3   0.586501 0.301230 0.515384 -0.332544
H54   H     H_    0.547875 0.335829 0.554700 0.134123
H55   H     H_    0.566862 0.212503 0.494797 0.152974
H56   H     H_    0.590001 0.368188 0.471183 0.125772
N4    N     N_2   0.344693 0.286524 0.449259 -0.489620
H57   H     H_    0.329328 0.357181 0.417309 0.283358
C104  C     C_3   0.413499 0.301230 0.484615 -0.332543
H58   H     H_    0.452125 0.335829 0.445300 0.134123
H59   H     H_    0.433137 0.212503 0.505202 0.152974
H60   H     H_    0.409999 0.368187 0.528817 0.125772
O53   O     O_3   0.164761 0.759021 0.078504 -0.706704
H61   H     H_    0.187379 0.777294 0.125787 0.331521
O54   O     O_3   0.835237 0.759024 0.921494 -0.706704
H62   H     H_    0.812618 0.777295 0.874211 0.331521
O55   O     O_3   0.664761 0.259021 0.078504 -0.706704
H63   H     H_    0.687379 0.277294 0.125787 0.331521
O56   O     O_3   0.335237 0.259024 0.921495 -0.706704
H64   H     H_    0.312619 0.277295 0.874212 0.331521

loop_
_geom_bond_atom_site_label_1
_geom_bond_atom_site_label_2
_ccdc_geom_bond_type
C58   C62   A    
C14   H30   S    
Cr11  O35   S    
C88   O16   A    
C73   O37   A    
Cr3   O47   S    
C8    H24   S    
C34   C37   A    
Cr4   O44   S    
C41   C42   A    
C14   C18   A    
Cr1   O17   S    
C35   C36   A    
C40   C83   S    
C87   O43   A    
Cr8   O52   S    
Cr3   O3    S    
Cr2   O2    S    
C74   O38   A    
C5    C94   S    
C34   H38   S    
C103  H56   S    
C47   C99   S    
C7    C8    S    
C35   H39   S    
C55   H7    S    
C65   C69   A    
C102  H52   S    
C15   C19   A    
C7    C96   S    
Cr8   O8    S    
C91   C95   S    
C50   C54   A    
C7    C99   S    
Cr11  O19   S    
C103  H55   S    
C64   C68   A    
C92   H20   S    
Cr4   O4    S    
C39   C84   S    
C48   O32   A    
C104  H60   S    
C77   O49   A    
N2    C102  S    
C82   O10   A    
C5    C6    S    
C23   O55   S    
C91   H19   S    
Cr9   O17   S    
Cr3   O23   S    
C29   C73   S    
C94   C98   S    
C95   C99   S    
Cr12  O12   S    
Cr7   O31   S    
C92   C96   S    
C89   H17   S    
C46   O34   A    
C3    C18   S    
C61   H9    S    
C2    O26   A    
Cr1   O41   S    
Cr5   O29   S    
C26   H34   S    
C9    C13   A    
Cr6   O26   S    
C11   H27   S    
C76   O40   A    
C9    H25   S    
C21   O53   S    
O56   H64   S    
Cr9   O33   S    
Cr10  O38   S    
O54   H62   S    
C12   H28   S    
Cr9   O37   S    
C23   C27   A    
C91   C100  S    
Cr2   O42   S    
O53   H61   S    
C68   H16   S    
C90   C97   S    
Cr7   O51   S    
C84   O8    A    
C9    C29   A    
Cr6   O6    S    
C46   C98   S    
C42   H42   S    
C11   C31   A    
C49   C69   A    
O55   H63   S    
C12   C32   A    
C89   C93   S    
C56   H8    S    
C57   C80   S    
Cr6   O50   S    
C8    C95   S    
C1    O21   A    
C4    O24   A    
C43   H43   S    
C59   C78   S    
C72   C88   S    
Cr9   O13   S    
C90   C94   S    
C41   H41   S    
Cr10  O18   S    
C25   C29   A    
C48   C100  S    
C27   H35   S    
C63   C67   A    
C60   C77   S    
C28   H36   S    
Cr8   O28   S    
C27   C31   A    
C94   H2    S    
C12   C16   A    
C28   C32   A    
C62   C66   A    
Cr6   O30   S    
C103  H54   S    
Cr4   O20   S    
C10   C14   A    
C95   H3    S    
C91   C92   S    
C74   O2    A    
C19   C23   A    
C36   H40   S    
C93   H1    S    
C82   O6    A    
C51   C55   A    
Cr12  O40   S    
C102  H50   S    
C64   H12   S    
C83   O11   A    
C1    O25   A    
Cr10  O34   S    
C17   C21   A    
C3    O23   A    
Cr7   O27   S    
C68   C72   A    
Cr5   O17   S    
C65   H13   S    
Cr4   O24   S    
C5    H21   S    
C43   C44   A    
C78   O50   A    
C101  H46   S    
C7    H23   S    
C104  H58   S    
C52   C72   A    
C67   H15   S    
Cr12  O36   S    
N3    H53   S    
C10   C30   A    
C52   N4    S    
C31   C75   S    
N4    H57   S    
C45   C97   S    
C40   C44   A    
C16   C20   A    
C6    C93   S    
C87   O15   A    
Cr3   O19   S    
N1    H45   S    
Cr6   O18   S    
Cr3   O43   S    
C4    O28   A    
C57   C61   A    
C24   O56   S    
Cr9   O9    S    
C58   C79   S    
C86   O42   A    
C61   C65   A    
C71   C87   S    
C4    C17   S    
Cr10  O14   S    
Cr4   O48   S    
C45   O33   A    
C44   H44   S    
C80   O52   A    
C5    C97   S    
C26   C30   A    
C83   O7    A    
C11   C15   A    
C25   H33   S    
C54   H6    S    
C38   C81   S    
C22   C26   A    
Cr2   O22   S    
C15   H31   S    
C37   C82   S    
Cr11  O11   S    
C47   O31   A    
Cr12  O20   S    
C70   C86   S    
C6    C98   S    
C62   H10   S    
C69   C85   S    
C55   C59   A    
C54   C58   A    
C75   O3    A    
C101  H47   S    
C21   C25   A    
C76   O4    A    
C1    C20   S    
C53   C57   A    
C16   H32   S    
C2    C19   S    
C86   O14   A    
C81   O5    A    
C13   H29   S    
Cr8   O32   S    
C36   C39   A    
C24   C28   A    
Cr7   O7    S    
C77   O45   A    
C32   C76   S    
C63   H11   S    
C78   O46   A    
C51   C71   A    
C47   O35   A    
Cr5   O49   S    
C73   O1    A    
Cr2   O18   S    
C10   H26   S    
C66   C70   A    
C59   C63   A    
C33   C38   A    
C13   C17   A    
C89   C98   S    
C60   C64   A    
C79   O47   A    
C88   O44   A    
C18   C22   A    
C35   C40   A    
C8    C100  S    
N3    C103  S    
N4    C104  S    
C33   H37   S    
Cr10  O10   S    
C45   O29   A    
Cr12  O16   S    
Cr7   O19   S    
C50   N2    S    
C51   N3    S    
C53   H5    S    
C30   C74   S    
C96   C100  S    
N1    C101  S    
C93   C97   S    
C33   C34   A    
C67   C71   A    
C79   O51   A    
N2    H49   S    
C37   C41   A    
C102  H51   S    
C85   O13   A    
C50   C70   A    
C48   O36   A    
C49   C53   A    
Cr1   O21   S    
Cr1   O1    S    
C22   O54   S    
C90   H18   S    
C38   C42   A    
C66   H14   S    
C6    H22   S    
C101  H48   S    
C56   C60   A    
C84   O12   A    
C46   O30   A    
Cr2   O46   S    
C104  H59   S    
Cr8   O20   S    
C39   C43   A    
C49   N1    S    
C81   O9    A    
C85   O41   A    
C96   H4    S    
Cr5   O5    S    
Cr1   O45   S    
C2    O22   A    
Cr5   O25   S    
C89   C90   S    
C80   O48   A    
C3    O27   A    
C20   C24   A    
C52   C56   A    
C92   C99   S    
Cr11  O39   S    
Cr11  O15   S    
C75   O39   A    
