data_mof_unit_13107.cif
_audit_creation_date              2012-12-10T20:39:08-0500
_audit_creation_method            fapswitch 2.2
_symmetry_space_group_name_H-M    P1
_symmetry_Int_Tables_number       1
_space_group_crystal_system       triclinic
_cell_length_a                    18.946017
_cell_length_b                    10.71575
_cell_length_c                    9.867397
_cell_angle_alpha                 89.727295
_cell_angle_beta                  89.953983
_cell_angle_gamma                 90.678452
_cell_volume                      2003.12277926

loop_
_atom_site_label
_atom_site_type_symbol
_atom_type_description
_atom_site_fract_x
_atom_site_fract_y
_atom_site_fract_z
_atom_type_partial_charge
C1    C     C_R   0.499757 0.260037 0.499936 0.966570
C2    C     C_R   0.855434 0.568144 0.510757 -0.002428
C3    C     C_R   0.476249 0.063487 0.615970 0.057097
C4    C     C_R   0.365172 0.505600 0.500334 0.936733
C5    C     C_R   0.492644 0.128266 0.497775 -0.121083
C6    C     C_R   0.496957 0.064609 0.374325 -0.128883
C7    C     C_R   0.495866 0.935990 0.374593 -0.199792
C8    C     C_R   0.489079 0.871241 0.497723 -0.143537
C9    C     C_R   0.472313 0.935787 0.615780 -0.056451
C10   C     C_3   0.499921 0.927771 0.758441 0.767122
C11   C     C_3   0.508868 0.070065 0.753558 0.085188
C12   C     C_R   0.290406 0.536730 0.502329 -0.147975
C13   C     C_R   0.458159 0.417100 0.072005 0.142695
C14   C     C_R   0.546191 0.572511 0.071509 -0.099241
C15   C     C_R   0.546463 0.571950 0.927603 0.067384
C16   C     C_R   0.498102 0.739896 0.499715 0.890950
C17   C     C_R   0.457979 0.418003 0.929249 0.180700
C18   C     C_3   0.379587 0.409103 0.922470 -0.478284
C19   C     C_3   0.379277 0.409162 0.076544 0.240272
C20   C     C_R   0.634873 0.498930 0.500031 0.926031
C21   C     C_R   0.261863 0.591718 0.618625 -0.154208
C22   C     C_R   0.192286 0.631101 0.620842 0.486773
C23   C     C_R   0.931163 0.594562 0.514431 0.320921
C24   C     C_R   0.149550 0.610702 0.505427 -0.058465
C25   C     C_R   0.179017 0.560481 0.387469 -0.166045
C26   C     C_R   0.249066 0.524157 0.385808 -0.130080
C27   C     C_R   0.073003 0.619531 0.512956 0.281336
C28   C     C_R   0.825445 0.484031 0.604418 -0.207109
C29   C     C_R   0.753785 0.453627 0.599105 0.456477
C30   C     C_R   0.711342 0.512024 0.500266 -0.174537
C31   C     C_R   0.741914 0.593681 0.404936 -0.237480
C32   C     C_R   0.813482 0.621313 0.409826 -0.125482
H1    H     H_    0.294174 0.608184 0.707301 0.201326
H2    H     H_    0.270264 0.484136 0.294400 0.199134
H3    H     H_    0.858198 0.440044 0.680282 0.211677
H4    H     H_    0.709921 0.639320 0.328820 0.173735
H5    H     H_    0.835697 0.685776 0.335978 0.171748
H6    H     H_    0.506089 0.113053 0.279181 0.207801
H7    H     H_    0.429146 0.828392 0.087113 0.364673
H8    H     H_    0.597181 0.895334 0.700397 0.298804
H9    H     H_    0.495609 0.147503 0.926045 0.372807
H10   H     H_    0.126385 0.738481 0.714309 0.348539
H11   H     H_    0.372265 0.070426 0.140747 0.403626
H12   H     H_    0.505727 0.888182 0.280410 0.207533
H13   H     H_    0.764236 0.190272 0.834845 0.390624
H14   H     H_    0.564509 0.105043 0.750543 0.138472
H15   H     H_    0.582355 0.633301 0.125428 0.156597
H16   H     H_    0.583069 0.631805 0.872991 0.187831
H17   H     H_    0.355615 0.494157 0.878550 0.197696
H18   H     H_    0.361485 0.320287 0.875433 0.276757
H19   H     H_    0.354990 0.493950 0.119917 0.091103
H20   H     H_    0.146931 0.543482 0.298451 0.190073
N1    N     N_R   0.034956 0.651319 0.402041 -0.144541
N2    N     N_R   0.965077 0.639706 0.403085 -0.154361
N3    N     N_R   0.969250 0.564969 0.625927 -0.150661
N4    N     N_R   0.038984 0.576868 0.625037 -0.127045
N5    N     N_R   0.499530 0.499140 0.142800 -0.147848
N6    N     N_R   0.499530 0.499180 0.857150 -0.099914
O1    O     O_R   0.500010 0.316790 0.614690 -0.576426
O2    O     O_2   0.416182 0.734811 0.838709 -0.334464
O3    O     O_3   0.464402 0.875139 0.032020 -0.566426
O4    O     O_3   0.564272 0.864459 0.771797 -0.785485
O5    O     O_3   0.466096 0.134480 0.844230 -0.647731
O6    O     O_3   0.168514 0.688696 0.736828 -0.720902
O7    O     O_2   0.349851 0.269855 0.299914 -0.311352
O8    O     O_2   0.270172 0.248732 0.106144 -0.254813
O9    O     O_3   0.392741 0.143942 0.093098 -0.503245
O10   O     O_2   0.684692 0.401134 0.829346 -0.307903
O11   O     O_2   0.668508 0.255134 0.640725 -0.351820
O12   O     O_R   0.500000 0.316760 0.385350 -0.601035
O13   O     O_3   0.787058 0.251255 0.772515 -0.544086
O14   O     O_R   0.398140 0.500000 0.614710 -0.620489
O15   O     O_R   0.398130 0.499970 0.385370 -0.604359
O16   O     O_R   0.500000 0.683240 0.614650 -0.562715
O17   O     O_R   0.499990 0.683210 0.385310 -0.644920
O18   O     O_R   0.601870 0.500030 0.614630 -0.567847
O19   O     O_R   0.601860 0.500000 0.385290 -0.629463
O20   O     O_2   0.367327 0.943538 0.861941 -0.212305
S1    S     S_3+6 0.433502 0.868062 0.872857 0.090363
S2    S     S_3+6 0.345905 0.265674 0.148059 0.043742
S3    S     S_3+6 0.720608 0.338368 0.712629 0.015049
Zn1   Zn    Zn3+2 0.500000 0.500020 0.653130 1.066726
Zn2   Zn    Zn3+2 0.500000 0.499980 0.346870 0.990549

loop_
_geom_bond_atom_site_label_1
_geom_bond_atom_site_label_2
_ccdc_geom_bond_type
N3    N4    A    
O2    S1    D    
H13   O13   S    
C16   O17   A    
C24   C27   S    
C7    C8    A    
C20   C30   S    
N1    N2    A    
C20   O19   A    
C1    C5    S    
O10   S3    D    
C28   C29   A    
C11   O5    S    
C1    O1    A    
C30   C31   A    
C21   H1    S    
O19   Zn2   S    
H8    O4    S    
C20   O18   A    
C2    C32   A    
C18   C19   S    
C26   H2    S    
C28   H3    S    
C8    C9    A    
O1    Zn1   S    
C4    C12   S    
C9    C10   S    
C31   H4    S    
C17   N6    A    
C8    C16   S    
O7    S2    D    
C21   C22   A    
C10   O4    S    
C15   H16   S    
O16   Zn1   S    
H7    O3    S    
C13   C19   S    
O11   S3    D    
C24   C25   A    
O18   Zn1   S    
O20   S1    D    
C25   C26   A    
C7    H12   S    
C12   C21   A    
C12   C26   A    
C29   S3    S    
C29   C30   A    
C3    C9    A    
C31   C32   A    
N5    Zn2   S    
C17   C18   S    
C32   H5    S    
O12   Zn2   S    
C4    O15   A    
C14   H15   S    
C15   N6    A    
C16   O16   A    
H9    O5    S    
H10   O6    S    
C4    O14   A    
C18   H18   S    
C23   N2    A    
C14   N5    A    
C27   N4    A    
O9    S2    S    
C3    C5    A    
C10   S1    S    
C27   N1    A    
C23   N3    A    
C6    C7    A    
O8    S2    D    
C1    O12   A    
C13   C17   A    
N6    Zn1   S    
C25   H20   S    
O17   Zn2   S    
C5    C6    A    
O3    S1    S    
C22   C24   A    
C19   S2    S    
C3    C11   S    
C10   C11   S    
C22   O6    S    
C19   H19   S    
C13   N5    A    
H11   O9    S    
C2    C23   S    
C14   C15   A    
C11   H14   S    
C2    C28   A    
C6    H6    S    
O15   Zn2   S    
O14   Zn1   S    
C18   H17   S    
O13   S3    S    
