data_mof_unit_48683.cif
_audit_creation_date              2012-12-11T16:08:26-0500
_audit_creation_method            fapswitch 2.2
_symmetry_space_group_name_H-M    P1
_symmetry_Int_Tables_number       1
_space_group_crystal_system       triclinic
_cell_length_a                    7.455895
_cell_length_b                    21.283046
_cell_length_c                    23.491297
_cell_angle_alpha                 89.997125
_cell_angle_beta                  89.937271
_cell_angle_gamma                 91.371537
_cell_volume                      3726.62642808

loop_
_atom_site_label
_atom_site_type_symbol
_atom_type_description
_atom_site_fract_x
_atom_site_fract_y
_atom_site_fract_z
_atom_type_partial_charge
O1    O     O_R   0.365470 0.806380 0.442440 -0.525327
O2    O     O_R   0.134530 0.193620 0.942440 -0.525233
O3    O     O_R   0.865470 0.693620 0.557560 -0.524094
O4    O     O_R   0.634530 0.306380 0.057560 -0.523811
O5    O     O_R   0.035730 0.813790 0.557160 -0.534904
O6    O     O_R   0.464270 0.186210 0.057160 -0.534935
O7    O     O_R   0.535730 0.686210 0.442840 -0.536729
O8    O     O_R   0.964270 0.313790 0.942840 -0.536150
C1    C     C_R   0.204554 0.828084 0.575378 0.703744
C2    C     C_R   0.295287 0.171853 0.075317 0.707186
C3    C     C_R   0.701805 0.671617 0.424564 0.704630
C4    C     C_R   0.798297 0.328436 0.924591 0.706722
O9    O     O_R   0.035760 0.813790 0.442850 -0.529681
O10   O     O_R   0.464240 0.186210 0.942850 -0.529315
O11   O     O_R   0.535760 0.686210 0.557150 -0.534370
O12   O     O_R   0.964240 0.313790 0.057150 -0.533884
O13   O     O_R   0.865450 0.693620 0.442430 -0.527845
O14   O     O_R   0.634550 0.306380 0.942430 -0.527118
O15   O     O_R   0.365450 0.806380 0.557570 -0.521782
O16   O     O_R   0.134550 0.193620 0.057570 -0.526747
C5    C     C_R   0.204769 0.828089 0.424598 0.693485
C6    C     C_R   0.295391 0.171888 0.924605 0.694504
C7    C     C_R   0.701731 0.671797 0.575608 0.699263
C8    C     C_R   0.798141 0.328196 0.075612 0.698427
O17   O     O_3   0.198970 0.710570 0.500000 -0.382550
O18   O     O_3   0.301030 0.289430 0.000000 -0.381157
O19   O     O_3   0.698970 0.789430 0.500000 -0.376236
O20   O     O_3   0.801030 0.210570 0.000000 -0.378414
V1    V     V_3+5 0.924120 0.757310 0.500000 1.484391
V2    V     V_3+5 0.575880 0.242690 0.000000 1.479282
V3    V     V_3+5 0.424120 0.742690 0.500000 1.485247
V4    V     V_3+5 0.075880 0.257310 0.000000 1.478228
C9    C     C_3   0.909778 0.547360 0.732421 -0.171733
C10   C     C_3   0.589607 0.452890 0.232470 -0.172636
C11   C     C_3   0.418693 0.959184 0.266032 -0.182482
C12   C     C_3   0.081816 0.040361 0.766817 -0.174383
C13   C     C_3   0.583919 0.552174 0.758083 0.100394
C14   C     C_3   0.915318 0.447948 0.257964 0.101160
C15   C     C_3   0.089669 0.944766 0.245851 0.110389
C16   C     C_3   0.410871 0.054905 0.745586 0.065381
C17   C     C_3   0.602187 0.496251 0.802877 -0.001186
C18   C     C_3   0.897819 0.504115 0.302532 -0.002454
C19   C     C_3   0.092399 0.001146 0.201441 -0.027216
C20   C     C_3   0.404672 0.998669 0.700712 -0.021200
H1    H     H_    0.949300 0.529059 0.823751 0.162399
H2    H     H_    0.550872 0.471242 0.323859 0.162763
H3    H     H_    0.429842 0.974970 0.173641 0.168247
H4    H     H_    0.064027 0.023750 0.674652 0.164212
H5    H     H_    0.927106 0.595404 0.750363 0.119997
H6    H     H_    0.571760 0.404852 0.250402 0.119718
H7    H     H_    0.442786 0.911052 0.249821 0.107287
H8    H     H_    0.057687 0.088370 0.750327 0.108883
H9    H     H_    0.626544 0.515993 0.846107 0.147387
H10   H     H_    0.874111 0.484641 0.345914 0.147855
H11   H     H_    0.108342 0.982317 0.157698 0.185004
H12   H     H_    0.384664 0.017582 0.657144 0.178058
C21   C     C_1   0.798631 0.373951 0.878492 -0.125108
C22   C     C_1   0.701637 0.626246 0.378375 -0.124740
C23   C     C_1   0.286397 0.126930 0.121533 -0.123168
C24   C     C_1   0.212942 0.872873 0.621714 -0.115577
C25   C     C_3   0.717396 0.539138 0.706468 0.001342
C26   C     C_3   0.781997 0.460966 0.206389 0.002202
C27   C     C_3   0.229807 0.961967 0.295110 0.006696
C28   C     C_3   0.271634 0.037763 0.795270 0.023206
C29   C     C_3   0.935017 0.501278 0.783789 -0.437014
C30   C     C_3   0.564856 0.499000 0.283864 -0.437028
C31   C     C_3   0.426637 0.004040 0.213010 -0.394927
C32   C     C_3   0.071570 0.995118 0.714209 -0.440954
C33   C     C_3   0.769612 0.454606 0.789638 0.106542
C34   C     C_3   0.730283 0.545688 0.289448 0.106228
C35   C     C_3   0.258824 0.047049 0.211053 0.063425
C36   C     C_3   0.240059 0.952825 0.711229 0.111783
C37   C     C_3   0.753298 0.417895 0.730571 0.138965
C38   C     C_3   0.746300 0.582295 0.230313 0.138476
C39   C     C_3   0.252963 0.084003 0.270215 0.111978
C40   C     C_3   0.251158 0.915783 0.770189 0.102695
C41   C     C_3   0.689858 0.467936 0.682457 0.084064
C42   C     C_3   0.809720 0.532135 0.182238 0.083513
C43   C     C_3   0.204246 0.032732 0.320342 0.086137
C44   C     C_3   0.298621 0.967066 0.820401 0.085576
C45   C     C_1   0.795235 0.410908 0.838982 -0.029399
C46   C     C_1   0.704924 0.589388 0.338801 -0.029700
C47   C     C_1   0.277680 0.090461 0.161211 -0.012463
C48   C     C_1   0.221168 0.909293 0.661433 0.030144
C49   C     C_1   0.701106 0.587271 0.659646 0.020565
C50   C     C_1   0.798231 0.412749 0.159623 0.022542
C51   C     C_1   0.219680 0.913118 0.341446 0.067834
C52   C     C_1   0.281681 0.086707 0.841550 0.066834
C53   C     C_1   0.701042 0.625843 0.621364 -0.080507
C54   C     C_1   0.798489 0.374153 0.121363 -0.079953
C55   C     C_1   0.213664 0.874204 0.379290 -0.068321
C56   C     C_1   0.287090 0.125696 0.879343 -0.070079
H13   H     H_    0.062462 0.475901 0.779766 0.230852
H14   H     H_    0.437465 0.524398 0.280011 0.230094
H15   H     H_    0.553753 0.032182 0.211396 0.227792
H16   H     H_    0.946329 0.966069 0.714096 0.212636
C57   C     C_2   0.051484 0.547289 0.686633 0.885653
O21   O     O_2   0.116150 0.498532 0.670846 -0.488590
O22   O     O_R   0.099283 0.603777 0.659396 -0.680173
H17   H     H_    0.186980 0.597748 0.626931 0.304558
C58   C     C_2   0.447997 0.453156 0.186775 0.887435
O23   O     O_2   0.382948 0.501961 0.171351 -0.488457
O24   O     O_R   0.400598 0.396837 0.159232 -0.680014
H18   H     H_    0.312855 0.403031 0.126870 0.305299
C59   C     C_2   0.566181 0.968730 0.308916 0.908275
O25   O     O_2   0.653686 0.017597 0.310201 -0.513975
O26   O     O_R   0.597781 0.921347 0.348731 -0.678605
H19   H     H_    0.686400 0.934433 0.379277 0.328869
C60   C     C_2   0.935312 0.031261 0.810227 0.895216
O27   O     O_2   0.851257 0.981740 0.813231 -0.517191
O28   O     O_R   0.902186 0.079651 0.848909 -0.677320
H20   H     H_    0.816511 0.066785 0.880415 0.329121
C61   C     C_2   0.636113 0.357197 0.732629 0.794887
O29   O     O_2   0.623888 0.324415 0.689898 -0.556665
O30   O     O_R   0.546462 0.337556 0.781981 -0.654122
H21   H     H_    0.476113 0.296696 0.776822 0.311470
C62   C     C_2   0.863202 0.643060 0.232143 0.795896
O31   O     O_2   0.875142 0.675748 0.189334 -0.555711
O32   O     O_R   0.952682 0.662925 0.281390 -0.654773
H22   H     H_    0.022639 0.703852 0.276088 0.311800
C63   C     C_2   0.133545 0.142302 0.269195 0.776748
O33   O     O_2   0.139159 0.178844 0.309478 -0.526163
O34   O     O_R   0.029984 0.157659 0.221857 -0.677608
H23   H     H_    0.962136 0.197905 0.227074 0.310210
C64   C     C_2   0.375677 0.858807 0.767826 0.797011
O35   O     O_2   0.370512 0.820471 0.806730 -0.530884
O36   O     O_R   0.484302 0.846724 0.720707 -0.646130
H24   H     H_    0.555519 0.807065 0.725012 0.309486
N1    N     N_3   0.399299 0.554786 0.737331 -0.606300
H25   H     H_    0.315512 0.570168 0.770029 0.216460
H26   H     H_    0.392736 0.589391 0.706014 0.260470
N2    N     N_3   0.099847 0.444883 0.237093 -0.606527
H27   H     H_    0.183437 0.429710 0.269869 0.216274
H28   H     H_    0.106110 0.409938 0.206070 0.260156
N3    N     N_3   0.909074 0.935704 0.269386 -0.616597
H29   H     H_    0.821242 0.922805 0.236383 0.243943
H30   H     H_    0.905136 0.898065 0.297991 0.262666
N4    N     N_3   0.592288 0.063651 0.768581 -0.648340
H31   H     H_    0.679064 0.078199 0.735811 0.219593
H32   H     H_    0.596032 0.100278 0.798223 0.277139
C65   C     C_2   0.625239 0.617020 0.785552 0.722427
O37   O     O_2   0.677640 0.621864 0.834733 -0.553393
O38   O     O_R   0.602721 0.671577 0.753388 -0.662817
H33   H     H_    0.635063 0.711160 0.775462 0.320747
C66   C     C_2   0.873029 0.383337 0.285787 0.722178
O39   O     O_2   0.822140 0.378848 0.335188 -0.553433
O40   O     O_R   0.892656 0.328582 0.253691 -0.664072
H34   H     H_    0.858863 0.289259 0.275967 0.318145
C67   C     C_2   0.135815 0.881682 0.217018 0.727868
O41   O     O_2   0.175926 0.878770 0.166581 -0.553485
O42   O     O_R   0.132496 0.826496 0.249347 -0.673278
H35   H     H_    0.169304 0.788552 0.226430 0.313238
C68   C     C_2   0.364527 0.118198 0.717250 0.738186
O43   O     O_2   0.321066 0.121350 0.667137 -0.557077
O44   O     O_R   0.371626 0.173315 0.749646 -0.671038
H36   H     H_    0.334471 0.211439 0.727062 0.312464
N5    N     N_3   0.435867 0.458104 0.808059 -0.565659
H37   H     H_    0.337069 0.486552 0.825084 0.218517
H38   H     H_    0.451690 0.425081 0.840428 0.256124
N6    N     N_3   0.064233 0.542264 0.307172 -0.566043
H39   H     H_    0.163010 0.513903 0.324255 0.218291
H40   H     H_    0.048817 0.575522 0.339371 0.256301
N7    N     N_3   0.919956 0.032888 0.199580 -0.653748
H41   H     H_    0.893502 0.054776 0.238175 0.308917
H42   H     H_    0.919351 0.065726 0.166510 0.267950
N8    N     N_3   0.572683 0.964536 0.696860 -0.614296
H43   H     H_    0.620879 0.954158 0.737317 0.305319
H44   H     H_    0.668611 0.992532 0.675686 0.230036
N9    N     N_3   0.801346 0.459183 0.631000 -0.602678
H45   H     H_    0.775488 0.492581 0.599648 0.244534
H46   H     H_    0.770524 0.415475 0.612528 0.245120
N10   N     N_3   0.698256 0.540813 0.130842 -0.603902
H47   H     H_    0.724196 0.507383 0.099510 0.244162
H48   H     H_    0.729081 0.584501 0.112306 0.245022
N11   N     N_3   0.330542 0.043518 0.368112 -0.623855
H49   H     H_    0.312303 0.009820 0.400121 0.236012
H50   H     H_    0.305481 0.086786 0.387422 0.247368
N12   N     N_3   0.172615 0.955955 0.868274 -0.618589
H51   H     H_    0.190152 0.989766 0.900207 0.233532
H52   H     H_    0.198735 0.912829 0.887675 0.247212
C69   C     C_2   0.494750 0.457966 0.662148 0.859531
O45   O     O_2   0.445901 0.484498 0.618807 -0.549292
O46   O     O_R   0.372877 0.418012 0.690448 -0.611471
H53   H     H_    0.272379 0.402145 0.664848 0.348392
C70   C     C_2   0.004828 0.541965 0.161735 0.860542
O47   O     O_2   0.053950 0.514749 0.118750 -0.550038
O48   O     O_R   0.126226 0.582646 0.189309 -0.611380
H54   H     H_    0.226664 0.598127 0.163425 0.348145
C71   C     C_2   0.017930 0.037862 0.348468 0.805885
O49   O     O_2   0.966506 0.996054 0.380645 -0.567994
O50   O     O_R   0.919089 0.092751 0.346515 -0.630036
H55   H     H_    0.815662 0.092822 0.374596 0.343426
C72   C     C_2   0.484809 0.962223 0.848456 0.801719
O51   O     O_2   0.537785 0.004923 0.879359 -0.566991
O52   O     O_R   0.580259 0.906546 0.848663 -0.627453
H56   H     H_    0.683558 0.906998 0.876724 0.344766
N13   N     N_3   0.935212 0.395555 0.716674 -0.595796
H57   H     H_    0.981996 0.367086 0.749561 0.224532
H58   H     H_    0.935366 0.367314 0.680248 0.265216
N14   N     N_3   0.564269 0.604545 0.216565 -0.594550
H59   H     H_    0.517543 0.633081 0.249443 0.224545
H60   H     H_    0.563857 0.632677 0.180069 0.265528
N15   N     N_3   0.436518 0.110638 0.279490 -0.580862
H61   H     H_    0.474285 0.140074 0.245611 0.221919
H62   H     H_    0.444641 0.138803 0.315901 0.276758
N16   N     N_3   0.069788 0.887567 0.780306 -0.582792
H63   H     H_    0.032586 0.857959 0.746524 0.219378
H64   H     H_    0.065498 0.859165 0.816611 0.277718

loop_
_geom_bond_atom_site_label_1
_geom_bond_atom_site_label_2
_ccdc_geom_bond_type
O17   V3    S    
C31   H15   S    
N15   H61   S    
O1    C5    A    
C58   O23   D    
C51   C55   T    
O19   V1    S    
O13   V1    S    
N9    H45   S    
O3    C7    A    
O40   H34   S    
O1    V3    S    
C36   C40   S    
O15   V3    S    
C10   C30   S    
N12   H51   S    
C9    C29   S    
O34   H23   S    
N11   H50   S    
C15   N3    S    
C69   O45   D    
O7    C3    A    
C44   C72   S    
C59   O26   S    
N5    H37   S    
C13   C65   S    
O9    V1    S    
N7    H42   S    
C23   C47   T    
C14   C18   S    
C67   O42   S    
C66   O39   D    
O4    C8    A    
N16   H64   S    
C70   O48   S    
C9    H5    S    
O38   H33   S    
C10   C26   S    
C37   C61   S    
O2    V4    S    
O3    V1    S    
O24   H18   S    
C60   O28   S    
C57   O22   S    
C38   C42   S    
C1    O15   A    
C52   C56   T    
C2    O16   A    
N14   H59   S    
C72   O52   S    
C37   N13   S    
C34   C38   S    
C41   C69   S    
O26   H19   S    
C7    C53   S    
C33   C37   S    
O14   V2    S    
C68   O44   S    
C3    C22   S    
C5    C55   S    
O5    V1    S    
C12   H8    S    
C32   C36   S    
C30   H14   S    
O11   C7    A    
C64   O35   D    
O42   H35   S    
C58   O24   S    
C6    C56   S    
C39   C63   S    
N8    H44   S    
C40   C64   S    
C28   C44   S    
N13   H57   S    
O10   V2    S    
H3    C31   S    
C66   O40   S    
N10   H48   S    
C57   O21   D    
C35   C47   S    
C69   O46   S    
C40   N16   S    
C10   H6    S    
C10   C58   S    
O7    V3    S    
O50   H55   S    
O8    V4    S    
C43   N11   S    
N3    H29   S    
C22   C46   T    
C50   C54   T    
C25   C41   S    
C39   N15   S    
O18   V4    S    
N2    H27   S    
C15   C19   S    
C16   N4    S    
C65   O38   S    
C44   N12   S    
N5    H38   S    
O46   H53   S    
C18   C34   S    
O5    C1    A    
C11   C59   S    
N15   H62   S    
C20   H12   S    
N12   H52   S    
N11   H49   S    
C11   C31   S    
O8    C4    A    
C42   N10   S    
C11   H7    S    
O9    C5    A    
C42   C70   S    
C32   H16   S    
H4    C32   S    
N13   H58   S    
O11   V3    S    
C17   H9    S    
C63   O33   D    
C36   C48   S    
C27   C43   S    
C25   C49   S    
C17   N5    S    
C4    C21   S    
N2    H28   S    
O6    V2    S    
C38   N14   S    
C49   C53   T    
C65   O37   D    
H1    C29   S    
N8    H43   S    
C21   C45   T    
C16   C68   S    
C4    O14   A    
O36   H24   S    
C12   C60   S    
N10   H47   S    
C26   C50   S    
C17   C33   S    
C61   O29   D    
O16   V4    S    
C19   H11   S    
N3    H30   S    
C38   C62   S    
C3    O13   A    
C19   C35   S    
O28   H20   S    
C27   C51   S    
N16   H63   S    
C14   C66   S    
C26   C42   S    
N6    H40   S    
C18   N6    S    
C40   C44   S    
C8    C54   S    
O6    C2    A    
C13   C25   S    
O32   H22   S    
C12   C32   S    
H2    C30   S    
N4    H32   S    
O12   V4    S    
C15   C27   S    
C59   O25   D    
C15   C67   S    
C16   C28   S    
O22   H17   S    
C1    C24   S    
N6    H39   S    
O2    C6    A    
C62   O32   S    
C2    C23   S    
N1    H25   S    
O48   H54   S    
C12   C28   S    
C67   O41   D    
C18   H10   S    
C35   C39   S    
C24   C48   T    
O10   C6    A    
C70   O47   D    
C30   C34   S    
C9    C25   S    
C29   C33   S    
C41   N9    S    
O20   V2    S    
C29   H13   S    
C13   N1    S    
C20   C36   S    
C31   C35   S    
C13   C17   S    
C71   O49   D    
C34   C46   S    
C63   O34   S    
N7    H41   S    
C33   C45   S    
N4    H31   S    
C20   N8    S    
O52   H56   S    
N1    H26   S    
C16   C20   S    
O12   C8    A    
C72   O51   D    
C43   C71   S    
C60   O27   D    
O44   H36   S    
C64   O36   S    
C37   C41   S    
C11   C27   S    
C9    C57   S    
C14   C26   S    
C68   O43   D    
C62   O31   D    
C39   C43   S    
C28   C52   S    
N14   H60   S    
O4    V2    S    
O30   H21   S    
C14   N2    S    
C71   O50   S    
C61   O30   S    
N9    H46   S    
C19   N7    S    
