data_mof_unit_21399.cif
_audit_creation_date              2012-12-10T16:42:34-0500
_audit_creation_method            fapswitch 2.2
_symmetry_space_group_name_H-M    P1
_symmetry_Int_Tables_number       1
_space_group_crystal_system       triclinic
_cell_length_a                    7.443288
_cell_length_b                    8.723325
_cell_length_c                    11.136691
_cell_angle_alpha                 89.196699
_cell_angle_beta                  73.272508
_cell_angle_gamma                 101.702576
_cell_volume                      676.090551494

loop_
_atom_site_label
_atom_site_type_symbol
_atom_type_description
_atom_site_fract_x
_atom_site_fract_y
_atom_site_fract_z
_atom_type_partial_charge
C1    C     C_R   0.454011 0.200607 0.505823 0.877232
C2    C     C_R   0.545988 0.799393 0.494176 0.877232
C3    C     C_R   0.425628 0.496103 0.741115 0.877450
C4    C     C_R   0.574372 0.503897 0.258885 0.877451
C5    C     C_2   0.389072 0.503987 0.875077 -0.386831
C6    C     C_2   0.610928 0.496013 0.124923 -0.386831
C7    C     C_2   0.526108 0.502370 0.931249 0.396247
C8    C     C_2   0.473892 0.497631 0.068751 0.396247
C9    C     C_2   0.429291 0.035809 0.528529 0.019189
C10   C     C_2   0.570709 0.964191 0.471471 0.019189
Cu1   Cu    Cu3+1 0.688910 0.517800 0.485820 1.024739
Cu2   Cu    Cu3+1 0.311090 0.482200 0.514180 1.024739
H1    H     H_    0.755381 0.487920 0.071502 0.161840
H2    H     H_    0.244619 0.512080 0.928497 0.161839
H3    H     H_    0.917298 0.377034 0.598698 0.260604
H4    H     H_    0.082702 0.622966 0.401302 0.260603
N1    N     N_2   0.027170 0.455360 0.535550 -0.202862
N2    N     N_2   0.972830 0.544640 0.464450 -0.202863
O1    O     O_R   0.622710 0.286400 0.490790 -0.576766
O2    O     O_R   0.377290 0.713600 0.509210 -0.576765
O3    O     O_R   0.303660 0.256330 0.514730 -0.553944
O4    O     O_R   0.696340 0.743670 0.485270 -0.553944
O5    O     O_R   0.600900 0.509520 0.671740 -0.553202
O6    O     O_R   0.399100 0.490480 0.328260 -0.553202
O7    O     O_R   0.281840 0.479450 0.695690 -0.585819
O8    O     O_R   0.718160 0.520550 0.304310 -0.585819
O9    O     O_3   0.289958 0.510603 0.136762 -0.591182
C11   C     C_3   0.169675 0.359040 0.163676 -0.200871
H5    H     H_    0.160370 0.300294 0.077082 0.149962
H6    H     H_    0.022981 0.371186 0.216291 0.229540
H7    H     H_    0.217827 0.282735 0.223508 0.199818
O10   O     O_3   0.710042 0.489398 0.863238 -0.591181
C12   C     C_3   0.830325 0.640961 0.836325 -0.200871
H8    H     H_    0.977022 0.628815 0.783714 0.229539
H9    H     H_    0.839623 0.699710 0.922919 0.149961
H10   H     H_    0.782177 0.717264 0.776488 0.199822
Br1   Br    Br    0.201248 0.938030 0.661301 -0.545145
Br2   Br    Br    0.798752 0.061970 0.338699 -0.545145

loop_
_geom_bond_atom_site_label_1
_geom_bond_atom_site_label_2
_ccdc_geom_bond_type
Cu2   N1    S    
C2    O4    A    
C4    O8    A    
Cu1   Cu2   S    
Cu1   N2    S    
C1    O3    A    
C9    C10   D    
Cu2   O6    S    
Cu1   O4    S    
C3    O5    A    
Cu2   O7    S    
C10   Br2   S    
O10   C12   S    
Cu2   O2    S    
C11   H6    S    
C12   H8    S    
C7    C8    S    
C6    H1    S    
Cu1   O1    S    
C5    H2    S    
C9    Br1   S    
C11   H5    S    
C12   H9    S    
N1    N2    D    
C5    C7    D    
C4    O6    A    
C1    O1    A    
C4    C6    S    
C2    O2    A    
C2    C10   S    
C3    O7    A    
C12   H10   S    
C1    C9    S    
H4    N2    S    
Cu1   O5    S    
O9    C11   S    
H3    N1    S    
C8    O9    S    
C6    C8    D    
C7    O10   S    
Cu1   O8    S    
Cu2   O3    S    
C11   H7    S    
C3    C5    S    
