data_mof_unit_67519.cif
_audit_creation_date              2012-12-10T16:47:27-0500
_audit_creation_method            fapswitch 2.2
_symmetry_space_group_name_H-M    P1
_symmetry_Int_Tables_number       1
_space_group_crystal_system       triclinic
_cell_length_a                    10.598749
_cell_length_b                    8.853772
_cell_length_c                    7.548496
_cell_angle_alpha                 103.749411
_cell_angle_beta                  93.854004
_cell_angle_gamma                 94.46559
_cell_volume                      683.263366594

loop_
_atom_site_label
_atom_site_type_symbol
_atom_type_description
_atom_site_fract_x
_atom_site_fract_y
_atom_site_fract_z
_atom_type_partial_charge
C1    C     C_R   0.495291 0.200558 0.453372 0.812978
C2    C     C_R   0.501259 0.799016 0.546437 0.829007
C3    C     C_R   0.260149 0.499249 0.502203 0.825793
C4    C     C_R   0.739839 0.500490 0.497774 0.839696
C5    C     C_3   0.046608 0.496481 0.671059 -0.204363
C6    C     C_3   0.953412 0.502888 0.329064 -0.195663
C7    C     C_3   0.950450 0.371110 0.542443 0.089785
C8    C     C_3   0.049450 0.628312 0.457650 0.061995
C9    C     C_3   0.876173 0.500010 0.494534 -0.104175
C10   C     C_3   0.123821 0.499431 0.505523 -0.106594
C11   C     C_3   0.971165 0.625456 0.621048 0.006512
C12   C     C_3   0.028830 0.373926 0.379075 -0.005305
C13   C     C_2   0.494236 0.033383 0.426953 -0.265890
C14   C     C_2   0.494903 0.965010 0.571643 -0.271891
Cu1   Cu    Cu3+1 0.514140 0.517380 0.684380 0.988059
Cu2   Cu    Cu3+1 0.485860 0.482620 0.315620 0.999316
H1    H     H_    0.083010 0.493238 0.811010 0.174966
H2    H     H_    0.917068 0.505962 0.189054 0.176500
N1    N     N_2   0.464560 0.456420 0.038510 -0.054740
N2    N     N_2   0.535440 0.543580 0.961490 -0.080957
O1    O     O_R   0.509190 0.286130 0.619780 -0.580554
O2    O     O_R   0.490810 0.713870 0.380220 -0.582685
O3    O     O_R   0.485310 0.256770 0.308360 -0.560797
O4    O     O_R   0.514690 0.743230 0.691640 -0.567907
O5    O     O_R   0.328790 0.514640 0.655680 -0.618445
O6    O     O_R   0.671210 0.485360 0.344320 -0.600913
O7    O     O_R   0.304910 0.485280 0.344260 -0.594844
O8    O     O_R   0.695090 0.514720 0.655740 -0.594467
C15   C     C_3   0.892287 0.224666 0.589973 -0.735137
H3    H     H_    0.968708 0.151915 0.616438 0.258879
H4    H     H_    0.840551 0.257758 0.714391 0.256459
H5    H     H_    0.825066 0.156498 0.474396 0.237261
C16   C     C_3   0.107471 0.774848 0.410132 -0.675662
H6    H     H_    0.031165 0.848221 0.385076 0.267123
H7    H     H_    0.175478 0.842396 0.525058 0.234125
H8    H     H_    0.158219 0.741667 0.284830 0.269152
C17   C     C_2   0.935466 0.766375 0.754955 0.831437
O9    O     O_2   0.971461 0.789822 0.917263 -0.593402
O10   O     O_R   0.859637 0.868887 0.693234 -0.783493
H9    H     H_    0.839449 0.957696 0.796372 0.360810
C18   C     C_2   0.063743 0.233384 0.243673 0.859153
O11   O     O_2   0.125117 0.138783 0.296621 -0.595033
O12   O     O_R   0.027209 0.212591 0.057488 -0.777608
H10   H     H_    0.058791 0.115716 0.979168 0.355779
C19   C     C_3   0.338058 0.400945 0.955428 -0.315020
H11   H     H_    0.291489 0.326551 0.035507 0.172343
H12   H     H_    0.281016 0.501266 0.959940 0.171573
H13   H     H_    0.339094 0.323867 0.817570 0.199314
C20   C     C_3   0.660482 0.605164 0.046312 -0.264467
H14   H     H_    0.721523 0.508417 0.040728 0.167884
H15   H     H_    0.703168 0.684156 0.967971 0.193352
H16   H     H_    0.657636 0.679724 0.184988 0.193386
C21   C     C_2   0.491125 0.945544 0.232480 0.907174
O13   O     O_2   0.584429 0.956401 0.147921 -0.580910
O14   O     O_R   0.379908 0.855198 0.146016 -0.732031
H17   H     H_    0.389197 0.800109 0.014301 0.355113
C22   C     C_2   0.482608 0.048803 0.763546 0.921879
O15   O     O_2   0.575145 0.123386 0.859153 -0.533220
O16   O     O_R   0.366305 0.031690 0.836675 -0.788781
H18   H     H_    0.370276 0.085628 0.971306 0.348149

loop_
_geom_bond_atom_site_label_1
_geom_bond_atom_site_label_2
_ccdc_geom_bond_type
C2    O2    A    
C4    O6    A    
O14   H17   S    
N1    C19   S    
C11   C17   S    
C1    O1    A    
N2    C20   S    
C7    C15   S    
C15   H5    S    
C15   H3    S    
C9    C11   S    
C18   O11   D    
N1    N2    D    
Cu1   O1    S    
O12   H10   S    
C20   H16   S    
Cu2   O7    S    
C19   H12   S    
C16   H6    S    
Cu1   O8    S    
O16   H18   S    
C17   O10   S    
C3    C10   S    
C19   H11   S    
Cu2   O6    S    
C18   O12   S    
C22   O15   D    
C17   O9    D    
C10   C12   S    
C6    C9    S    
C8    C11   S    
C6    H2    S    
C6    C12   S    
C5    C10   S    
Cu1   O4    S    
C4    O8    A    
C5    C11   S    
Cu2   O3    S    
C13   C21   S    
C8    C16   S    
C21   O14   S    
C2    O4    A    
C7    C12   S    
C2    C14   S    
C22   O16   S    
C3    O7    A    
C5    H1    S    
C1    O3    A    
Cu1   Cu2   S    
C7    C9    S    
C3    O5    A    
C16   H8    S    
C1    C13   S    
C12   C18   S    
C15   H4    S    
C20   H14   S    
C19   H13   S    
O10   H9    S    
C5    C7    S    
C14   C22   S    
C6    C8    S    
Cu1   O5    S    
C16   H7    S    
C4    C9    S    
C13   C14   D    
C8    C10   S    
C21   O13   D    
Cu2   O2    S    
Cu1   N2    S    
C20   H15   S    
Cu2   N1    S    
