data_mof_unit_50175.cif
_audit_creation_date              2012-10-26T18:28:23-0400
_audit_creation_method            fapswitch 2.2
_symmetry_space_group_name_H-M    P1
_symmetry_Int_Tables_number       1
_space_group_crystal_system       triclinic
_cell_length_a                    27.727017
_cell_length_b                    10.83883
_cell_length_c                    9.752091
_cell_angle_alpha                 110.079528
_cell_angle_beta                  97.772423
_cell_angle_gamma                 90.647446
_cell_volume                      2722.09727294

loop_
_atom_site_label
_atom_site_type_symbol
_atom_type_description
_atom_site_fract_x
_atom_site_fract_y
_atom_site_fract_z
_atom_type_partial_charge
C1    C     C_R   0.498525 0.252924 0.442276 0.557133
C2    C     C_R   0.867734 0.382335 0.395127 0.011729
C3    C     C_R   0.354641 0.499187 0.508437 0.001038
C4    C     C_R   0.645330 0.498269 0.491087 0.029944
C5    C     C_R   0.970568 0.376905 0.424759 0.021764
C6    C     C_R   0.029279 0.611468 0.573707 0.022273
C7    C     C_R   0.977823 0.618450 0.544073 0.022856
C8    C     C_R   0.022161 0.370052 0.452562 0.022448
C9    C     C_R   0.948660 0.499034 0.478234 -0.023662
C10   C     C_R   0.051264 0.489596 0.519355 -0.023382
C11   C     C_R   0.940271 0.267044 0.331524 -0.096455
C12   C     C_R   0.504628 0.747432 0.557716 0.579573
C13   C     C_R   0.059251 0.720919 0.669564 -0.094417
C14   C     C_R   0.889584 0.267311 0.316839 0.048851
C15   C     C_R   0.109953 0.720633 0.686741 0.047504
C16   C     C_R   0.407433 0.499966 0.502133 0.542436
C17   C     C_R   0.592557 0.499404 0.497739 0.624941
C18   C     C_R   0.045171 0.247811 0.427107 0.218429
C19   C     C_R   0.955083 0.740707 0.566670 0.216383
C20   C     C_2   0.502236 0.110736 0.415956 0.240545
C21   C     C_2   0.510886 0.889918 0.583288 0.227185
C22   C     C_2   0.535100 0.070280 0.505761 0.083117
C23   C     C_R   0.102823 0.488200 0.534326 -0.077082
C24   C     C_2   0.534480 0.930698 0.491533 0.081635
C25   C     C_2   0.504760 0.509132 0.080201 -0.008165
C26   C     C_2   0.496023 0.488433 0.919085 -0.011622
C27   C     C_R   0.176365 0.374156 0.476471 0.410165
C28   C     C_R   0.823808 0.617348 0.517968 0.412931
C29   C     C_R   0.182152 0.606958 0.595026 0.419722
C30   C     C_R   0.817579 0.383858 0.406465 0.418956
C31   C     C_R   0.287895 0.523472 0.651602 -0.052408
C32   C     C_R   0.711963 0.464844 0.346590 -0.041838
C33   C     C_R   0.337737 0.525599 0.644736 -0.144053
C34   C     C_R   0.897108 0.501027 0.463449 -0.078653
C35   C     C_R   0.662143 0.464431 0.353883 -0.132252
C36   C     C_R   0.320683 0.470923 0.379217 -0.141887
C37   C     C_R   0.679339 0.531802 0.620782 -0.125098
C38   C     C_R   0.270745 0.468596 0.386394 -0.050381
C39   C     C_R   0.729254 0.532101 0.613171 -0.042887
C40   C     C_R   0.254226 0.494755 0.522611 0.237766
C41   C     C_R   0.745709 0.498846 0.476043 0.234083
C42   C     C_3   0.494120 0.972084 0.823780 0.021812
C43   C     C_3   0.483489 0.101775 0.936852 -0.350270
C44   C     C_3   0.424272 0.045839 0.289288 -0.018274
C45   C     C_R   0.125425 0.368595 0.480646 -0.028585
C46   C     C_3   0.393231 0.924191 0.187070 -0.350255
C47   C     C_2   0.122220 0.128935 0.442609 0.615305
C48   C     C_2   0.878369 0.857968 0.538640 0.620151
C49   C     C_2   0.861133 0.150290 0.206924 0.627228
C50   C     C_2   0.138134 0.835549 0.801451 0.619427
C51   C     C_3   0.025346 0.019986 0.305961 -0.019123
C52   C     C_3   0.978543 0.932237 0.242869 -0.333018
C53   C     C_3   0.974304 0.968731 0.686145 -0.022597
C54   C     C_3   0.020915 0.056388 0.753915 -0.333215
C55   C     C_2   0.565823 0.846882 0.388936 0.561290
C56   C     C_R   0.874698 0.621293 0.513506 -0.030414
C57   C     C_2   0.574697 0.157660 0.615617 0.576491
C58   C     C_R   0.097144 0.248517 0.441756 0.057280
C59   C     C_R   0.903124 0.740377 0.548439 0.053736
C60   C     C_R   0.132004 0.606927 0.606024 0.013368
Cu1   Cu    Cu3+1 0.508480 0.521810 0.644910 0.977761
Cu2   Cu    Cu3+1 0.491520 0.478190 0.355090 0.962444
H1    H     H_    0.332653 0.450056 0.272766 0.133102
H2    H     H_    0.362977 0.547761 0.746247 0.129479
H3    H     H_    0.724434 0.439290 0.240298 0.150863
H4    H     H_    0.275345 0.543573 0.757158 0.141087
H5    H     H_    0.955786 0.183333 0.259754 0.160043
H6    H     H_    0.043326 0.804047 0.741251 0.162866
H7    H     H_    0.532772 0.952430 0.854450 0.179248
H8    H     H_    0.469102 0.893682 0.829501 0.161051
H9    H     H_    0.444898 0.123673 0.912443 0.138943
H10   H     H_    0.489934 0.095559 0.049085 0.164996
H11   H     H_    0.507796 0.182748 0.933991 0.185833
H12   H     H_    0.667415 0.558341 0.727906 0.137813
H13   H     H_    0.418145 0.125652 0.242726 0.147593
H14   H     H_    0.411982 0.075249 0.399779 0.140759
H15   H     H_    0.398249 0.842314 0.230720 0.174400
H16   H     H_    0.354148 0.946229 0.179192 0.130025
H17   H     H_    0.404005 0.893393 0.075035 0.158775
H18   H     H_    0.149315 0.018926 0.561157 0.372407
H19   H     H_    0.847144 0.024718 0.643476 0.363467
H20   H     H_    0.849180 0.952926 0.128646 0.364588
H21   H     H_    0.149144 0.032950 0.891063 0.361459
H22   H     H_    0.050764 0.962024 0.353772 0.200930
H23   H     H_    0.467841 0.415987 0.847335 0.146621
H24   H     H_    0.039898 0.038858 0.213318 0.136926
H25   H     H_    0.956673 0.962230 0.157070 0.153977
H26   H     H_    0.987556 0.828680 0.189324 0.121068
H27   H     H_    0.956806 0.936606 0.331834 0.255173
H28   H     H_    0.958103 0.951029 0.776926 0.143130
H29   H     H_    0.949821 0.025963 0.634479 0.199259
H30   H     H_    0.044088 0.051421 0.668014 0.255988
H31   H     H_    0.011698 0.160062 0.805467 0.121062
H32   H     H_    0.041341 0.026621 0.842090 0.158313
H33   H     H_    0.614615 0.707359 0.351242 0.334732
H34   H     H_    0.533644 0.579419 0.151308 0.176904
H35   H     H_    0.627657 0.300816 0.662127 0.343069
H36   H     H_    0.547778 0.622801 0.933056 0.228240
H37   H     H_    0.451197 0.380257 0.067829 0.195551
H38   H     H_    0.244845 0.446581 0.286270 0.139830
H39   H     H_    0.755188 0.558186 0.713697 0.143532
H40   H     H_    0.636831 0.437968 0.252014 0.138975
N1    N     N_R   0.202912 0.491982 0.530436 -0.403620
N2    N     N_R   0.797020 0.499971 0.467784 -0.406791
N3    N     N_2   0.478780 0.445430 0.137360 -0.363922
N4    N     N_2   0.521220 0.554570 0.862640 -0.346674
O1    O     O_R   0.504520 0.332330 0.577400 -0.493080
O2    O     O_2   0.801180 0.728994 0.575258 -0.424373
O3    O     O_2   0.789787 0.270298 0.362919 -0.425819
O4    O     O_2   0.209730 0.721126 0.641992 -0.447398
O5    O     O_3   0.485532 0.981456 0.681745 -0.592491
O6    O     O_3   0.473769 0.015781 0.297186 -0.567963
O7    O     O_2   0.134489 0.053784 0.328878 -0.481761
O8    O     O_R   0.132054 0.103284 0.574182 -0.665290
O9    O     O_2   0.870376 0.874144 0.419833 -0.468180
O10   O     O_R   0.863680 0.948832 0.664517 -0.665459
O11   O     O_2   0.830022 0.163418 0.112139 -0.451644
O12   O     O_R   0.495480 0.667670 0.422600 -0.483434
O13   O     O_R   0.870595 0.024960 0.209934 -0.670273
O14   O     O_2   0.169656 0.818854 0.892951 -0.452580
O15   O     O_R   0.127838 0.962840 0.807192 -0.705774
O16   O     O_3   0.016871 0.137234 0.420346 -0.575512
O17   O     O_3   0.983916 0.850774 0.574774 -0.577839
O18   O     O_2   0.569015 0.863424 0.272493 -0.498383
O19   O     O_R   0.593797 0.754903 0.428772 -0.699300
O20   O     O_2   0.586230 0.143276 0.734507 -0.503068
O21   O     O_R   0.600750 0.250410 0.579742 -0.681339
O22   O     O_R   0.490210 0.295500 0.332650 -0.495985
O23   O     O_R   0.509790 0.704500 0.667350 -0.507289
O24   O     O_R   0.437420 0.518430 0.622370 -0.507827
O25   O     O_R   0.562580 0.481570 0.377630 -0.486214
O26   O     O_R   0.423110 0.481600 0.377610 -0.501183
O27   O     O_R   0.576890 0.518400 0.622390 -0.473283
O28   O     O_2   0.199325 0.263846 0.415933 -0.438038

loop_
_geom_bond_atom_site_label_1
_geom_bond_atom_site_label_2
_ccdc_geom_bond_type
C43   H11   S    
C31   H4    S    
C38   C40   A    
C37   H12   S    
C34   C56   A    
C43   H10   S    
C23   C45   A    
C17   O25   A    
C15   C60   A    
C1    O22   A    
H35   O21   S    
C35   H40   S    
C26   N4    D    
C22   C57   S    
C28   C56   A    
C25   N3    D    
C39   C41   A    
Cu2   N3    S    
C53   C54   S    
C24   C55   S    
C5    C9    A    
C19   O17   S    
C50   O14   D    
C5    C11   A    
C26   H23   S    
C46   H17   S    
C11   C14   A    
C14   C49   S    
C3    C33   A    
C42   H8    S    
C31   C40   A    
C29   N1    A    
C47   O7    D    
C15   C50   S    
C44   H14   S    
H33   O19   S    
C54   H31   S    
C47   C58   S    
C20   O6    S    
C18   C58   A    
C49   O11   D    
C55   O19   S    
C44   C46   S    
C53   H29   S    
C32   C41   A    
C31   C33   A    
C36   H1    S    
C16   O24   A    
Cu1   O23   S    
C48   O10   S    
C2    C34   A    
C4    C35   A    
C52   H27   S    
C50   O15   S    
H20   O13   S    
C2    C14   A    
C51   H24   S    
C21   O5    S    
C11   H5    S    
C39   H39   S    
C23   C60   A    
H37   N3    S    
C45   C58   A    
C54   H32   S    
C12   O23   A    
C30   O3    S    
Cu1   O27   S    
C51   C52   S    
C32   C35   A    
Cu2   O26   S    
C29   O4    S    
C52   H26   S    
C38   H38   S    
C53   O17   S    
C57   O20   D    
C46   H16   S    
C19   C59   A    
C25   C26   S    
C12   C21   S    
C42   H7    S    
C8    C18   A    
C44   H13   S    
C42   O5    S    
C54   H30   S    
C5    C8    A    
C28   N2    A    
C29   C60   A    
H21   O15   S    
Cu1   N4    S    
Cu1   O24   S    
C18   O16   S    
C48   O9    D    
C12   O12   A    
C4    C17   S    
C44   O6    S    
H18   O8    S    
C7    C19   A    
C13   C15   A    
C17   O27   A    
C9    C34   A    
C22   C24   S    
C42   C43   S    
C48   C59   S    
C7    C9    A    
C55   O18   D    
C1    C20   S    
C43   H9    S    
Cu1   O1    S    
C27   O28   S    
Cu2   O25   S    
C52   H25   S    
C20   C22   D    
C47   O8    S    
C57   O21   S    
C46   H15   S    
C56   C59   A    
C6    C7    A    
C10   C23   A    
H36   N4    S    
C41   N2    S    
C2    C30   A    
C36   C38   A    
C37   C39   A    
C6    C13   A    
Cu2   O22   S    
C27   C45   A    
C49   O13   S    
C3    C36   A    
C28   O2    S    
C33   H2    S    
H19   O10   S    
C27   N1    A    
Cu1   Cu2   S    
C16   O26   A    
Cu2   O12   S    
C6    C10   A    
C1    O1    A    
C4    C37   A    
C25   H34   S    
C8    C10   A    
C21   C24   D    
C30   N2    A    
C53   H28   S    
C51   O16   S    
C51   H22   S    
C3    C16   S    
C32   H3    S    
C40   N1    S    
C13   H6    S    
