data_mof_unit_19724.cif
_audit_creation_date              2013-03-05T15:42:03-0500
_audit_creation_method            fapswitch 2.2
_symmetry_space_group_name_H-M    P1
_symmetry_Int_Tables_number       1
_space_group_crystal_system       triclinic
_cell_length_a                    27.7763
_cell_length_b                    8.650618
_cell_length_c                    7.502238
_cell_angle_alpha                 101.653844
_cell_angle_beta                  95.504507
_cell_angle_gamma                 92.746973
_cell_volume                      1753.15964294

loop_
_atom_site_label
_atom_site_type_symbol
_atom_site_description
_atom_site_fract_x
_atom_site_fract_y
_atom_site_fract_z
_atom_type_partial_charge
O1    O     O_R   0.503500 0.286120 0.619780 -0.566650
O2    O     O_R   0.496500 0.713880 0.380220 -0.566657
O3    O     O_R   0.494410 0.256780 0.308360 -0.516959
O4    O     O_R   0.505590 0.743220 0.691640 -0.516963
C1    C     C_R   0.496032 0.201004 0.456202 0.843961
C2    C     C_R   0.503969 0.798996 0.543798 0.843953
O5    O     O_R   0.434810 0.514700 0.655690 -0.578183
O6    O     O_R   0.565190 0.485300 0.344310 -0.578231
O7    O     O_R   0.425720 0.485350 0.344280 -0.574591
O8    O     O_R   0.574280 0.514650 0.655720 -0.574613
C3    C     C_R   0.407643 0.500505 0.500521 0.848263
C4    C     C_R   0.592357 0.499517 0.499482 0.848302
Cu1   Cu    Cu3+1 0.505380 0.517380 0.684380 1.167029
Cu2   Cu    Cu3+1 0.494620 0.482620 0.315620 1.167032
C5    C     C_R   0.174765 0.362220 0.428964 0.643583
C6    C     C_R   0.825252 0.638826 0.571063 0.644763
O9    O     O_2   0.196457 0.237259 0.340934 -0.426633
O10   O     O_2   0.803547 0.763920 0.658721 -0.426050
N1    N     N_R   0.202387 0.498621 0.505958 -0.462573
N2    N     N_R   0.797639 0.502324 0.494433 -0.462679
C7    C     C_R   0.182429 0.630643 0.591765 0.659462
C8    C     C_R   0.817602 0.370203 0.408922 0.658460
C9    C     C_R   0.275694 0.544653 0.352135 0.365891
C10   C     C_R   0.724341 0.456329 0.648222 0.366248
C11   C     C_R   0.326297 0.542463 0.354486 -0.195297
C12   C     C_R   0.673732 0.458073 0.645715 -0.195475
C13   C     C_R   0.332563 0.464867 0.648226 -0.137847
C14   C     C_R   0.667431 0.535292 0.351757 -0.138026
C15   C     C_R   0.282464 0.463004 0.646374 -0.090380
C16   C     C_R   0.717540 0.537481 0.353729 -0.090892
C17   C     C_R   0.253811 0.501958 0.500053 0.213914
C18   C     C_R   0.746213 0.498993 0.500298 0.214099
C19   C     C_R   0.102379 0.493926 0.513365 -0.082804
C20   C     C_R   0.897644 0.507017 0.486932 -0.082847
C21   C     C_R   0.124041 0.354497 0.436325 -0.140476
C22   C     C_R   0.875981 0.646508 0.563772 -0.140545
C23   C     C_R   0.094230 0.214220 0.366600 0.353759
C24   C     C_R   0.905797 0.786798 0.633384 0.353911
C25   C     C_R   0.132156 0.631390 0.595533 -0.018538
C26   C     C_R   0.867870 0.369488 0.405009 -0.018417
C27   C     C_R   0.354801 0.502624 0.501331 -0.080370
C28   C     C_R   0.645205 0.497580 0.498711 -0.080084
H1    H     H_    0.353780 0.434394 0.763305 0.208456
H2    H     H_    0.646196 0.565456 0.236523 0.208398
H3    H     H_    0.265618 0.431084 0.759421 0.198585
H4    H     H_    0.734372 0.569222 0.240556 0.198541
C29   C     C_R   0.969949 0.362782 0.413798 0.064143
C30   C     C_R   0.030074 0.638138 0.586508 0.064116
C31   C     C_R   0.978736 0.642523 0.575150 -0.003142
C32   C     C_R   0.021288 0.358428 0.425039 -0.003145
C33   C     C_R   0.948965 0.504215 0.492017 0.084768
C34   C     C_R   0.051058 0.496724 0.508242 0.084741
C35   C     C_R   0.938549 0.230728 0.323456 -0.162471
C36   C     C_R   0.061470 0.770141 0.677030 -0.162442
C37   C     C_R   0.888680 0.234057 0.320481 -0.015066
C38   C     C_R   0.111342 0.766789 0.680135 -0.015230
O11   O     O_2   0.788818 0.239301 0.330211 -0.444752
O12   O     O_2   0.211220 0.761435 0.670837 -0.444653
C39   C     C_R   0.043993 0.218184 0.360731 -0.260945
C40   C     C_R   0.956035 0.782807 0.639295 -0.260918
H5    H     H_    0.656384 0.427353 0.758334 0.216107
H6    H     H_    0.343675 0.573221 0.241956 0.216484
H7    H     H_    0.866404 0.128722 0.251632 0.220209
H8    H     H_    0.133618 0.872084 0.749124 0.220156
H9    H     H_    0.951044 0.122281 0.251028 0.163832
H10   H     H_    0.048966 0.878539 0.749551 0.163930
H11   H     H_    0.023792 0.106030 0.310857 0.171322
H12   H     H_    0.976243 0.894969 0.689041 0.171280
C41   C     C_2   0.486039 0.035983 0.444115 0.093435
C42   C     C_2   0.513963 0.964018 0.555885 0.093408
N3    N     N_2   0.486510 0.456430 0.038510 0.010183
N4    N     N_2   0.513490 0.543570 0.961490 0.010161
N5    N     N_R   0.473131 0.305806 0.937030 0.261132
O13   O     O_R   0.501809 0.192893 0.947899 -0.258183
O14   O     O_R   0.427909 0.268871 0.874121 -0.340431
N6    N     N_R   0.526868 0.694194 0.062969 0.261123
O15   O     O_R   0.498189 0.807106 0.052099 -0.258167
O16   O     O_R   0.572090 0.731133 0.125876 -0.340471
N7    N     N_R   0.113903 0.063876 0.309378 0.165887
O17   O     O_R   0.096188 0.970896 0.155947 -0.351368
O18   O     O_R   0.141779 0.006802 0.426229 -0.294255
N8    N     N_R   0.886132 0.937162 0.690560 0.165795
O19   O     O_R   0.903841 0.030142 0.843999 -0.351285
O20   O     O_R   0.858272 0.994245 0.573672 -0.294623
N9    N     N_R   0.752179 0.409256 0.798859 0.143578
O21   O     O_R   0.798984 0.437472 0.829112 -0.325870
O22   O     O_R   0.730481 0.338727 0.909817 -0.307461
N10   N     N_R   0.247888 0.592096 0.201626 0.144139
O23   O     O_R   0.269714 0.659894 0.088697 -0.309041
O24   O     O_R   0.200947 0.567758 0.174029 -0.324724
N11   N     N_R   0.440626 0.963934 0.344109 0.129000
O25   O     O_R   0.423623 0.010206 0.197234 -0.239789
O26   O     O_R   0.411886 0.877967 0.418261 -0.351847
N12   N     N_R   0.559376 0.036066 0.655897 0.129004
O27   O     O_R   0.576379 0.989786 0.802765 -0.239808
O28   O     O_R   0.588114 0.122051 0.581759 -0.351674

loop_
_geom_bond_atom_site_label_1
_geom_bond_atom_site_label_2
_geom_bond_distance
_ccdc_geom_bond_type
C13   C15   1.389599 A    
N5    O13   1.299835 A    
N4    N6    1.383487 S    
N1    C17   1.432377 S    
C8    O11   1.350066 S    
N9    O21   1.300704 A    
C19   C34   1.423838 A    
C5    N1    1.366544 A    
C23   N7    1.435946 S    
C20   C33   1.423850 A    
C19   C25   1.410647 A    
C31   C40   1.413332 A    
O1    C1    1.289448 A    
C32   C39   1.413356 A    
N6    O16   1.299807 A    
C21   C23   1.412786 A    
C12   H5    1.083145 S    
C10   C12   1.404903 A    
C41   C42   1.350809 D    
C2    C42   1.424093 S    
Cu2   N3    2.034470 S    
C14   C28   1.399858 A    
O4    Cu1   1.943097 S    
C4    C28   1.469359 S    
C39   H11   1.075647 S    
C31   C33   1.417403 A    
C37   H7    1.083724 S    
C32   C34   1.417429 A    
C38   H8    1.083723 S    
C35   H9    1.075755 S    
C10   N9    1.445456 S    
C6    N2    1.366560 A    
C29   C35   1.415383 A    
C35   C37   1.384991 A    
Cu1   Cu2   2.707413 S    
C24   N8    1.435932 S    
N5    O14   1.299809 A    
O2    C2    1.289449 A    
C5    C21   1.414211 A    
O5    C3    1.305559 A    
C29   C32   1.423161 A    
N9    O22   1.301775 A    
C36   C38   1.385015 A    
N6    O15   1.299835 A    
O4    C2    1.293730 A    
C11   C27   1.404092 A    
N11   O25   1.301499 A    
N7    O18   1.301192 A    
C29   C33   1.422989 A    
C1    C41   1.424088 S    
C14   H2    1.082315 S    
C15   H3    1.082972 S    
C9    C17   1.418040 A    
C30   C36   1.415382 A    
O7    Cu2   1.946945 S    
C10   C18   1.417821 A    
N11   O26   1.302000 A    
C13   C27   1.399772 A    
C25   C38   1.394264 A    
C7    C25   1.399689 A    
O5    Cu1   1.949829 S    
O6    C4    1.305571 A    
C26   C37   1.394250 A    
C8    C26   1.399663 A    
N12   O28   1.302001 A    
O7    C3    1.303989 A    
C23   C39   1.394163 A    
O3    Cu2   1.943097 S    
O8    C4    1.303987 A    
C24   C40   1.394171 A    
C30   C31   1.423130 A    
N10   O24   1.300590 A    
N8    O20   1.301179 A    
C9    N10   1.445766 S    
C20   C26   1.410632 A    
O1    Cu1   1.957859 S    
C12   C28   1.404111 A    
N3    N5    1.383486 S    
N2    C18   1.432386 S    
C5    O9    1.348364 S    
O6    Cu2   1.949829 S    
N1    C7    1.363151 A    
C16   H4    1.083000 S    
N2    C8    1.363118 A    
O3    C1    1.293728 A    
O8    Cu1   1.946948 S    
C36   H10   1.075779 S    
Cu1   N4    2.034469 S    
C42   N12   1.447991 S    
C22   C24   1.412826 A    
C7    O12   1.350058 S    
C15   C17   1.399831 A    
C6    C22   1.414261 A    
C16   C18   1.399860 A    
C14   C16   1.389678 A    
C19   C21   1.416158 A    
C3    C27   1.469347 S    
C20   C22   1.416190 A    
C11   H6    1.083114 S    
C9    C11   1.405060 A    
N12   O27   1.301500 A    
O2    Cu2   1.957860 S    
N7    O17   1.301309 A    
C13   H1    1.082316 S    
C30   C34   1.422964 A    
N3    N4    1.291750 D    
N10   O23   1.301725 A    
C40   H12   1.075679 S    
C6    O10   1.348355 S    
N8    O19   1.301311 A    
C41   N11   1.447986 S    
