data_mof_unit_64731.cif
_audit_creation_date              2012-10-26T21:01:57-0400
_audit_creation_method            fapswitch 2.2
_symmetry_space_group_name_H-M    P1
_symmetry_Int_Tables_number       1
_space_group_crystal_system       triclinic
_cell_length_a                    9.724685
_cell_length_b                    10.933889
_cell_length_c                    13.889138
_cell_angle_alpha                 90.150163
_cell_angle_beta                  84.587626
_cell_angle_gamma                 89.825421
_cell_volume                      1470.21566886

loop_
_atom_site_label
_atom_site_type_symbol
_atom_type_description
_atom_site_fract_x
_atom_site_fract_y
_atom_site_fract_z
_atom_type_partial_charge
C1    C     C_R   0.499336 0.734439 0.503217 0.542855
C2    C     C_R   0.500685 0.265487 0.495628 0.537309
C3    C     C_R   0.522627 0.499976 0.317098 0.552060
C4    C     C_1   0.536280 0.499876 0.213888 0.022863
C5    C     C_2   0.553060 0.499703 0.023259 -0.046748
C6    C     C_2   0.438109 0.500225 0.977334 0.251111
C7    C     C_1   0.451211 0.500121 0.872996 -0.067647
C8    C     C_1   0.545535 0.499789 0.127022 0.031325
C9    C     C_1   0.463092 0.500035 0.786111 -0.035504
C10   C     C_2   0.603816 0.066735 0.514430 -0.094386
C11   C     C_2   0.502489 0.133399 0.480608 0.229736
C12   C     C_2   0.610386 0.933331 0.505945 -0.121178
C13   C     C_2   0.495311 0.865981 0.513631 -0.071379
C14   C     C_2   0.073284 0.592117 0.528834 0.035308
C15   C     C_2   0.918151 0.582494 0.542782 0.111253
C16   C     C_R   0.477342 0.499950 0.682901 0.547212
Cu1   Cu    Cu3+1 0.361370 0.499980 0.499980 0.982439
Cu2   Cu    Cu3+1 0.638630 0.500020 0.500020 0.984348
H1    H     H_    0.686437 0.111048 0.548756 0.108078
H2    H     H_    0.863085 0.650195 0.588963 0.073822
H3    H     H_    0.711703 0.890421 0.497046 0.138323
H4    H     H_    0.394418 0.907595 0.530464 0.166212
H5    H     H_    0.119392 0.678355 0.546751 0.118817
H6    H     H_    0.238463 0.501174 0.982741 0.330804
H7    H     H_    0.843432 0.387647 0.400850 0.372794
H8    H     H_    0.654383 0.499208 0.982859 0.080909
H9    H     H_    0.347046 0.142923 0.401734 0.343404
H10   H     H_    0.109670 0.415751 0.500973 0.271151
N1    N     N_2   0.152970 0.501340 0.501040 -0.314364
N2    N     N_2   0.846830 0.501370 0.501060 -0.075054
O1    O     O_R   0.382960 0.678040 0.499980 -0.501377
O2    O     O_3   0.913819 0.440169 0.426837 -0.624762
O3    O     O_3   0.406411 0.078846 0.426789 -0.712918
O4    O     O_R   0.617100 0.678080 0.500020 -0.505610
O5    O     O_R   0.366380 0.499950 0.637830 -0.496448
O6    O     O_R   0.600520 0.499990 0.637860 -0.503300
O7    O     O_R   0.382900 0.321920 0.499980 -0.510589
O8    O     O_R   0.617040 0.321960 0.500020 -0.527629
O9    O     O_R   0.399480 0.500010 0.362140 -0.461598
O10   O     O_R   0.633620 0.500050 0.362170 -0.496231
O11   O     O_3   0.309704 0.500855 0.029394 -0.665411

loop_
_geom_bond_atom_site_label_1
_geom_bond_atom_site_label_2
_ccdc_geom_bond_type
C14   H5    S    
C1    O4    A    
C5    C8    S    
C6    C7    S    
Cu2   N2    S    
Cu1   N1    S    
C2    O8    A    
C11   O3    S    
C10   H1    S    
C4    C8    T    
H7    O2    S    
Cu1   Cu2   S    
Cu2   O8    S    
C3    O9    A    
Cu1   O7    S    
H9    O3    S    
N2    O2    S    
H6    O11   S    
Cu2   O4    S    
C2    O7    A    
C5    C6    D    
C10   C12   S    
C2    C11   S    
H10   N1    S    
C9    C16   S    
C13   H4    S    
C16   O5    A    
C15   H2    S    
Cu1   O1    S    
C1    C13   S    
C10   C11   D    
C14   N1    D    
C5    H8    S    
C1    O1    A    
C12   C13   D    
C15   N2    D    
Cu1   O9    S    
C7    C9    T    
Cu2   O10   S    
C14   C15   S    
Cu1   O5    S    
C3    O10   A    
Cu2   O6    S    
C12   H3    S    
C16   O6    A    
C3    C4    S    
C6    O11   S    
