data_mof_unit_31836.cif
_audit_creation_date              2013-03-05T15:45:16-0500
_audit_creation_method            fapswitch 2.2
_symmetry_space_group_name_H-M    P1
_symmetry_Int_Tables_number       1
_space_group_crystal_system       triclinic
_cell_length_a                    16.973103
_cell_length_b                    7.020002
_cell_length_c                    16.760437
_cell_angle_alpha                 90.005045
_cell_angle_beta                  100.814936
_cell_angle_gamma                 89.99613
_cell_volume                      1961.55601136

loop_
_atom_site_label
_atom_site_type_symbol
_atom_site_description
_atom_site_fract_x
_atom_site_fract_y
_atom_site_fract_z
_atom_type_partial_charge
O1    O     O_R   0.579510 0.506290 0.439030 -0.589031
O2    O     O_R   0.420490 0.006290 0.560970 -0.589148
O3    O     O_R   0.412540 0.170090 0.405290 -0.562772
O4    O     O_R   0.587460 0.670090 0.594710 -0.562758
C1    C     C_R   0.386434 0.346184 0.380502 1.006996
C2    C     C_R   0.613565 0.846181 0.619497 1.007051
O5    O     O_R   0.578390 0.176230 0.429330 -0.577397
O6    O     O_R   0.421610 0.676230 0.570670 -0.577422
O7    O     O_R   0.587530 0.011250 0.585190 -0.587248
O8    O     O_R   0.412470 0.511250 0.414810 -0.587288
C3    C     C_R   0.603478 0.345497 0.412240 1.044557
C4    C     C_R   0.396523 0.845511 0.587756 1.044447
O9    O     O_3   0.502800 0.340940 0.551110 -0.283878
O10   O     O_3   0.497200 0.840940 0.448890 -0.283858
V1    V     V_3+5 0.499480 0.064020 0.490520 1.253905
V2    V     V_3+5 0.500520 0.564020 0.509480 1.253887
C5    C     C_R   0.168427 0.908542 0.863446 -0.291905
C6    C     C_R   0.831527 0.408566 0.136496 -0.292374
C7    C     C_R   0.330999 0.856913 0.635526 -0.326826
C8    C     C_R   0.668990 0.356827 0.364443 -0.326933
C9    C     C_R   0.192755 0.936620 0.644702 0.758107
C10   C     C_R   0.807414 0.434941 0.355338 0.758638
C11   C     C_R   0.252170 0.906795 0.597417 0.144344
C12   C     C_R   0.747933 0.405675 0.402595 0.144093
C13   C     C_R   0.348168 0.832063 0.720322 -0.270192
C14   C     C_R   0.651731 0.332775 0.279600 -0.270160
C15   C     C_R   0.288198 0.857595 0.767547 0.111786
C16   C     C_R   0.711719 0.358068 0.232379 0.111508
C17   C     C_R   0.209391 0.909892 0.729869 -0.237397
C18   C     C_R   0.790652 0.409201 0.270114 -0.236940
C19   C     C_R   0.149353 0.933193 0.778388 0.317968
C20   C     C_R   0.850686 0.432305 0.221582 0.317894
C21   C     C_R   0.246697 0.855174 0.899259 -0.068435
C22   C     C_R   0.753143 0.356255 0.100618 -0.067784
C23   C     C_R   0.305950 0.831085 0.852108 -0.074102
C24   C     C_R   0.693868 0.332405 0.147764 -0.074094
H1    H     H_    0.261883 0.830604 0.964149 0.162844
H2    H     H_    0.737879 0.332353 0.035685 0.162781
H3    H     H_    0.365817 0.790131 0.881900 0.138969
H4    H     H_    0.633906 0.292307 0.117927 0.138931
H5    H     H_    0.408737 0.795151 0.749656 0.137740
H6    H     H_    0.591080 0.296666 0.250232 0.137681
C25   C     C_3   0.744671 0.769170 0.837544 0.230555
C26   C     C_3   0.255273 0.268881 0.162506 0.230671
H7    H     H_    0.772217 0.624398 0.843815 0.071343
H8    H     H_    0.227676 0.124164 0.156359 0.071411
C27   C     C_3   0.668925 0.756405 0.768067 -0.566782
C28   C     C_3   0.331038 0.256223 0.231957 -0.566561
H9    H     H_    0.614996 0.816126 0.787827 0.221756
H10   H     H_    0.384955 0.315843 0.212147 0.221726
H11   H     H_    0.655190 0.604159 0.753008 0.201686
H12   H     H_    0.344771 0.104003 0.247067 0.201710
H13   H     H_    0.870724 0.695284 0.752511 0.078885
H14   H     H_    0.129181 0.195778 0.247568 0.079309
C29   C     C_3   0.835796 0.828827 0.737255 0.466402
C30   C     C_3   0.164179 0.329240 0.262765 0.466439
C31   C     C_3   0.768770 0.104750 0.790299 -0.276252
C32   C     C_3   0.231330 0.604732 0.209596 -0.276380
C33   C     C_3   0.809264 0.909783 0.814607 -0.429484
C34   C     C_3   0.190745 0.409813 0.185377 -0.429539
H15   H     H_    0.812820 0.206195 0.772516 0.242739
H16   H     H_    0.187322 0.706417 0.227306 0.242502
H17   H     H_    0.747894 0.172244 0.842440 0.195737
H18   H     H_    0.252262 0.671935 0.157432 0.195879
C35   C     C_3   0.683812 0.865665 0.691803 -0.337984
C36   C     C_3   0.316189 0.365701 0.308190 -0.337967
C37   C     C_3   0.762168 0.787645 0.668684 1.243298
C38   C     C_3   0.237803 0.287979 0.331331 1.243394
C39   C     C_3   0.697741 0.079690 0.718146 -0.342390
C40   C     C_3   0.302327 0.579698 0.281790 -0.342742
H19   H     H_    0.642443 0.138840 0.735414 0.184020
H20   H     H_    0.357652 0.638704 0.264539 0.183957
H21   H     H_    0.710155 0.165968 0.666473 0.274685
H22   H     H_    0.289903 0.666102 0.333437 0.274585
O11   O     O_R   0.087500 0.266000 0.085220 -0.618813
O12   O     O_R   0.912500 0.766000 0.914780 -0.618909
O13   O     O_R   0.921600 0.589950 0.070670 -0.548608
O14   O     O_R   0.078400 0.089950 0.929330 -0.547863
C41   C     C_R   0.894460 0.421272 0.085491 1.006793
C42   C     C_R   0.105511 0.921256 0.914474 1.008258
O15   O     O_R   0.087460 0.596020 0.094710 -0.582430
O16   O     O_R   0.912540 0.096020 0.905290 -0.582097
O17   O     O_R   0.079520 0.760970 0.939020 -0.599596
O18   O     O_R   0.920480 0.260970 0.060980 -0.599225
C43   C     C_R   0.117627 0.426674 0.116352 1.055578
C44   C     C_R   0.882383 0.926666 0.883634 1.056248
O19   O     O_3   0.997180 0.425140 0.948910 -0.274299
O20   O     O_3   0.002820 0.925140 0.051090 -0.274586
V3    V     V_3+5 0.000520 0.702080 0.009480 1.269215
V4    V     V_3+5 0.999480 0.202080 0.990520 1.269725
N1    N     N_R   0.067589 0.964393 0.741225 0.271546
O21   O     O_R   0.033199 0.126485 0.750314 -0.272884
O22   O     O_R   0.027016 0.827568 0.700174 -0.219164
N2    N     N_R   0.932500 0.462746 0.258689 0.270738
O23   O     O_R   0.973175 0.324940 0.298927 -0.221231
O24   O     O_R   0.966329 0.626792 0.251817 -0.269159
F1    F     F_    0.755307 0.592503 0.656915 -0.700683
F2    F     F_    0.244587 0.092844 0.343120 -0.700482
F3    F     F_    0.885403 0.959077 0.709289 -0.553446
F4    F     F_    0.114636 0.459782 0.290683 -0.553596
F5    F     F_    0.773585 0.870301 0.596503 -0.588390
F6    F     F_    0.226433 0.370820 0.403497 -0.588384
F7    F     F_    0.118483 0.990898 0.606412 -0.544135
F8    F     F_    0.881893 0.487511 0.393724 -0.543482
N3    N     N_R   0.231016 0.921685 0.510370 0.288543
O25   O     O_R   0.260659 0.802277 0.464555 -0.317069
O26   O     O_R   0.174174 0.036354 0.476702 -0.147069
N4    N     N_R   0.769119 0.420218 0.489648 0.288614
O27   O     O_R   0.739334 0.300938 0.535391 -0.317385
O28   O     O_R   0.826010 0.534678 0.523388 -0.147498
N5    N     N_R   0.722295 0.818451 0.915507 0.251758
O29   O     O_R   0.743729 0.707606 0.977959 -0.427051
O30   O     O_R   0.677938 0.966465 0.922545 -0.418455
N6    N     N_R   0.277630 0.317671 0.084488 0.251790
O31   O     O_R   0.256259 0.206380 0.022169 -0.427085
O32   O     O_R   0.321955 0.465627 0.077290 -0.418531

loop_
_geom_bond_atom_site_label_1
_geom_bond_atom_site_label_2
_geom_bond_distance
_ccdc_geom_bond_type
C32   H16   1.112966 S    
C36   C38   1.553072 S    
C29   C33   1.557405 S    
C15   C17   1.416229 A    
H13   C29   1.113009 S    
C20   N2    1.427136 S    
N5    O29   1.300262 A    
O1    C3    1.307527 A    
O2    C4    1.307519 A    
C2    O7    1.331680 A    
N6    O31   1.300240 A    
O16   C44   1.318110 A    
C27   H9    1.112200 S    
O14   V4    1.995236 S    
O5    C3    1.311957 A    
N3    O26   1.301107 A    
O13   V3    1.995378 S    
C5    C21   1.402224 A    
C38   F6    1.387757 S    
C28   H10   1.112193 S    
C41   O18   1.303115 A    
O14   C42   1.311116 A    
C31   C33   1.551295 S    
C32   C34   1.551361 S    
C11   N3    1.439377 S    
C10   F8    1.357569 S    
N4    O27   1.300048 A    
C39   H19   1.113088 S    
O11   V4    2.015600 S    
O11   C43   1.306069 A    
C2    C35   1.538414 S    
C8    C12   1.414323 A    
C6    C41   1.490784 S    
C35   C37   1.553095 S    
C40   H22   1.109092 S    
C39   H21   1.109004 S    
C12   N4    1.439316 S    
C25   C33   1.575598 S    
O12   V3    2.015616 S    
O15   V3    1.995351 S    
O5    V1    1.995470 S    
C26   N6    1.468835 S    
O6    V2    1.995328 S    
O18   V4    1.989361 S    
C42   O17   1.303157 A    
C26   H8    1.115365 S    
C31   H17   1.108998 S    
O13   C41   1.311148 A    
C32   H18   1.108986 S    
O17   V3    1.989444 S    
H14   C30   1.113012 S    
C3    C8    1.489561 S    
C24   H4    1.083577 S    
O4    C2    1.352003 A    
C13   H5    1.084463 S    
N1    O21   1.300747 A    
C7    C11   1.414225 A    
C32   C40   1.549165 S    
C27   H11   1.112756 S    
C15   C23   1.404956 A    
C30   C38   1.557944 S    
C9    C17   1.414672 A    
C5    C42   1.490803 S    
C21   H1    1.083436 S    
C30   C34   1.557329 S    
C9    F7    1.357430 S    
O4    V2    1.995359 S    
C23   H3    1.083550 S    
N1    O22   1.300915 A    
C25   H7    1.115360 S    
C29   C37   1.557935 S    
O6    C4    1.311919 A    
N5    O30   1.301385 A    
O1    V2    1.987433 S    
N2    O24   1.301565 A    
O2    V1    1.987509 S    
C6    C22   1.402241 A    
O20   V4    2.189095 S    
C19   N1    1.427402 S    
O19   V3    2.188944 S    
C5    C19   1.412073 A    
C10   C12   1.410289 A    
O19   V4    1.711679 S    
C6    C20   1.411783 A    
C30   F4    1.383235 S    
O12   C44   1.306062 A    
O3    V1    1.995378 S    
C37   F5    1.387784 S    
C10   C18   1.414694 A    
C22   H2    1.083442 S    
C1    C36   1.538470 S    
O3    C1    1.352047 A    
N6    O32   1.301363 A    
C34   C43   1.534202 S    
C31   H15   1.112970 S    
C13   C15   1.413144 A    
N3    O25   1.300087 A    
C14   C16   1.413182 A    
O16   V4    1.995334 S    
C31   C39   1.549090 S    
C9    C11   1.410241 A    
O7    V1    1.999624 S    
C33   C44   1.534250 S    
C1    O8    1.331637 A    
C17   C19   1.427387 A    
O8    V2    1.999610 S    
C18   C20   1.427342 A    
C36   C40   1.571285 S    
C8    C14   1.407140 A    
C26   C34   1.575635 S    
C35   C39   1.571297 S    
C4    C7    1.489438 S    
C16   C18   1.416270 A    
C21   C23   1.400990 A    
N4    O28   1.301134 A    
C22   C24   1.401077 A    
C14   H6    1.084493 S    
N2    O23   1.301002 A    
C7    C13   1.407073 A    
C38   F2    1.385735 S    
C37   F1    1.385797 S    
C25   N5    1.468846 S    
C28   H12   1.112745 S    
O20   V3    1.711572 S    
C16   C24   1.405055 A    
O9    V2    1.711962 S    
C29   F3    1.383097 S    
O10   V1    1.711854 S    
C40   H20   1.113074 S    
C28   C36   1.551558 S    
C25   C27   1.566856 S    
C27   C35   1.551576 S    
O15   C43   1.318068 A    
C26   C28   1.566791 S    
