data_mof_unit_38719.cif
_audit_creation_date              2013-03-05T16:02:24-0500
_audit_creation_method            fapswitch 2.2
_symmetry_space_group_name_H-M    P1
_symmetry_Int_Tables_number       1
_space_group_crystal_system       triclinic
_cell_length_a                    15.010091
_cell_length_b                    14.009672
_cell_length_c                    10.624147
_cell_angle_alpha                 89.93182
_cell_angle_beta                  90.222156
_cell_angle_gamma                 89.898583
_cell_volume                      2234.09228031

loop_
_atom_site_label
_atom_site_type_symbol
_atom_site_description
_atom_site_fract_x
_atom_site_fract_y
_atom_site_fract_z
_atom_type_partial_charge
O1    O     O_R   0.367860 0.580280 0.500020 -0.572340
O2    O     O_R   0.367860 0.419720 0.500020 -0.567444
C1    C     C_R   0.326445 0.500193 0.501865 0.983250
O3    O     O_R   0.500000 0.580270 0.314790 -0.626594
O4    O     O_R   0.500000 0.419730 0.314790 -0.643537
C2    C     C_R   0.500082 0.499803 0.257452 0.852265
Zn1   Zn    Zn3+2 0.500020 0.607200 0.499990 0.984427
Zn2   Zn    Zn3+2 0.500020 0.392800 0.499990 0.988039
O5    O     O_R   0.632160 0.580270 0.499960 -0.623246
O6    O     O_R   0.632160 0.419730 0.499960 -0.628489
O7    O     O_R   0.500030 0.580270 0.685200 -0.646633
O8    O     O_R   0.500030 0.419730 0.685200 -0.625732
C3    C     C_R   0.673061 0.499942 0.500372 0.878040
C4    C     C_R   0.500330 0.499741 0.742498 0.859918
C5    C     C_3   0.417399 0.553144 0.071308 -0.338875
C6    C     C_3   0.497669 0.394619 0.071573 -0.378229
H1    H     H_    0.416822 0.627949 0.106631 0.208275
H2    H     H_    0.556777 0.353961 0.106004 0.183335
H3    H     H_    0.355686 0.517460 0.104790 0.215225
H4    H     H_    0.436938 0.357391 0.106104 0.201650
C7    C     C_3   0.418009 0.554158 0.927086 -0.400626
C8    C     C_3   0.497231 0.394617 0.928689 -0.374282
H5    H     H_    0.355720 0.521052 0.890622 0.216327
H6    H     H_    0.435995 0.358024 0.894397 0.221663
H7    H     H_    0.419363 0.629457 0.893434 0.175871
H8    H     H_    0.555789 0.353260 0.894453 0.183737
H9    H     H_    0.589619 0.622744 0.107114 0.179861
H10   H     H_    0.646088 0.509687 0.108923 0.172016
H11   H     H_    0.591043 0.621874 0.892660 0.182272
H12   H     H_    0.646264 0.508098 0.893848 0.181300
C9    C     C_3   0.586108 0.547867 0.072702 -0.406203
C10   C     C_3   0.500345 0.498949 0.121132 0.128572
C11   C     C_3   0.500510 0.498925 0.878731 0.153264
C12   C     C_3   0.586507 0.547289 0.928138 -0.398594
C13   C     C_R   0.813695 0.571514 0.441411 -0.244434
C14   C     C_R   0.768021 0.500300 0.504927 -0.085676
C15   C     C_R   0.812381 0.431712 0.576409 -0.174028
C16   C     C_R   0.904853 0.433953 0.586107 -0.053162
C17   C     C_R   0.952042 0.504110 0.518229 0.074677
C18   C     C_R   0.905563 0.573370 0.446325 0.161468
C19   C     C_R   0.950443 0.368333 0.662832 0.215390
C20   C     C_R   0.043653 0.369710 0.668077 0.233197
C21   C     C_R   0.092137 0.434850 0.591492 -0.158489
C22   C     C_R   0.045198 0.504727 0.520440 -0.053529
C23   C     C_R   0.090843 0.575122 0.449843 0.036986
C24   C     C_R   0.043041 0.644054 0.380764 -0.111944
C25   C     C_R   0.951132 0.643185 0.379370 -0.221281
C26   C     C_R   0.185734 0.432291 0.582340 0.277851
C27   C     C_R   0.230155 0.501587 0.509478 -0.323890
C28   C     C_R   0.183337 0.574308 0.446480 0.242427
H13   H     H_    0.777565 0.624343 0.386353 0.153484
H14   H     H_    0.774021 0.378061 0.625776 0.193915
H15   H     H_    0.076065 0.698339 0.325531 0.201347
H16   H     H_    0.915665 0.696464 0.324486 0.159060
C29   C     C_R   0.533359 0.797759 0.398514 0.016883
C30   C     C_R   0.532776 0.202301 0.398175 0.004419
N1    N     N_R   0.500070 0.750030 0.500050 -0.108023
N2    N     N_R   0.500070 0.249970 0.500050 -0.119116
C31   C     C_R   0.466276 0.798454 0.600555 -0.012467
C32   C     C_R   0.466722 0.201519 0.600848 0.012717
C33   C     C_R   0.465671 0.898985 0.602367 0.066265
C34   C     C_R   0.465903 0.100999 0.602528 0.055622
C35   C     C_R   0.499643 0.949420 0.498150 0.028715
C36   C     C_R   0.499732 0.050592 0.498240 0.019599
C37   C     C_R   0.533033 0.898628 0.394014 -0.159777
C38   C     C_R   0.533435 0.101456 0.394380 -0.152118
C39   C     C_R   0.431630 0.949939 0.705415 -0.190610
C40   C     C_R   0.431940 0.050058 0.705629 -0.147497
C41   C     C_R   0.566929 0.050683 0.289863 0.369511
C42   C     C_R   0.564359 0.949666 0.288132 0.355618
H17   H     H_    0.559943 0.756829 0.320961 0.159325
H18   H     H_    0.558519 0.243238 0.320039 0.165086
H19   H     H_    0.439834 0.758660 0.679362 0.124822
H20   H     H_    0.440583 0.241282 0.679833 0.163335
H21   H     H_    0.404600 0.912412 0.785811 0.144089
H22   H     H_    0.405502 0.087656 0.786386 0.162565
N3    N     N_R   0.087050 0.310640 0.760044 0.258673
O9    O     O_R   0.084250 0.218150 0.750031 -0.273724
O10   O     O_R   0.117483 0.348841 0.863117 -0.326443
N4    N     N_R   0.236226 0.358161 0.642922 0.243517
O11   O     O_R   0.288495 0.378503 0.737065 -0.416903
O12   O     O_R   0.238701 0.273206 0.593680 -0.338284
N5    N     N_R   0.229753 0.644827 0.373755 0.212050
O13   O     O_R   0.236037 0.732091 0.414581 -0.375926
O14   O     O_R   0.264334 0.622100 0.265876 -0.430926
O15   O     O_3   0.595977 0.099525 0.184553 -0.612818
C43   C     C_3   0.689255 0.110516 0.192802 0.079733
H23   H     H_    0.723356 0.039861 0.190874 0.193136
H24   H     H_    0.708563 0.149214 0.280365 0.135637
C44   C     C_3   0.721172 0.168541 0.080620 -0.704601
H25   H     H_    0.689533 0.240258 0.081182 0.235136
H26   H     H_    0.794629 0.177230 0.085427 0.240549
H27   H     H_    0.703539 0.131497 0.991581 0.265978
O16   O     O_3   0.597524 0.901600 0.184731 -0.611683
C45   C     C_3   0.526998 0.885022 0.099198 0.132588
H28   H     H_    0.492602 0.952761 0.072600 0.172577
H29   H     H_    0.477602 0.834724 0.140274 0.138032
C46   C     C_3   0.564393 0.840430 0.980053 -0.820835
H30   H     H_    0.605885 0.777394 0.004263 0.253556
H31   H     H_    0.509134 0.817246 0.917532 0.191610
H32   H     H_    0.606162 0.893185 0.929276 0.269239
N6    N     N_R   0.902289 0.302976 0.741084 0.223551
O17   O     O_R   0.858739 0.334262 0.838346 -0.397357
O18   O     O_R   0.896645 0.213436 0.709912 -0.336879

loop_
_geom_bond_atom_site_label_1
_geom_bond_atom_site_label_2
_geom_bond_distance
_ccdc_geom_bond_type
C18   C25   1.391034 A    
C2    C10   1.448377 S    
C43   H23   1.113807 S    
C35   C37   1.409429 A    
C19   C20   1.400155 A    
C45   H28   1.115115 S    
C4    C11   1.447391 S    
C1    C27   1.448001 S    
C45   C46   1.521108 S    
C5    C10   1.548334 S    
N3    O9    1.300978 A    
C5    H3    1.112784 S    
C14   C15   1.391226 A    
C42   O16   1.383062 S    
C16   C17   1.411574 A    
Zn2   O6    2.019653 S    
O7    C4    1.281295 A    
N1    C31   1.364701 A    
C38   C41   1.413026 A    
C7    C11   1.548756 S    
N2    C32   1.364459 A    
C37   C42   1.414613 A    
C19   N6    1.434284 S    
C32   C34   1.408421 A    
C33   C35   1.410306 A    
O5    C3    1.280981 A    
C34   C36   1.410349 A    
Zn2   N2    2.001001 S    
C9    C10   1.548866 S    
C30   H18   1.081422 S    
C21   C26   1.409043 A    
C31   H19   1.082398 S    
C6    H4    1.114188 S    
N6    O17   1.300954 A    
O3    Zn1   2.003878 S    
C29   C37   1.413895 A    
C28   N5    1.436390 S    
N3    O10   1.301017 A    
C31   C33   1.408572 A    
H12   C12   1.113545 S    
H9    C9    1.112563 S    
C39   C40   1.402656 A    
C3    C14   1.426012 S    
O3    C2    1.282007 A    
C17   C18   1.415452 A    
C15   H14   1.083740 S    
O15   C43   1.411225 S    
C23   C24   1.406353 A    
H11   C12   1.112680 S    
O1    C1    1.283824 A    
C13   C14   1.387495 A    
C36   C38   1.408887 A    
Zn1   O7    2.003100 S    
C21   C22   1.419937 A    
C15   C16   1.391840 A    
C33   C39   1.405045 A    
C44   H26   1.110483 S    
N5    O13   1.301150 A    
Zn2   O8    2.003981 S    
C11   C12   1.549043 S    
C9    C12   1.535935 S    
O16   C45   1.412187 S    
C29   N1    1.365320 A    
N6    O18   1.300612 A    
C16   C19   1.403398 A    
C25   H16   1.084299 S    
N4    O12   1.301190 A    
C26   C27   1.410949 A    
N5    O14   1.299736 A    
O8    C4    1.276193 A    
C46   H30   1.109137 S    
C46   H31   1.109892 S    
C43   H24   1.114905 S    
C13   H13   1.085875 S    
C8    H6    1.113517 S    
C40   H22   1.083517 S    
C20   C21   1.424659 A    
C22   C23   1.417459 A    
C44   H27   1.110837 S    
C5    H1    1.113618 S    
C8    C11   1.555058 S    
C7    H7    1.113701 S    
C24   C25   1.379656 A    
C6    C8    1.518012 S    
O1    Zn1   2.019924 S    
H10   C9    1.113493 S    
O2    Zn2   2.018612 S    
N4    O11   1.300967 A    
O6    C3    1.281463 A    
O4    Zn2   2.002996 S    
C45   H29   1.113710 S    
C17   C22   1.398431 A    
C6    C10   1.554683 S    
C46   H32   1.110698 S    
C34   C40   1.404558 A    
C26   N4    1.434938 S    
C7    H5    1.112884 S    
C13   C18   1.380028 A    
C44   H25   1.110588 S    
O4    C2    1.275894 A    
C23   C28   1.388967 A    
C30   C38   1.413448 A    
C24   H15   1.082112 S    
C32   H20   1.082281 S    
C30   N2    1.364968 A    
O2    C1    1.286668 A    
C41   C42   1.415951 A    
C35   C36   1.417395 A    
Zn1   O5    2.018341 S    
C5    C7    1.532350 S    
C39   H21   1.083033 S    
C20   N3    1.433538 S    
C6    H2    1.113822 S    
C27   C28   1.404265 A    
C8    H8    1.114342 S    
C43   C44   1.521288 S    
Zn1   N1    2.001004 S    
C29   H17   1.081555 S    
C41   O15   1.383158 S    
