data_mof_unit_61011.cif
_audit_creation_date              2012-12-10T18:53:17-0500
_audit_creation_method            fapswitch 2.2
_symmetry_space_group_name_H-M    P1
_symmetry_Int_Tables_number       1
_space_group_crystal_system       triclinic
_cell_length_a                    28.562577
_cell_length_b                    26.616072
_cell_length_c                    18.183615
_cell_angle_alpha                 90.002526
_cell_angle_beta                  90.002304
_cell_angle_gamma                 89.999417
_cell_volume                      13823.613339

loop_
_atom_site_label
_atom_site_type_symbol
_atom_type_description
_atom_site_fract_x
_atom_site_fract_y
_atom_site_fract_z
_atom_type_partial_charge
C1    C     C_R   0.068646 0.436488 0.499993 0.862754
C2    C     C_R   0.931354 0.563512 0.499992 0.862751
C3    C     C_R   0.931354 0.436488 0.500005 0.863009
C4    C     C_R   0.068645 0.563514 0.500009 0.863007
C5    C     C_R   0.568646 0.936488 0.500007 0.862752
C6    C     C_R   0.431354 0.063513 0.500007 0.862755
C7    C     C_R   0.431355 0.936486 0.499991 0.863009
C8    C     C_R   0.568646 0.063512 0.499994 0.863009
C9    C     C_R   0.255317 0.709225 0.547782 -0.154288
C10   C     C_R   0.788316 0.247723 0.452279 -0.153441
C11   C     C_R   0.744704 0.290758 0.547825 -0.154282
C12   C     C_R   0.211655 0.752302 0.452345 -0.153441
C13   C     C_R   0.744702 0.709247 0.452166 -0.153749
C14   C     C_R   0.211672 0.247716 0.547687 -0.152786
C15   C     C_R   0.255315 0.290773 0.452213 -0.153751
C16   C     C_R   0.788322 0.752277 0.547710 -0.152788
C17   C     C_R   0.711684 0.252276 0.547712 -0.153440
C18   C     C_R   0.244680 0.790778 0.452224 -0.154287
C19   C     C_R   0.288343 0.747701 0.547660 -0.153442
C20   C     C_R   0.755296 0.209242 0.452167 -0.154283
C21   C     C_R   0.288334 0.252291 0.452327 -0.152786
C22   C     C_R   0.755305 0.790761 0.547822 -0.153749
C23   C     C_R   0.711685 0.747732 0.452278 -0.152786
C24   C     C_R   0.244691 0.209234 0.547801 -0.153752
C25   C     C_R   0.783289 0.288741 0.500133 0.127532
C26   C     C_R   0.216705 0.711265 0.500148 0.127500
C27   C     C_R   0.216714 0.288745 0.499868 0.127275
C28   C     C_R   0.783290 0.711260 0.499858 0.127292
C29   C     C_R   0.283293 0.788737 0.499857 0.127500
C30   C     C_R   0.716711 0.211258 0.499859 0.127532
C31   C     C_R   0.716717 0.788748 0.500131 0.127290
C32   C     C_R   0.283291 0.211261 0.500144 0.127276
C33   C     C_R   0.000000 0.499999 0.078360 0.144219
C34   C     C_R   0.000000 0.500000 0.921644 0.144212
C35   C     C_R   0.500000 0.999999 0.078355 0.144220
C36   C     C_R   0.500000 1.000000 0.921640 0.144226
C37   C     C_R   0.999869 0.455431 0.722209 0.498858
C38   C     C_R   0.000067 0.544570 0.277790 0.498864
C39   C     C_R   0.000132 0.544569 0.722215 0.498841
C40   C     C_R   0.999932 0.455430 0.277786 0.498847
C41   C     C_R   0.499933 0.955430 0.722209 0.498864
C42   C     C_R   0.500132 0.044568 0.277790 0.498859
C43   C     C_R   0.500068 0.044570 0.722215 0.498846
C44   C     C_R   0.499868 0.955431 0.277785 0.498842
C45   C     C_R   0.999836 0.455024 0.799384 -0.251644
C46   C     C_R   0.000106 0.544977 0.200616 -0.251648
C47   C     C_R   0.000164 0.544976 0.799389 -0.251648
C48   C     C_R   0.999894 0.455022 0.200611 -0.251650
C49   C     C_R   0.499894 0.955022 0.799384 -0.251648
C50   C     C_R   0.500165 0.044976 0.200616 -0.251645
C51   C     C_R   0.500106 0.044978 0.799389 -0.251652
C52   C     C_R   0.499835 0.955023 0.200611 -0.251648
C53   C     C_R   0.131207 0.613561 0.433090 0.270741
C54   C     C_R   0.868610 0.386826 0.567115 0.270809
C55   C     C_R   0.868783 0.386447 0.433080 0.270735
C56   C     C_R   0.131393 0.613179 0.567123 0.270796
C57   C     C_R   0.868778 0.613544 0.566912 0.270683
C58   C     C_R   0.131391 0.386821 0.432883 0.270742
C59   C     C_R   0.131220 0.386455 0.566918 0.270688
C60   C     C_R   0.868611 0.613178 0.432877 0.270753
C61   C     C_R   0.631391 0.113171 0.432885 0.270811
C62   C     C_R   0.368791 0.886441 0.566911 0.270743
C63   C     C_R   0.368607 0.886820 0.432878 0.270793
C64   C     C_R   0.631216 0.113555 0.566917 0.270728
C65   C     C_R   0.368609 0.113176 0.567119 0.270744
C66   C     C_R   0.631225 0.886463 0.433084 0.270684
C67   C     C_R   0.631390 0.886821 0.567120 0.270750
C68   C     C_R   0.368784 0.113552 0.433086 0.270684
C69   C     C_R   0.165266 0.651045 0.434001 -0.180518
C70   C     C_R   0.834528 0.349362 0.566468 -0.176232
C71   C     C_R   0.834719 0.348968 0.433987 -0.180524
C72   C     C_R   0.165477 0.650641 0.566479 -0.176227
C73   C     C_R   0.834713 0.651022 0.566006 -0.180262
C74   C     C_R   0.165476 0.349360 0.433532 -0.175921
C75   C     C_R   0.165286 0.348977 0.566014 -0.180257
C76   C     C_R   0.834529 0.650641 0.433524 -0.175920
C77   C     C_R   0.665474 0.150634 0.433530 -0.176227
C78   C     C_R   0.334732 0.848958 0.566002 -0.180518
C79   C     C_R   0.334523 0.849358 0.433524 -0.176225
C80   C     C_R   0.665280 0.151033 0.566007 -0.180526
C81   C     C_R   0.334526 0.150640 0.566474 -0.175917
C82   C     C_R   0.665293 0.848987 0.433988 -0.180262
C83   C     C_R   0.665475 0.849360 0.566470 -0.175920
C84   C     C_R   0.334720 0.151032 0.433995 -0.180258
C85   C     C_R   0.181525 0.670845 0.500298 -0.011668
C86   C     C_R   0.818469 0.329164 0.500284 -0.011634
C87   C     C_R   0.818467 0.670833 0.499709 -0.012082
C88   C     C_R   0.181535 0.329168 0.499717 -0.012100
C89   C     C_R   0.681532 0.170835 0.499711 -0.011638
C90   C     C_R   0.318474 0.829157 0.499706 -0.011670
C91   C     C_R   0.318469 0.170837 0.500292 -0.012101
C92   C     C_R   0.681539 0.829173 0.500283 -0.012085
C93   C     C_R   0.026141 0.535679 0.961431 -0.147034
C94   C     C_R   0.973863 0.464318 0.038576 -0.147025
C95   C     C_R   0.973859 0.464321 0.961423 -0.147033
C96   C     C_R   0.026138 0.535681 0.038584 -0.147024
C97   C     C_R   0.526139 0.035682 0.961424 -0.147026
C98   C     C_R   0.473857 0.964319 0.038569 -0.147035
C99   C     C_R   0.473861 0.964317 0.961415 -0.147024
C100  C     C_R   0.526142 0.035680 0.038577 -0.147033
C101  C     C_R   0.000000 0.500000 0.839199 0.003757
C102  C     C_R   0.000000 0.499999 0.160803 0.003713
C103  C     C_R   0.500000 0.000000 0.839197 0.003712
C104  C     C_R   0.500000 0.999999 0.160801 0.003755
C105  C     C_R   0.110583 0.596891 0.500066 -0.184834
C106  C     C_R   0.889415 0.403113 0.500058 -0.184839
C107  C     C_R   0.889413 0.596885 0.499936 -0.185949
C108  C     C_R   0.110586 0.403114 0.499940 -0.185951
C109  C     C_R   0.610585 0.096887 0.499941 -0.184834
C110  C     C_R   0.389417 0.903109 0.499935 -0.184834
C111  C     C_R   0.389415 0.096888 0.500062 -0.185945
C112  C     C_R   0.610588 0.903116 0.500062 -0.185951
Cu1   Cu    Cu3+1 1.000000 0.500000 0.573360 1.109326
Cu2   Cu    Cu3+1 0.000000 0.500000 0.426640 1.109322
Cu3   Cu    Cu3+1 0.500000 0.000000 0.573360 1.109323
Cu4   Cu    Cu3+1 0.500000 0.000000 0.426640 1.109327
H1    H     H_    0.000387 0.419361 0.828022 0.176863
H2    H     H_    0.999510 0.580638 0.171975 0.176903
H3    H     H_    0.999614 0.580639 0.828031 0.176863
H4    H     H_    0.000490 0.419360 0.171966 0.176903
H5    H     H_    0.500490 0.919361 0.828025 0.176903
H6    H     H_    0.499615 0.080638 0.171977 0.176863
H7    H     H_    0.499510 0.080639 0.828034 0.176903
H8    H     H_    0.500385 0.919361 0.171968 0.176863
H9    H     H_    0.180146 0.663880 0.382502 0.177523
H10   H     H_    0.820408 0.336039 0.618207 0.175136
H11   H     H_    0.819831 0.336139 0.382486 0.177505
H12   H     H_    0.179606 0.663960 0.618216 0.175153
H13   H     H_    0.819821 0.663845 0.617506 0.178041
H14   H     H_    0.179598 0.336033 0.381794 0.175700
H15   H     H_    0.180176 0.336153 0.617515 0.178051
H16   H     H_    0.820411 0.663970 0.381783 0.175688
H17   H     H_    0.679594 0.163956 0.381791 0.175135
H18   H     H_    0.319851 0.836125 0.617501 0.177524
H19   H     H_    0.320394 0.836037 0.381787 0.175155
H20   H     H_    0.680166 0.163864 0.617507 0.177505
H21   H     H_    0.320404 0.163964 0.618213 0.175697
H22   H     H_    0.680186 0.836168 0.382486 0.178042
H23   H     H_    0.679593 0.836029 0.618209 0.175690
H24   H     H_    0.319833 0.163861 0.382495 0.178050
H25   H     H_    0.260306 0.677550 0.584332 0.150436
H26   H     H_    0.818161 0.245124 0.415717 0.151865
H27   H     H_    0.739730 0.322418 0.584415 0.150416
H28   H     H_    0.181789 0.754918 0.415829 0.151884
H29   H     H_    0.739725 0.677588 0.415576 0.150682
H30   H     H_    0.181815 0.245110 0.584221 0.152239
H31   H     H_    0.260300 0.322444 0.415650 0.150692
H32   H     H_    0.818168 0.754872 0.584272 0.152228
H33   H     H_    0.681840 0.254875 0.584275 0.151864
H34   H     H_    0.239691 0.822453 0.415674 0.150437
H35   H     H_    0.318209 0.745085 0.584176 0.151885
H36   H     H_    0.760270 0.177582 0.415577 0.150416
H37   H     H_    0.318191 0.254897 0.415793 0.152236
H38   H     H_    0.760283 0.822422 0.584412 0.150682
H39   H     H_    0.681839 0.745136 0.415716 0.152230
H40   H     H_    0.239707 0.177564 0.584363 0.150691
H41   H     H_    0.047332 0.563201 0.932905 0.156151
H42   H     H_    0.952680 0.436792 0.067105 0.156127
H43   H     H_    0.952669 0.436799 0.932890 0.156152
H44   H     H_    0.047320 0.563207 0.067120 0.156129
H45   H     H_    0.547322 0.063210 0.932894 0.156126
H46   H     H_    0.452666 0.936797 0.067096 0.156150
H47   H     H_    0.452678 0.936790 0.932880 0.156128
H48   H     H_    0.547334 0.063202 0.067110 0.156150
N1    N     N_R   1.000000 0.500000 0.683620 -0.224839
N2    N     N_R   0.000000 0.500000 0.316380 -0.224849
N3    N     N_R   0.500000 1.000000 0.683620 -0.224848
N4    N     N_R   0.500000 0.000000 0.316380 -0.224839
O1    O     O_R   0.049900 0.450090 0.561980 -0.531756
O2    O     O_R   0.950100 0.549910 0.438020 -0.531666
O3    O     O_R   0.950100 0.549910 0.561980 -0.531757
O4    O     O_R   0.049900 0.450090 0.438020 -0.531664
O5    O     O_R   0.950100 0.450090 0.438020 -0.531817
O6    O     O_R   0.049900 0.549910 0.561980 -0.531718
O7    O     O_R   0.049900 0.549910 0.438020 -0.531816
O8    O     O_R   0.950100 0.450090 0.561980 -0.531719
O9    O     O_R   0.549900 0.950090 0.561980 -0.531665
O10   O     O_R   0.450100 0.049910 0.438020 -0.531757
O11   O     O_R   0.450100 0.049910 0.561980 -0.531663
O12   O     O_R   0.549900 0.950090 0.438020 -0.531755
O13   O     O_R   0.450100 0.950090 0.438020 -0.531718
O14   O     O_R   0.549900 0.049910 0.561980 -0.531817
O15   O     O_R   0.549900 0.049910 0.438020 -0.531716
O16   O     O_R   0.450100 0.950090 0.561980 -0.531814
Br1   Br    Br    0.999910 0.390753 0.675643 -0.385933
Br2   Br    Br    0.999904 0.609247 0.324357 -0.385893
Br3   Br    Br    0.000092 0.609246 0.675655 -0.385925
Br4   Br    Br    0.000090 0.390753 0.324346 -0.385881
Br5   Br    Br    0.500093 0.890752 0.675643 -0.385888
Br6   Br    Br    0.500092 0.109247 0.324356 -0.385930
Br7   Br    Br    0.499908 0.109247 0.675655 -0.385885
Br8   Br    Br    0.499910 0.890754 0.324345 -0.385924
Br9   Br    Br    0.120480 0.583544 0.338321 -0.415980
Br10  Br    Br    0.879350 0.417113 0.661709 -0.416958
Br11  Br    Br    0.879512 0.416461 0.338314 -0.415969
Br12  Br    Br    0.120656 0.582894 0.661711 -0.416953
Br13  Br    Br    0.879506 0.583519 0.661673 -0.409756
Br14  Br    Br    0.120645 0.417098 0.338289 -0.410803
Br15  Br    Br    0.120492 0.416482 0.661680 -0.409760
Br16  Br    Br    0.879354 0.582897 0.338284 -0.410801
Br17  Br    Br    0.620651 0.082883 0.338296 -0.416958
Br18  Br    Br    0.379518 0.916462 0.661678 -0.415974
Br19  Br    Br    0.379347 0.917100 0.338289 -0.416961
Br20  Br    Br    0.620486 0.083544 0.661684 -0.415976
Br21  Br    Br    0.379352 0.082892 0.661706 -0.410802
Br22  Br    Br    0.620496 0.916491 0.338327 -0.409754
Br23  Br    Br    0.620643 0.917095 0.661717 -0.410805
Br24  Br    Br    0.379512 0.083530 0.338323 -0.409764

loop_
_geom_bond_atom_site_label_1
_geom_bond_atom_site_label_2
_ccdc_geom_bond_type
C16   C28   A    
C55   Br11  S    
C67   C83   A    
C47   C101  A    
Cu4   O10   S    
C6    O11   A    
C51   H7    S    
C6    C111  S    
C50   H6    S    
C34   C93   A    
C13   H29   S    
C53   C69   A    
C33   C94   A    
C97   C100  A    
C83   H23   S    
C72   C85   A    
C69   C85   A    
C48   H4    S    
C63   C79   A    
C78   C90   A    
C50   C104  A    
C83   C92   A    
C46   C102  A    
C3    O5    A    
C63   Br19  S    
C7    O16   A    
C72   H12   S    
C36   C103  S    
C95   H43   S    
C23   H39   S    
C44   N4    A    
C66   Br22  S    
C32   C91   S    
C65   Br21  S    
C11   C25   A    
C57   C73   A    
Cu3   Cu4   S    
Cu4   O15   S    
C2    C107  S    
C82   C92   A    
C46   H2    S    
C38   N2    A    
C10   H26   S    
C14   C24   A    
C80   C89   A    
C65   C111  A    
C79   C90   A    
C61   Br17  S    
C40   Br4   S    
C56   Br12  S    
C65   C81   A    
C9    C19   A    
Cu2   O5    S    
C73   C87   A    
C59   Br15  S    
C56   C72   A    
C4    O7    A    
C62   C110  A    
C68   Br24  S    
C19   H35   S    
C13   C28   A    
Cu2   N2    S    
C36   C97   A    
C84   C91   A    
C14   C27   A    
C35   C98   A    
C40   N2    A    
Cu2   O2    S    
C2    O3    A    
C39   Br3   S    
C70   H10   S    
C47   H3    S    
C61   C109  A    
C64   Br20  S    
C43   Br7   S    
C94   H42   S    
C4    O6    A    
C6    O10   A    
C17   C30   A    
C64   C80   A    
C71   H11   S    
C76   H16   S    
C77   H17   S    
C30   C89   S    
C41   C49   A    
C29   C90   S    
C98   H46   S    
C13   C23   A    
C75   H15   S    
C9    C26   A    
Cu3   O16   S    
C3    C106  S    
C58   C74   A    
C21   C32   A    
C73   H13   S    
C34   C101  S    
C22   C31   A    
C54   C106  A    
C55   C106  A    
C33   C102  S    
C68   C84   A    
C34   C95   A    
Cu1   O3    S    
C35   C104  S    
C61   C77   A    
C7    O13   A    
Cu1   O1    S    
C38   Br2   S    
C60   C76   A    
Cu3   O11   S    
C12   H28   S    
C37   Br1   S    
C15   H31   S    
C68   C111  A    
C23   C31   A    
C39   N1    A    
Cu2   O4    S    
C24   C32   A    
C5    O12   A    
C8    O14   A    
C66   C82   A    
C71   C86   A    
C42   Br6   S    
C15   C27   A    
C54   C70   A    
C49   H5    S    
Cu4   O13   S    
C28   C87   S    
C12   C18   A    
C94   C95   A    
C100  H48   S    
C18   C29   A    
C93   H41   S    
C78   H18   S    
C76   C87   A    
C5    O9    A    
Cu3   O9    S    
C60   C107  A    
C45   C101  A    
C2    O2    A    
Cu1   O8    S    
C99   H47   S    
C8    O15   A    
Cu2   O7    S    
C96   H44   S    
C42   C50   A    
C98   C99   A    
C93   C96   A    
C97   H45   S    
Cu4   O12   S    
C42   N4    A    
C37   C45   A    
C35   C100  A    
C70   C86   A    
C33   C96   A    
C59   C75   A    
Cu3   O14   S    
C67   Br23  S    
C10   C25   A    
C39   C47   A    
Cu1   Cu2   S    
C22   H38   S    
C45   H1    S    
C40   C48   A    
C58   Br14  S    
C16   C22   A    
C57   Br13  S    
C62   C78   A    
C17   H33   S    
Cu3   N3    S    
C11   C17   A    
C49   C103  A    
C37   N1    A    
C11   H27   S    
C77   C89   A    
C5    C112  S    
C43   N3    A    
C79   H19   S    
C4    C105  S    
C14   H30   S    
C1    O4    A    
C59   C108  A    
C80   H20   S    
C7    C110  S    
C41   Br5   S    
C48   C102  A    
C16   H32   S    
C66   C112  A    
C63   C110  A    
C74   H14   S    
C3    O8    A    
C82   H22   S    
C18   H34   S    
C53   Br9   S    
C44   Br8   S    
Cu1   N1    S    
C52   H8    S    
C57   C107  A    
C44   C52   A    
C64   C109  A    
C10   C20   A    
C43   C51   A    
C26   C85   S    
C41   N3    A    
C1    O1    A    
C25   C86   S    
C52   C104  A    
C36   C99   A    
C58   C108  A    
C75   C88   A    
C27   C88   S    
C54   Br10  S    
C55   C71   A    
C56   C105  A    
C38   C46   A    
C9    H25   S    
C60   Br16  S    
C1    C108  S    
C69   H9    S    
C81   C91   A    
C53   C105  A    
C67   C112  A    
C15   C21   A    
C20   H36   S    
C84   H24   S    
C31   C92   S    
C12   C26   A    
C20   C30   A    
C81   H21   S    
C21   H37   S    
Cu4   N4    S    
C74   C88   A    
C8    C109  S    
C51   C103  A    
C62   Br18  S    
C24   H40   S    
Cu1   O6    S    
C19   C29   A    
