data_mof_unit_15996.cif
_audit_creation_date              2012-10-26T18:33:57-0400
_audit_creation_method            fapswitch 2.2
_symmetry_space_group_name_H-M    P1
_symmetry_Int_Tables_number       1
_space_group_crystal_system       triclinic
_cell_length_a                    11.052197
_cell_length_b                    10.892844
_cell_length_c                    9.518118
_cell_angle_alpha                 90.47395
_cell_angle_beta                  102.620427
_cell_angle_gamma                 90.26521
_cell_volume                      1118.13648666

loop_
_atom_site_label
_atom_site_type_symbol
_atom_type_description
_atom_site_fract_x
_atom_site_fract_y
_atom_site_fract_z
_atom_type_partial_charge
C1    C     C_R   0.501542 0.262013 0.499377 0.565358
C2    C     C_2   0.872053 0.498978 0.591222 -0.136405
C3    C     C_2   0.067228 0.498929 0.515717 -0.155884
C4    C     C_2   0.932685 0.499435 0.484333 -0.163271
C5    C     C_R   0.494171 0.059898 0.370841 0.058021
C6    C     C_R   0.544755 0.940323 0.638037 0.063221
C7    C     C_R   0.518569 0.935052 0.377050 0.240777
C8    C     C_R   0.554065 0.067896 0.633526 0.242682
C9    C     C_R   0.524234 0.872040 0.507514 -0.070000
C10   C     C_R   0.514275 0.128536 0.500505 -0.068018
C11   C     C_3   0.661237 0.852520 0.262388 0.049736
C12   C     C_R   0.508774 0.737890 0.503082 0.571377
C13   C     C_3   0.734253 0.969151 0.242298 -0.274360
C14   C     C_3   0.866485 0.938450 0.231344 -0.488674
C15   C     C_3   0.714367 0.180809 0.770889 0.045361
C16   C     C_3   0.813640 0.089319 0.841035 -0.282585
C17   C     C_3   0.943310 0.145409 0.863520 -0.481746
C18   C     C_R   0.262736 0.499848 0.441766 0.564214
C19   C     C_R   0.737245 0.499743 0.558241 0.531693
C20   C     C_R   0.399705 0.457501 0.048447 0.049149
C21   C     C_R   0.600778 0.541256 0.951669 0.029478
C22   C     C_R   0.400008 0.456846 0.899935 0.050385
C23   C     C_R   0.600939 0.540666 0.100217 0.030491
C24   C     C_2   0.127869 0.499710 0.408824 -0.122100
Cu1   Cu    Cu3+1 0.500000 0.500020 0.640660 0.983473
Cu2   Cu    Cu3+1 0.500000 0.499980 0.359340 0.985076
H1    H     H_    0.882972 0.500412 0.372300 0.146785
H2    H     H_    0.705348 0.806670 0.364973 0.108543
H3    H     H_    0.686989 0.016633 0.142782 0.226033
H4    H     H_    0.738619 0.032657 0.335225 0.149078
H5    H     H_    0.915886 0.891568 0.330442 0.156443
H6    H     H_    0.917351 0.024361 0.218619 0.158542
H7    H     H_    0.865607 0.878020 0.136516 0.156422
H8    H     H_    0.723532 0.264854 0.839486 0.168434
H9    H     H_    0.731897 0.210003 0.664984 0.105387
H10   H     H_    0.796481 0.061532 0.946873 0.190747
H11   H     H_    0.808897 0.006279 0.771419 0.168421
H12   H     H_    0.116947 0.498154 0.627753 0.151828
H13   H     H_    0.963280 0.172802 0.758665 0.154300
H14   H     H_    0.013073 0.076850 0.914103 0.174958
H15   H     H_    0.951405 0.227213 0.935529 0.144279
H16   H     H_    0.319376 0.422703 0.083143 0.123185
H17   H     H_    0.681505 0.575219 0.917147 0.117090
H18   H     H_    0.921971 0.497977 0.703123 0.095090
H19   H     H_    0.077899 0.500378 0.296935 0.093822
H20   H     H_    0.320021 0.421168 0.824033 0.112164
H21   H     H_    0.682343 0.572847 0.176359 0.086434
H22   H     H_    0.667830 0.787362 0.174544 0.167329
I1    I     I_    0.424048 0.130073 0.158551 -0.292632
I2    I     I_    0.568305 0.863741 0.848754 -0.330077
N1    N     N_R   0.500030 0.500030 0.852080 -0.217866
N2    N     N_R   0.499970 0.499970 0.147920 -0.214752
O1    O     O_R   0.499990 0.319660 0.618740 -0.458579
O2    O     O_3   0.593418 0.132247 0.762033 -0.503600
O3    O     O_R   0.500010 0.680340 0.381260 -0.454468
O4    O     O_R   0.499990 0.319630 0.381170 -0.480891
O5    O     O_R   0.500010 0.680370 0.618830 -0.468401
O6    O     O_R   0.320690 0.500020 0.575130 -0.509138
O7    O     O_R   0.679310 0.499980 0.424870 -0.520579
O8    O     O_R   0.320680 0.499990 0.337560 -0.504363
O9    O     O_R   0.679320 0.500010 0.662440 -0.526521
O10   O     O_3   0.533333 0.875964 0.252530 -0.490894

loop_
_geom_bond_atom_site_label_1
_geom_bond_atom_site_label_2
_ccdc_geom_bond_type
C20   H16   S    
Cu1   N1    S    
C7    O10   S    
Cu2   N2    S    
Cu2   O7    S    
C16   H11   S    
C15   H8    S    
C2    C4    D    
C20   C22   A    
C14   H5    S    
C11   O10   S    
Cu2   O3    S    
C14   H7    S    
C23   N2    A    
C5    C10   A    
C20   N2    A    
Cu1   O9    S    
C13   C14   S    
C6    I2    S    
C11   H22   S    
C11   C13   S    
C6    C9    A    
C5    I1    S    
C3    C24   D    
C16   H10   S    
Cu1   O5    S    
C11   H2    S    
C19   O9    A    
C18   C24   S    
C24   H19   S    
C13   H3    S    
C22   H20   S    
C1    O4    A    
Cu1   O1    S    
C5    C7    A    
C21   C23   A    
C9    C12   S    
C17   H15   S    
C15   H9    S    
C12   O3    A    
C23   H21   S    
Cu1   O6    S    
C12   O5    A    
C8    O2    S    
C3    C4    S    
C15   O2    S    
C13   H4    S    
C21   N1    A    
C4    H1    S    
C2    H18   S    
C8    C10   A    
C17   H13   S    
C18   O8    A    
C7    C9    A    
C1    O1    A    
C16   C17   S    
C6    C8    A    
C19   O7    A    
Cu1   Cu2   S    
C2    C19   S    
Cu2   O8    S    
C18   O6    A    
C21   H17   S    
C1    C10   S    
C15   C16   S    
C3    H12   S    
C14   H6    S    
C22   N1    A    
C17   H14   S    
Cu2   O4    S    
