data_mof_unit_66312.cif
_audit_creation_date              2012-12-11T19:51:51-0500
_audit_creation_method            fapswitch 2.2
_symmetry_space_group_name_H-M    P1
_symmetry_Int_Tables_number       1
_space_group_crystal_system       triclinic
_cell_length_a                    17.045332
_cell_length_b                    27.417853
_cell_length_c                    8.639949
_cell_angle_alpha                 89.999915
_cell_angle_beta                  105.074595
_cell_angle_gamma                 89.999749
_cell_volume                      3898.89883598

loop_
_atom_site_label
_atom_site_type_symbol
_atom_type_description
_atom_site_fract_x
_atom_site_fract_y
_atom_site_fract_z
_atom_type_partial_charge
Ba1   Ba    Ba6+2 0.000400 0.534870 0.845190 1.752166
Ba2   Ba    Ba6+2 0.000400 0.465130 0.345190 1.752184
Ba3   Ba    Ba6+2 0.500400 0.034870 0.845190 1.752176
Ba4   Ba    Ba6+2 0.500400 0.965130 0.345190 1.752175
Br1   Br    Br    0.363122 0.584031 0.044136 -0.395520
Br2   Br    Br    0.864843 0.792165 0.203039 -0.357091
Br3   Br    Br    0.364844 0.707836 0.703067 -0.357080
Br4   Br    Br    0.364854 0.292166 0.203026 -0.357096
Br5   Br    Br    0.136122 0.769021 0.012009 -0.583447
Br6   Br    Br    0.136147 0.230988 0.512074 -0.583505
Br7   Br    Br    0.636143 0.269009 0.012033 -0.583466
Br8   Br    Br    0.636124 0.730976 0.512016 -0.583484
Br9   Br    Br    0.363029 0.416041 0.543780 -0.395347
Br10  Br    Br    0.863058 0.084015 0.043925 -0.395422
Br11  Br    Br    0.863076 0.915992 0.543937 -0.395415
Br12  Br    Br    0.838903 0.763303 0.588908 -0.471034
Br13  Br    Br    0.838925 0.236702 0.089015 -0.471026
Br14  Br    Br    0.338917 0.263311 0.588931 -0.471045
Br15  Br    Br    0.338904 0.736704 0.088953 -0.471025
Br16  Br    Br    0.864846 0.207834 0.703037 -0.357068
C1    C     C_3   0.954067 0.763261 0.683436 0.574632
C2    C     C_2   0.749668 0.640135 0.404060 -0.073388
C3    C     C_2   0.249667 0.859867 0.904058 -0.073386
C4    C     C_2   0.249675 0.140139 0.404074 -0.073395
C5    C     C_2   0.815717 0.390551 0.909206 0.006715
C6    C     C_2   0.815717 0.609448 0.409206 0.006704
C7    C     C_2   0.315717 0.890552 0.909205 0.006705
C8    C     C_2   0.315719 0.109450 0.409207 0.006707
C9    C     C_2   0.845567 0.344987 0.687440 0.026975
C10   C     C_2   0.845569 0.655013 0.187442 0.026983
C11   C     C_2   0.345568 0.844988 0.687441 0.026985
C12   C     C_3   0.954093 0.236737 0.183464 0.574619
C13   C     C_2   0.345569 0.155014 0.187440 0.026974
C14   C     C_3   0.796282 0.306230 0.728763 -0.011937
C15   C     C_3   0.796282 0.693770 0.228762 -0.011952
C16   C     C_3   0.296281 0.806232 0.728761 -0.011969
C17   C     C_3   0.296289 0.193773 0.228769 -0.011949
C18   C     C_3   0.726752 0.323840 0.781142 0.166522
C19   C     C_3   0.726751 0.676159 0.281135 0.166535
C20   C     C_3   0.226750 0.823842 0.781134 0.166550
C21   C     C_3   0.226760 0.176166 0.281156 0.166528
C22   C     C_2   0.783347 0.257719 0.640504 0.335665
C23   C     C_3   0.454081 0.263267 0.683430 0.574597
C24   C     C_2   0.783346 0.742280 0.140502 0.335666
C25   C     C_2   0.283347 0.757720 0.640510 0.335677
C26   C     C_2   0.283354 0.242282 0.140503 0.335670
C27   C     C_2   0.210244 0.744010 0.548453 -0.092183
C28   C     C_2   0.210248 0.255992 0.048450 -0.092192
C29   C     C_2   0.710241 0.244009 0.548452 -0.092190
C30   C     C_2   0.710241 0.755990 0.048448 -0.092182
C31   C     C_R   0.235320 0.691779 0.329062 0.191995
C32   C     C_R   0.235337 0.308225 0.829068 0.192026
C33   C     C_R   0.735316 0.191780 0.329055 0.192042
C34   C     C_3   0.454076 0.736740 0.183440 0.574633
C35   C     C_R   0.735314 0.808218 0.829045 0.191978
C36   C     C_R   0.199641 0.696756 0.464603 -0.014104
C37   C     C_R   0.199644 0.303245 0.964593 -0.014124
C38   C     C_R   0.699637 0.196756 0.464597 -0.014117
C39   C     C_R   0.699637 0.803243 0.964593 -0.014106
C40   C     C_3   0.017124 0.718267 0.128208 0.594849
C41   C     C_3   0.017128 0.281735 0.628235 0.594868
C42   C     C_3   0.517128 0.218263 0.128203 0.594860
C43   C     C_3   0.517124 0.781733 0.628206 0.594854
C44   C     C_R   0.224187 0.646624 0.236505 -0.089269
C45   C     C_R   0.141920 0.613708 0.406302 -0.194798
C46   C     C_R   0.224203 0.353381 0.736511 -0.089180
C47   C     C_R   0.724185 0.146624 0.236500 -0.089234
C48   C     C_R   0.724183 0.853374 0.736491 -0.089241
C49   C     C_R   0.180356 0.609906 0.271769 0.027293
C50   C     C_R   0.180349 0.390092 0.771746 0.027482
C51   C     C_R   0.680353 0.109906 0.271763 0.027396
C52   C     C_R   0.680353 0.890094 0.771762 0.027404
C53   C     C_R   0.154773 0.654391 0.506784 0.148757
C54   C     C_R   0.154771 0.345609 0.006768 0.148687
C55   C     C_R   0.654776 0.154390 0.506787 0.148723
C56   C     C_R   0.141908 0.386288 0.906273 -0.194759
C57   C     C_R   0.654778 0.845611 0.006789 0.148719
C58   C     C_3   0.053594 0.769366 0.125397 0.055673
C59   C     C_3   0.053607 0.230637 0.625436 0.055636
C60   C     C_3   0.553606 0.269361 0.125398 0.055650
C61   C     C_3   0.553594 0.730633 0.625400 0.055651
C62   C     C_3   0.764788 0.530030 0.055302 0.281962
C63   C     C_3   0.764788 0.469969 0.555298 0.281959
C64   C     C_3   0.264788 0.030030 0.055305 0.281963
C65   C     C_3   0.264787 0.969970 0.555299 0.281959
C66   C     C_3   0.689327 0.562080 0.013174 -0.313824
C67   C     C_R   0.641922 0.113707 0.406303 -0.194738
C68   C     C_3   0.689326 0.437920 0.513167 -0.313829
C69   C     C_3   0.189326 0.062079 0.013188 -0.313837
C70   C     C_3   0.189326 0.937921 0.513166 -0.313825
C71   C     C_3   0.282723 0.493753 0.090529 0.586009
C72   C     C_3   0.282655 0.506295 0.590528 0.586018
C73   C     C_3   0.782706 0.993741 0.090534 0.586003
C74   C     C_3   0.782706 0.006259 0.590529 0.585987
C75   C     C_3   0.365260 0.514694 0.084507 0.122136
C76   C     C_3   0.365164 0.485374 0.584209 0.122355
C77   C     C_3   0.865228 0.014683 0.084411 0.122220
C78   C     C_R   0.641925 0.886294 0.906310 -0.194744
C79   C     C_3   0.865231 0.985322 0.584417 0.122228
C80   C     C_3   0.987314 0.711481 0.682006 0.344495
C81   C     C_3   0.987335 0.288518 0.182040 0.344489
C82   C     C_3   0.487321 0.211486 0.682002 0.344493
C83   C     C_3   0.487321 0.788520 0.182013 0.344470
C84   C     C_2   0.862318 0.383491 0.787750 -0.251509
C85   C     C_2   0.862320 0.616510 0.287753 -0.251518
C86   C     C_2   0.362319 0.883491 0.787752 -0.251513
C87   C     C_2   0.362317 0.116510 0.287748 -0.251515
C88   C     C_2   0.749670 0.359864 0.904064 -0.073378
Cl1   Cl    Cl    0.298752 0.430534 0.131875 -0.665296
Cl2   Cl    Cl    0.006440 0.290185 0.823715 -0.800678
Cl3   Cl    Cl    0.506450 0.209813 0.323689 -0.800706
Cl4   Cl    Cl    0.506448 0.790187 0.823695 -0.800691
Cl5   Cl    Cl    0.298705 0.569497 0.632191 -0.665328
Cl6   Cl    Cl    0.798761 0.930529 0.131994 -0.665297
Cl7   Cl    Cl    0.798749 0.069472 0.631981 -0.665325
Cl8   Cl    Cl    0.001006 0.805683 0.578754 -0.497058
Cl9   Cl    Cl    0.001003 0.194324 0.078705 -0.497088
Cl10  Cl    Cl    0.501011 0.305685 0.578724 -0.497124
Cl11  Cl    Cl    0.501001 0.694322 0.078704 -0.497028
Cl12  Cl    Cl    0.006445 0.709817 0.323696 -0.800684
H1    H     H_    0.974078 0.689706 0.779170 0.027762
H2    H     H_    0.704545 0.400299 0.557059 0.043116
H3    H     H_    0.204545 0.099699 0.057085 0.043116
H4    H     H_    0.204544 0.900300 0.557061 0.043114
H5    H     H_    0.664183 0.563420 0.881024 0.144265
H6    H     H_    0.664181 0.436582 0.381018 0.144271
H7    H     H_    0.164178 0.063420 0.881040 0.144271
H8    H     H_    0.164183 0.936581 0.381016 0.144268
H9    H     H_    0.237134 0.496822 0.974514 0.051939
H10   H     H_    0.237002 0.503274 0.474562 0.051563
H11   H     H_    0.737094 0.996790 0.974537 0.051816
H12   H     H_    0.974104 0.310290 0.279217 0.027778
H13   H     H_    0.737098 0.003207 0.474530 0.051827
H14   H     H_    0.386469 0.496341 0.988175 0.092086
H15   H     H_    0.386280 0.503749 0.487795 0.091887
H16   H     H_    0.886423 0.996315 0.988086 0.091975
H17   H     H_    0.886424 0.003692 0.488090 0.091973
H18   H     H_    0.410812 0.507925 0.200336 0.100328
H19   H     H_    0.410790 0.492135 0.699956 0.100377
H20   H     H_    0.910802 0.007934 0.200231 0.100343
H21   H     H_    0.910801 0.992074 0.700237 0.100347
H22   H     H_    0.955094 0.693142 0.569380 0.072006
H23   H     H_    0.474081 0.189712 0.779166 0.027767
H24   H     H_    0.955107 0.306859 0.069420 0.072026
H25   H     H_    0.455101 0.193147 0.569376 0.072020
H26   H     H_    0.455100 0.806858 0.069386 0.072021
H27   H     H_    0.964487 0.776561 0.807376 0.054910
H28   H     H_    0.964540 0.223427 0.307400 0.054925
H29   H     H_    0.464514 0.276573 0.807370 0.054914
H30   H     H_    0.464509 0.723433 0.307383 0.054917
H31   H     H_    0.084227 0.782627 0.247576 0.137877
H32   H     H_    0.084232 0.217378 0.747623 0.137895
H33   H     H_    0.584234 0.282621 0.247580 0.137889
H34   H     H_    0.474085 0.810294 0.279180 0.027770
H35   H     H_    0.584226 0.717373 0.747582 0.137889
H36   H     H_    0.709841 0.367152 0.980942 0.134507
H37   H     H_    0.709839 0.632846 0.480935 0.134517
H38   H     H_    0.209838 0.867155 0.980934 0.134515
H39   H     H_    0.209849 0.132852 0.480955 0.134515
H40   H     H_    0.251773 0.643882 0.138164 0.193553
H41   H     H_    0.251814 0.356130 0.638200 0.193506
H42   H     H_    0.751777 0.143881 0.138164 0.193536
H43   H     H_    0.751772 0.856116 0.638148 0.193538
H44   H     H_    0.904698 0.411423 0.772018 0.064591
H45   H     H_    0.642527 0.547230 0.068901 0.146154
H46   H     H_    0.904700 0.588577 0.272022 0.064596
H47   H     H_    0.404699 0.911423 0.772021 0.064597
H48   H     H_    0.404694 0.088576 0.272011 0.064593
H49   H     H_    0.106910 0.583282 0.432206 0.061947
H50   H     H_    0.106891 0.416713 0.932169 0.061975
H51   H     H_    0.606913 0.083281 0.432211 0.061960
H52   H     H_    0.606920 0.916722 0.932223 0.061954
H53   H     H_    0.158922 0.768741 0.526413 0.136479
H54   H     H_    0.158924 0.231263 0.026427 0.136482
H55   H     H_    0.658918 0.268740 0.526424 0.136499
H56   H     H_    0.642528 0.452769 0.568897 0.146153
H57   H     H_    0.658918 0.731259 0.026415 0.136489
H58   H     H_    0.059409 0.690128 0.104345 0.027691
H59   H     H_    0.059411 0.309876 0.604377 0.027659
H60   H     H_    0.559409 0.190122 0.104336 0.027685
H61   H     H_    0.559409 0.809871 0.604336 0.027683
H62   H     H_    0.006484 0.796656 0.071128 0.158008
H63   H     H_    0.006501 0.203345 0.571158 0.158004
H64   H     H_    0.506500 0.296653 0.071124 0.157999
H65   H     H_    0.506482 0.703344 0.571132 0.157998
H66   H     H_    0.786734 0.527120 0.187525 0.005429
H67   H     H_    0.142530 0.047228 0.068922 0.146146
H68   H     H_    0.786734 0.472878 0.687521 0.005427
H69   H     H_    0.286738 0.027119 0.187527 0.005434
H70   H     H_    0.286732 0.972879 0.687522 0.005428
H71   H     H_    0.811831 0.547277 0.005121 0.053241
H72   H     H_    0.811830 0.452724 0.505114 0.053243
H73   H     H_    0.311828 0.047277 0.005119 0.053239
H74   H     H_    0.311830 0.952724 0.505118 0.053241
H75   H     H_    0.142526 0.952770 0.568892 0.146151
H76   H     H_    0.704545 0.599700 0.057071 0.043111
O1    O     O_2   0.163830 0.569270 0.980510 -0.456892
O2    O     O_3   0.941040 0.284688 0.514358 -0.608556
O3    O     O_3   0.441036 0.215311 0.014339 -0.608559
O4    O     O_3   0.441032 0.784689 0.514341 -0.608571
O5    O     O_3   0.904940 0.476110 0.001150 -0.504037
O6    O     O_3   0.904940 0.523890 0.501150 -0.504041
O7    O     O_3   0.404940 0.976110 0.001150 -0.504038
O8    O     O_3   0.404940 0.023890 0.501150 -0.504039
O9    O     O_3   0.095420 0.524330 0.188510 -0.486184
O10   O     O_3   0.095420 0.475670 0.688510 -0.486258
O11   O     O_3   0.595420 0.024330 0.188510 -0.486211
O12   O     O_2   0.163830 0.430730 0.480510 -0.456840
O13   O     O_3   0.595420 0.975670 0.688510 -0.486211
O14   O     O_3   0.028940 0.612400 0.656050 -0.513637
O15   O     O_3   0.028940 0.387600 0.156050 -0.513638
O16   O     O_3   0.528940 0.112400 0.656050 -0.513633
O17   O     O_3   0.528940 0.887600 0.156050 -0.513638
O18   O     O_2   0.172884 0.645646 0.834009 -0.379392
O19   O     O_2   0.172898 0.354362 0.333996 -0.379402
O20   O     O_2   0.672887 0.145644 0.834008 -0.379420
O21   O     O_2   0.672888 0.854356 0.334014 -0.379433
O22   O     O_3   0.257170 0.514359 0.217900 -0.641083
O23   O     O_2   0.663830 0.069270 0.980510 -0.456885
O24   O     O_3   0.257197 0.485617 0.717912 -0.640995
O25   O     O_3   0.757179 0.014367 0.217902 -0.641039
O26   O     O_3   0.757180 0.985632 0.717903 -0.641029
O27   O     O_3   0.071588 0.713357 0.701947 -0.557099
O28   O     O_3   0.071608 0.286645 0.201965 -0.557123
O29   O     O_3   0.571596 0.213357 0.701949 -0.557115
O30   O     O_3   0.571595 0.786645 0.201954 -0.557106
O31   O     O_2   0.837400 0.570350 0.710350 -0.463928
O32   O     O_2   0.837400 0.429650 0.210350 -0.463933
O33   O     O_2   0.337400 0.070350 0.710350 -0.463929
O34   O     O_2   0.663830 0.930730 0.480510 -0.456893
O35   O     O_2   0.337400 0.929650 0.210350 -0.463929
O36   O     O_3   0.972820 0.612580 0.035550 -0.497655
O37   O     O_3   0.972820 0.387420 0.535550 -0.497676
O38   O     O_3   0.472820 0.112580 0.035550 -0.497663
O39   O     O_3   0.472820 0.887420 0.535550 -0.497664
O40   O     O_2   0.835015 0.652215 0.856971 -0.466715
O41   O     O_2   0.835019 0.347782 0.356969 -0.466697
O42   O     O_2   0.335016 0.152215 0.856966 -0.466706
O43   O     O_2   0.335015 0.847786 0.356969 -0.466707
O44   O     O_3   0.743752 0.516138 0.488574 -0.626451
O45   O     O_3   0.743753 0.483863 0.988574 -0.626451
O46   O     O_3   0.243752 0.016138 0.488573 -0.626453
O47   O     O_3   0.243753 0.983863 0.988574 -0.626451
O48   O     O_3   0.941033 0.715311 0.014342 -0.608575
P1    P     P_3+3 0.171820 0.553000 0.158080 1.018688
P2    P     P_3+3 0.897138 0.342366 0.522322 0.987056
P3    P     P_3+3 0.397136 0.157633 0.022316 0.987064
P4    P     P_3+3 0.397135 0.842367 0.522319 0.987056
P5    P     P_3+3 0.107715 0.344810 0.175772 1.103765
P6    P     P_3+3 0.107707 0.655193 0.675775 1.103779
P7    P     P_3+3 0.607711 0.844808 0.175779 1.103757
P8    P     P_3+3 0.607709 0.155192 0.675776 1.103758
P9    P     P_3+3 0.171820 0.447000 0.658080 1.018810
P10   P     P_3+3 0.671820 0.053000 0.158080 1.018745
P11   P     P_3+3 0.671820 0.947000 0.658080 1.018750
P12   P     P_3+3 0.829210 0.554130 0.532500 0.981453
P13   P     P_3+3 0.829210 0.445870 0.032500 0.981456
P14   P     P_3+3 0.329210 0.054130 0.532500 0.981454
P15   P     P_3+3 0.329210 0.945870 0.032500 0.981455
P16   P     P_3+3 0.897136 0.657633 0.022320 0.987049

loop_
_geom_bond_atom_site_label_1
_geom_bond_atom_site_label_2
_ccdc_geom_bond_type
Ba3   O13   S    
Ba4   O17   S    
C18   C88   A    
Br12  C1    S    
C43   H61   S    
O23   P10   D    
C35   C39   S    
C62   H71   S    
Ba3   O7    S    
C9    P2    S    
C15   C19   A    
Ba2   O6    S    
C61   H35   S    
C12   Cl9   S    
Ba1   O5    S    
C39   C57   S    
C76   H19   S    
C35   C48   S    
C4    H39   S    
Ba2   O32   S    
C28   C37   S    
C34   H30   S    
C52   C78   S    
O26   P11   S    
C43   O4    S    
C83   O30   S    
C66   H45   S    
C40   C58   S    
Ba2   O15   S    
O45   P13   S    
C10   C15   A    
C62   H66   S    
C10   P16   S    
C30   C39   S    
Br3   C25   S    
C42   C60   S    
O11   P10   S    
O2    P2    S    
C42   O3    S    
Ba1   Ba2   S    
O9    P1    S    
C11   C16   A    
Ba3   O38   S    
C42   H60   S    
C81   H24   S    
C65   H74   S    
Ba4   O8    S    
C5    C88   A    
Ba1   O6    S    
C8    C87   S    
C40   H58   S    
C3    C20   A    
C3    H38   S    
C72   C76   S    
C74   H13   S    
C45   C53   A    
C85   H46   S    
C6    C85   S    
C31   C36   S    
C73   C77   S    
C43   Cl4   S    
C72   O24   S    
C74   Cl7   S    
C68   H6    S    
Ba2   O37   S    
C66   H76   S    
C23   Cl10  S    
C87   H48   S    
O8    P14   S    
O6    P12   S    
C42   Cl3   S    
C14   C22   S    
C13   C87   D    
O42   P3    D    
O18   P6    D    
O17   P7    S    
C57   P7    S    
C3    C7    A    
O16   P8    S    
C72   Cl5   S    
C77   H20   S    
C23   H29   S    
Ba1   P12   S    
O3    P3    S    
Br5   C58   S    
C78   H52   S    
O33   P14   D    
Ba1   O31   S    
C63   C68   S    
Br2   C24   S    
C34   Cl11  S    
C66   H5    S    
C71   H9    S    
Ba3   O8    S    
O46   P14   S    
Ba3   O33   S    
C69   H67   S    
Ba2   O5    S    
C4    C21   A    
C1    Cl8   S    
C33   C47   S    
C41   Cl2   S    
C50   P9    S    
C61   H65   S    
Br1   C75   S    
O7    P15   S    
C38   C55   S    
C75   H14   S    
C76   H15   S    
C28   H54   S    
C25   C27   D    
O30   P7    S    
C77   H16   S    
C26   C28   D    
C40   O48   S    
O44   P12   S    
C70   H75   S    
Br9   C76   S    
Ba4   O35   S    
C63   H72   S    
C60   H33   S    
C30   H57   S    
C48   C52   D    
C68   H2    S    
O34   P11   D    
Br7   C60   S    
C1    C80   S    
O32   P13   D    
Ba4   O7    S    
C69   H3    S    
C7    C86   S    
C65   H70   S    
C62   C66   S    
O35   P15   D    
C9    C14   A    
C80   H22   S    
C82   O29   S    
C13   C17   A    
C29   C38   S    
C9    C84   D    
C45   H49   S    
O43   P4    D    
C58   H62   S    
Ba4   O34   S    
C37   C54   S    
C72   H10   S    
O22   P1    S    
C51   P10   S    
C11   P4    S    
C15   C24   S    
O38   P3    S    
C34   C83   S    
C83   H34   S    
C88   H36   S    
C16   C20   A    
C64   H73   S    
O20   P8    D    
C67   H51   S    
O24   P9    S    
C44   H40   S    
O40   P16   D    
C64   H69   S    
Ba2   O9    S    
O47   P15   S    
C44   C49   D    
O15   P5    S    
C56   H50   S    
O4    P4    S    
C27   H53   S    
C2    C6    A    
C54   C56   A    
O28   P5    S    
C51   C67   S    
O27   P6    S    
C49   P1    S    
C43   C61   S    
C41   H59   S    
O29   P8    S    
C16   C25   S    
C10   C85   D    
C50   C56   S    
Ba4   O39   S    
C63   H68   S    
Ba2   O12   S    
C64   C69   S    
C52   P11   S    
O36   P16   S    
C55   P8    S    
Ba2   P9    S    
C1    H27   S    
O39   P4    S    
C29   H55   S    
C54   P5    S    
C32   C46   S    
C47   H42   S    
C81   O28   S    
Br10  C77   S    
C74   O26   S    
C53   P6    S    
C69   H7    S    
C48   H43   S    
C55   C67   A    
Ba3   O16   S    
Ba1   P1    S    
C63   O44   S    
C80   H1    S    
C75   H18   S    
C36   C53   S    
C57   C78   A    
Ba1   O14   S    
C14   C18   A    
C70   H4    S    
Ba4   O11   S    
C79   H21   S    
Ba1   O1    S    
C31   C44   S    
C4    C8    A    
Br11  C79   S    
C68   H56   S    
C41   O2    S    
C84   H44   S    
Br16  C22   S    
C65   C70   S    
C5    C84   S    
O31   P12   D    
C12   H28   S    
C2    H37   S    
Ba4   P15   S    
Ba3   P14   S    
C7    P15   S    
C46   C50   D    
C8    P14   S    
C80   O27   S    
C86   H47   S    
C71   Cl1   S    
C71   O22   S    
C82   H23   S    
C23   C82   S    
C5    P13   S    
C40   Cl12  S    
C82   H25   S    
C6    P12   S    
Br14  C23   S    
O13   P11   S    
Ba1   O36   S    
O25   P10   S    
C79   H17   S    
C74   C79   S    
C41   C59   S    
C45   C49   S    
C2    C19   A    
O41   P2    D    
O1    P1    D    
C65   O46   S    
C11   C86   D    
C59   H63   S    
Br8   C61   S    
C13   P3    S    
C64   O47   S    
C47   C51   D    
C73   Cl6   S    
C60   H64   S    
C17   C21   A    
O37   P2    S    
O5    P13   S    
O48   P16   S    
Ba3   P10   S    
C32   C37   S    
Ba4   P11   S    
C22   C29   D    
C71   C75   S    
C81   H12   S    
C46   H41   S    
Ba2   P13   S    
Br15  C34   S    
C62   O45   S    
C24   C30   D    
Ba3   O23   S    
O12   P9    D    
C58   H31   S    
O19   P5    D    
Br13  C12   S    
C70   H8    S    
C12   C81   S    
Br6   C59   S    
C73   O25   S    
Ba1   O10   S    
O21   P7    D    
Br4   C26   S    
C17   C26   S    
C73   H11   S    
O10   P9    S    
C59   H32   S    
O14   P6    S    
C33   C38   S    
Ba3   Ba4   S    
C83   H26   S    
C27   C36   S    
