data_mof_unit_61853.cif
_audit_creation_date              2013-03-05T16:08:08-0500
_audit_creation_method            fapswitch 2.2
_symmetry_space_group_name_H-M    P1
_symmetry_Int_Tables_number       1
_space_group_crystal_system       tetragonal
_cell_length_a                    38.872804
_cell_length_b                    38.872804
_cell_length_c                    47.228377
_cell_angle_alpha                 90.0
_cell_angle_beta                  90.0
_cell_angle_gamma                 90.0
_cell_volume                      71366.5591865

loop_
_atom_site_label
_atom_site_type_symbol
_atom_site_description
_atom_site_fract_x
_atom_site_fract_y
_atom_site_fract_z
_atom_type_partial_charge
O1    O     O_R   0.549940 0.971070 0.000000 -0.560377
O2    O     O_R   0.971070 0.450060 0.000000 -0.560380
O3    O     O_R   0.450060 0.028930 0.000000 -0.560380
O4    O     O_R   0.028930 0.549940 0.000000 -0.560381
O5    O     O_R   0.549940 0.028930 0.000000 -0.560378
O6    O     O_R   0.971070 0.549940 0.000000 -0.560380
O7    O     O_R   0.450060 0.971070 0.000000 -0.560379
O8    O     O_R   0.028930 0.450060 0.000000 -0.560381
O9    O     O_R   0.049940 0.471070 0.500000 -0.560379
O10   O     O_R   0.471070 0.950060 0.500000 -0.560377
O11   O     O_R   0.950060 0.528930 0.500000 -0.560379
O12   O     O_R   0.528930 0.049940 0.500000 -0.560379
O13   O     O_R   0.049940 0.528930 0.500000 -0.560380
O14   O     O_R   0.471070 0.049940 0.500000 -0.560378
O15   O     O_R   0.950060 0.471070 0.500000 -0.560378
O16   O     O_R   0.528930 0.950060 0.500000 -0.560378
C1    C     C_R   0.566298 0.000000 0.000000 0.921168
C2    C     C_R   1.000000 0.433703 0.000000 0.921179
C3    C     C_R   0.433703 1.000000 0.000000 0.921178
C4    C     C_R   0.000000 0.566297 0.000000 0.921179
C5    C     C_R   0.066297 0.500000 0.500000 0.921176
C6    C     C_R   0.500000 0.933702 0.500000 0.921171
C7    C     C_R   0.933702 0.500000 0.500000 0.921175
C8    C     C_R   0.500000 0.066297 0.500000 0.921175
O17   O     O_R   0.499990 0.971070 0.958930 -0.579158
O18   O     O_R   0.971070 0.500010 0.958930 -0.579161
O19   O     O_R   0.500010 0.028930 0.958930 -0.579162
O20   O     O_R   0.028930 0.499990 0.958930 -0.579162
O21   O     O_R   0.499990 0.028930 0.041070 -0.579159
O22   O     O_R   0.971070 0.499990 0.041070 -0.579161
O23   O     O_R   0.500010 0.971070 0.041070 -0.579161
O24   O     O_R   0.028930 0.500010 0.041070 -0.579161
O25   O     O_R   0.999990 0.471070 0.458930 -0.579160
O26   O     O_R   0.471070 0.000010 0.458930 -0.579159
O27   O     O_R   0.000010 0.528930 0.458930 -0.579160
O28   O     O_R   0.528930 0.999990 0.458930 -0.579161
O29   O     O_R   0.999990 0.528930 0.541070 -0.579160
O30   O     O_R   0.471070 0.999990 0.541070 -0.579160
O31   O     O_R   0.000010 0.471070 0.541070 -0.579159
O32   O     O_R   0.528930 0.000010 0.541070 -0.579159
C9    C     C_R   0.500000 0.000000 0.945392 0.881813
C10   C     C_R   1.000000 0.500000 0.945392 0.881820
C11   C     C_R   0.500000 0.000000 0.054608 0.881813
C12   C     C_R   0.000000 0.500000 0.054608 0.881819
C13   C     C_R   0.000000 0.500000 0.445391 0.881817
C14   C     C_R   0.500000 1.000000 0.445391 0.881814
C15   C     C_R   0.000000 0.500000 0.554608 0.881817
C16   C     C_R   0.500000 1.000000 0.554608 0.881813
Cu1   Cu    Cu3+1 0.500000 0.965750 0.000000 1.083772
Cu2   Cu    Cu3+1 0.965750 0.500000 0.000000 1.083769
Cu3   Cu    Cu3+1 0.500000 0.034250 0.000000 1.083772
Cu4   Cu    Cu3+1 0.034250 0.500000 0.000000 1.083768
Cu5   Cu    Cu3+1 1.000000 0.465750 0.500000 1.083771
Cu6   Cu    Cu3+1 0.465750 0.000000 0.500000 1.083772
Cu7   Cu    Cu3+1 1.000000 0.534250 0.500000 1.083771
Cu8   Cu    Cu3+1 0.534250 0.000000 0.500000 1.083772
C17   C     C_R   0.521390 0.022065 0.690344 0.545238
C18   C     C_R   0.022065 0.478609 0.690344 0.545237
C19   C     C_R   0.478610 0.977934 0.690344 0.545237
C20   C     C_R   0.977935 0.521391 0.690344 0.545237
C21   C     C_R   0.521389 0.977933 0.309656 0.545238
C22   C     C_R   0.022067 0.521389 0.309656 0.545238
C23   C     C_R   0.478611 0.022067 0.309656 0.545237
C24   C     C_R   0.977933 0.478611 0.309656 0.545238
C25   C     C_R   0.021389 0.522067 0.190344 0.545239
C26   C     C_R   0.522067 0.978611 0.190344 0.545236
C27   C     C_R   0.978611 0.477933 0.190344 0.545237
C28   C     C_R   0.477933 0.021389 0.190344 0.545237
C29   C     C_R   0.021387 0.477931 0.809656 0.545238
C30   C     C_R   0.522068 0.021388 0.809656 0.545237
C31   C     C_R   0.978613 0.522069 0.809656 0.545238
C32   C     C_R   0.477932 0.978612 0.809656 0.545238
N1    N     N_R   0.500000 1.000000 0.676044 -0.466328
N2    N     N_R   1.000000 0.500000 0.676044 -0.466328
N3    N     N_R   0.500000 1.000000 0.323956 -0.466328
N4    N     N_R   1.000000 0.500000 0.323956 -0.466328
N5    N     N_R   0.000000 0.500000 0.176044 -0.466328
N6    N     N_R   0.500000 0.000000 0.176044 -0.466328
N7    N     N_R   1.000000 0.500000 0.823955 -0.466329
N8    N     N_R   0.500000 1.000000 0.823955 -0.466329
C33   C     C_R   0.477954 0.977712 0.720098 -0.018316
C34   C     C_R   0.977713 0.522046 0.720098 -0.018317
C35   C     C_R   0.522046 0.022288 0.720098 -0.018317
C36   C     C_R   0.022287 0.477954 0.720098 -0.018316
C37   C     C_R   0.477956 0.022289 0.279902 -0.018317
C38   C     C_R   0.977711 0.477955 0.279902 -0.018317
C39   C     C_R   0.522044 0.977711 0.279902 -0.018316
C40   C     C_R   0.022289 0.522044 0.279902 -0.018317
C41   C     C_R   0.977956 0.477711 0.220098 -0.018317
C42   C     C_R   0.477711 0.022044 0.220098 -0.018316
C43   C     C_R   0.022044 0.522289 0.220098 -0.018317
C44   C     C_R   0.522289 0.977955 0.220098 -0.018316
C45   C     C_R   0.977957 0.522291 0.779902 -0.018317
C46   C     C_R   0.477710 0.977957 0.779902 -0.018317
C47   C     C_R   0.022042 0.477709 0.779902 -0.018317
C48   C     C_R   0.522290 0.022043 0.779902 -0.018317
C49   C     C_R   0.500000 1.000000 0.735030 -0.014398
C50   C     C_R   1.000000 0.500000 0.735030 -0.014398
C51   C     C_R   0.500000 1.000000 0.264970 -0.014398
C52   C     C_R   1.000000 0.500000 0.264970 -0.014397
C53   C     C_R   0.000000 0.500000 0.235030 -0.014397
C54   C     C_R   0.500000 1.000000 0.235030 -0.014398
C55   C     C_R   1.000000 0.500000 0.764970 -0.014397
C56   C     C_R   0.500000 1.000000 0.764970 -0.014398
C57   C     C_R   0.455912 0.955713 0.735218 -0.147891
C58   C     C_R   0.955714 0.544089 0.735218 -0.147890
C59   C     C_R   0.544088 0.044287 0.735218 -0.147890
C60   C     C_R   0.044286 0.455911 0.735218 -0.147891
C61   C     C_R   0.455915 0.044290 0.264782 -0.147890
C62   C     C_R   0.955710 0.455915 0.264782 -0.147890
C63   C     C_R   0.544085 0.955710 0.264782 -0.147891
C64   C     C_R   0.044290 0.544085 0.264782 -0.147890
C65   C     C_R   0.955915 0.455710 0.235218 -0.147890
C66   C     C_R   0.455710 0.044085 0.235218 -0.147890
C67   C     C_R   0.044085 0.544290 0.235218 -0.147890
C68   C     C_R   0.544290 0.955915 0.235218 -0.147891
C69   C     C_R   0.955919 0.544293 0.764782 -0.147891
C70   C     C_R   0.455708 0.955918 0.764782 -0.147890
C71   C     C_R   0.044081 0.455706 0.764782 -0.147890
C72   C     C_R   0.544292 0.044082 0.764782 -0.147890
O33   O     O_2   0.541730 0.043984 0.675832 -0.522303
O34   O     O_2   0.043983 0.458269 0.675832 -0.522302
O35   O     O_2   0.458270 0.956016 0.675832 -0.522303
O36   O     O_2   0.956017 0.541731 0.675832 -0.522303
O37   O     O_2   0.541727 0.956014 0.324168 -0.522302
O38   O     O_2   0.043986 0.541728 0.324168 -0.522302
O39   O     O_2   0.458273 0.043986 0.324168 -0.522302
O40   O     O_2   0.956014 0.458272 0.324168 -0.522302
O41   O     O_2   0.041727 0.543986 0.175832 -0.522302
O42   O     O_2   0.543986 0.958272 0.175832 -0.522302
O43   O     O_2   0.958273 0.456014 0.175832 -0.522302
O44   O     O_2   0.456014 0.041728 0.175832 -0.522301
O45   O     O_2   0.041724 0.456010 0.824168 -0.522301
O46   O     O_2   0.543989 0.041725 0.824168 -0.522302
O47   O     O_2   0.958276 0.543990 0.824168 -0.522301
O48   O     O_2   0.456011 0.958275 0.824168 -0.522301
H1    H     H_    0.438675 0.938328 0.724270 0.194961
H2    H     H_    0.938330 0.561327 0.724270 0.194961
H3    H     H_    0.561325 0.061671 0.724270 0.194962
H4    H     H_    0.061670 0.438673 0.724270 0.194962
H5    H     H_    0.438678 0.061675 0.275730 0.194961
H6    H     H_    0.938325 0.438678 0.275730 0.194962
H7    H     H_    0.561322 0.938325 0.275730 0.194962
H8    H     H_    0.061675 0.561322 0.275730 0.194961
H9    H     H_    0.938678 0.438325 0.224270 0.194962
H10   H     H_    0.438325 0.061322 0.224270 0.194961
H11   H     H_    0.061322 0.561675 0.224270 0.194961
H12   H     H_    0.561675 0.938678 0.224270 0.194961
H13   H     H_    0.938684 0.561681 0.775729 0.194962
H14   H     H_    0.438321 0.938682 0.775730 0.194962
H15   H     H_    0.061316 0.438319 0.775729 0.194961
H16   H     H_    0.561679 0.061318 0.775729 0.194961
C73   C     C_R   0.492171 0.030153 0.869481 -0.089626
C74   C     C_R   0.030153 0.507828 0.869481 -0.089626
C75   C     C_R   0.507829 0.969847 0.869481 -0.089627
C76   C     C_R   0.969846 0.492172 0.869481 -0.089626
C77   C     C_R   0.492169 0.969847 0.130519 -0.089625
C78   C     C_R   0.030153 0.492169 0.130519 -0.089626
C79   C     C_R   0.507831 0.030153 0.130519 -0.089625
C80   C     C_R   0.969847 0.507831 0.130519 -0.089624
C81   C     C_R   0.992169 0.530153 0.369481 -0.089626
C82   C     C_R   0.530153 0.007831 0.369481 -0.089625
C83   C     C_R   0.007831 0.469847 0.369481 -0.089626
C84   C     C_R   0.469847 0.992169 0.369481 -0.089625
C85   C     C_R   0.992167 0.469848 0.630519 -0.089627
C86   C     C_R   0.530153 0.992168 0.630519 -0.089626
C87   C     C_R   0.007833 0.530152 0.630519 -0.089626
C88   C     C_R   0.469847 0.007832 0.630519 -0.089626
H17   H     H_    0.485837 0.053559 0.858196 0.161106
H18   H     H_    0.053559 0.514161 0.858196 0.161106
H19   H     H_    0.514163 0.946441 0.858196 0.161106
H20   H     H_    0.946441 0.485839 0.858196 0.161106
H21   H     H_    0.485834 0.946442 0.141804 0.161107
H22   H     H_    0.053558 0.485834 0.141804 0.161107
H23   H     H_    0.514166 0.053558 0.141804 0.161107
H24   H     H_    0.946442 0.514166 0.141804 0.161106
H25   H     H_    0.985834 0.553558 0.358196 0.161107
H26   H     H_    0.553558 0.014166 0.358196 0.161106
H27   H     H_    0.014166 0.446442 0.358196 0.161107
H28   H     H_    0.446442 0.985834 0.358196 0.161107
H29   H     H_    0.985830 0.446443 0.641804 0.161108
H30   H     H_    0.553557 0.985832 0.641804 0.161108
H31   H     H_    0.014169 0.553557 0.641804 0.161108
H32   H     H_    0.446443 0.014168 0.641804 0.161108
C89   C     C_R   0.492367 0.030226 0.899051 -0.151876
C90   C     C_R   0.030226 0.507632 0.899051 -0.151876
C91   C     C_R   0.507633 0.969774 0.899051 -0.151878
C92   C     C_R   0.969774 0.492368 0.899051 -0.151875
C93   C     C_R   0.492366 0.969774 0.100949 -0.151876
C94   C     C_R   0.030226 0.492366 0.100949 -0.151875
C95   C     C_R   0.507634 0.030226 0.100949 -0.151878
C96   C     C_R   0.969774 0.507634 0.100949 -0.151875
C97   C     C_R   0.992365 0.530226 0.399051 -0.151876
C98   C     C_R   0.530226 0.007634 0.399051 -0.151876
C99   C     C_R   0.007635 0.469774 0.399051 -0.151875
C100  C     C_R   0.469774 0.992366 0.399051 -0.151877
C101  C     C_R   0.992363 0.469775 0.600949 -0.151874
C102  C     C_R   0.530225 0.992364 0.600949 -0.151877
C103  C     C_R   0.007637 0.530225 0.600949 -0.151875
C104  C     C_R   0.469775 0.007636 0.600949 -0.151875
H33   H     H_    0.486200 0.053845 0.910099 0.186130
H34   H     H_    0.053846 0.513799 0.910099 0.186128
H35   H     H_    0.513800 0.946155 0.910099 0.186131
H36   H     H_    0.946154 0.486201 0.910099 0.186128
H37   H     H_    0.486197 0.946155 0.089901 0.186132
H38   H     H_    0.053845 0.486197 0.089900 0.186131
H39   H     H_    0.513803 0.053845 0.089900 0.186133
H40   H     H_    0.946155 0.513803 0.089900 0.186131
H41   H     H_    0.986197 0.553844 0.410099 0.186132
H42   H     H_    0.553845 0.013803 0.410099 0.186132
H43   H     H_    0.013803 0.446155 0.410099 0.186132
H44   H     H_    0.446155 0.986197 0.410099 0.186133
H45   H     H_    0.986193 0.446156 0.589901 0.186135
H46   H     H_    0.553844 0.986195 0.589901 0.186135
H47   H     H_    0.013806 0.553844 0.589901 0.186135
H48   H     H_    0.446156 0.013805 0.589901 0.186134
C105  C     C_R   0.500000 1.000000 0.914127 -0.025564
C106  C     C_R   1.000000 0.500000 0.914127 -0.025557
C107  C     C_R   0.500000 0.000000 0.085873 -0.025567
C108  C     C_R   0.000000 0.500000 0.085873 -0.025563
C109  C     C_R   1.000000 0.500000 0.414127 -0.025566
C110  C     C_R   0.500000 1.000000 0.414127 -0.025566
C111  C     C_R   1.000000 0.500000 0.585873 -0.025569
C112  C     C_R   0.500000 1.000000 0.585873 -0.025569
Cu9   Cu    Cu3+1 0.000000 0.000000 0.971840 0.969456
Cu10  Cu    Cu3+1 0.000000 0.000000 0.028160 0.969456
Cu11  Cu    Cu3+1 0.500000 0.500000 0.471840 0.969456
Cu12  Cu    Cu3+1 0.500000 0.500000 0.528160 0.969456
C113  C     C_R   0.500000 1.000000 0.854480 0.327304
C114  C     C_R   1.000000 0.500000 0.854480 0.327303
C115  C     C_R   0.500000 0.000000 0.145520 0.327302
C116  C     C_R   0.000000 0.500000 0.145520 0.327302
C117  C     C_R   0.000000 0.500000 0.354480 0.327302
C118  C     C_R   0.500000 1.000000 0.354480 0.327301
C119  C     C_R   1.000000 0.500000 0.645520 0.327300
C120  C     C_R   0.500000 1.000000 0.645520 0.327300
C121  C     C_R   0.622629 0.019171 0.020579 0.296799
C122  C     C_R   0.019169 0.377371 0.020581 0.296798
C123  C     C_R   0.377371 0.980831 0.020581 0.296798
C124  C     C_R   0.980831 0.622629 0.020581 0.296797
C125  C     C_R   0.622629 0.980829 0.979421 0.296799
C126  C     C_R   0.019168 0.622629 0.979419 0.296798
C127  C     C_R   0.377371 0.019169 0.979419 0.296799
C128  C     C_R   0.980831 0.377371 0.979419 0.296798
C129  C     C_R   0.122629 0.519169 0.520581 0.296799
C130  C     C_R   0.519170 0.877371 0.520580 0.296799
C131  C     C_R   0.877371 0.480831 0.520580 0.296799
C132  C     C_R   0.480831 0.122629 0.520580 0.296798
C133  C     C_R   0.122629 0.480831 0.479419 0.296798
C134  C     C_R   0.519169 0.122629 0.479419 0.296799
C135  C     C_R   0.877371 0.519169 0.479420 0.296799
C136  C     C_R   0.480830 0.877371 0.479420 0.296799
C137  C     C_R   0.658696 0.019169 0.020129 -0.189013
C138  C     C_R   0.019167 0.341304 0.020131 -0.189012
C139  C     C_R   0.341304 0.980833 0.020130 -0.189012
C140  C     C_R   0.980833 0.658696 0.020131 -0.189011
C141  C     C_R   0.658696 0.980831 0.979871 -0.189012
C142  C     C_R   0.019167 0.658696 0.979869 -0.189012
C143  C     C_R   0.341304 0.019167 0.979869 -0.189012
C144  C     C_R   0.980833 0.341304 0.979869 -0.189012
C145  C     C_R   0.158696 0.519167 0.520131 -0.189012
C146  C     C_R   0.519169 0.841304 0.520130 -0.189013
C147  C     C_R   0.841304 0.480832 0.520130 -0.189012
C148  C     C_R   0.480832 0.158696 0.520130 -0.189012
C149  C     C_R   0.158696 0.480833 0.479869 -0.189012
C150  C     C_R   0.519167 0.158696 0.479870 -0.189012
C151  C     C_R   0.841304 0.519168 0.479870 -0.189012
C152  C     C_R   0.480831 0.841304 0.479870 -0.189012
H49   H     H_    0.672511 0.033854 0.035956 0.202353
H50   H     H_    0.033849 0.327489 0.035959 0.202352
H51   H     H_    0.327489 0.966150 0.035958 0.202353
H52   H     H_    0.966151 0.672511 0.035959 0.202352
H53   H     H_    0.672511 0.966146 0.964044 0.202353
H54   H     H_    0.033849 0.672511 0.964041 0.202352
H55   H     H_    0.327489 0.033850 0.964041 0.202353
H56   H     H_    0.966150 0.327489 0.964041 0.202352
H57   H     H_    0.172511 0.533850 0.535958 0.202352
H58   H     H_    0.533853 0.827488 0.535957 0.202353
H59   H     H_    0.827488 0.466149 0.535958 0.202353
H60   H     H_    0.466149 0.172511 0.535958 0.202353
H61   H     H_    0.172511 0.466150 0.464042 0.202353
H62   H     H_    0.533851 0.172511 0.464042 0.202353
H63   H     H_    0.827488 0.533851 0.464042 0.202353
H64   H     H_    0.466147 0.827488 0.464043 0.202353
C153  C     C_R   0.676974 1.000000 1.000000 -0.078000
C154  C     C_R   1.000000 0.323026 1.000000 -0.078000
C155  C     C_R   0.323026 1.000000 1.000000 -0.078000
C156  C     C_R   1.000000 0.676974 1.000000 -0.078000
C157  C     C_R   0.176974 0.500000 0.500000 -0.078000
C158  C     C_R   0.500000 0.823026 0.500000 -0.078001
C159  C     C_R   0.823026 0.500000 0.500000 -0.078000
C160  C     C_R   0.500000 0.176974 0.500000 -0.078001
C161  C     C_R   0.604260 0.000000 0.000000 -0.264204
C162  C     C_R   1.000000 0.395740 1.000000 -0.264202
C163  C     C_R   0.395740 1.000000 1.000000 -0.264202
C164  C     C_R   1.000000 0.604260 1.000000 -0.264202
C165  C     C_R   0.104260 0.500000 0.500000 -0.264202
C166  C     C_R   0.500000 0.895740 0.500000 -0.264203
C167  C     C_R   0.895740 0.500000 0.500000 -0.264202
C168  C     C_R   0.500000 0.104260 0.500000 -0.264203
N9    N     N_R   0.732926 0.987596 0.977486 -0.219363
N10   N     N_R   0.987604 0.267075 0.977483 -0.219361
N11   N     N_R   0.267075 0.012397 0.977484 -0.219362
N12   N     N_R   0.012395 0.732925 0.977483 -0.219362
N13   N     N_R   0.732926 0.012404 0.022514 -0.219363
N14   N     N_R   0.987604 0.732925 0.022517 -0.219361
N15   N     N_R   0.267074 0.987603 0.022516 -0.219361
N16   N     N_R   0.012396 0.267075 0.022517 -0.219361
N17   N     N_R   0.232925 0.487602 0.477484 -0.219362
N18   N     N_R   0.487598 0.767074 0.477485 -0.219362
N19   N     N_R   0.767074 0.512399 0.477484 -0.219362
N20   N     N_R   0.512398 0.232925 0.477484 -0.219362
N21   N     N_R   0.232925 0.512397 0.522516 -0.219362
N22   N     N_R   0.487601 0.232925 0.522516 -0.219362
N23   N     N_R   0.767074 0.487601 0.522516 -0.219362
N24   N     N_R   0.512402 0.767074 0.522515 -0.219362
N25   N     N_R   0.767180 0.987664 0.977460 -0.226804
N26   N     N_R   0.987671 0.232821 0.977457 -0.226805
N27   N     N_R   0.232821 0.012330 0.977458 -0.226805
N28   N     N_R   0.012328 0.767179 0.977457 -0.226806
N29   N     N_R   0.767180 0.012336 0.022540 -0.226805
N30   N     N_R   0.987672 0.767179 0.022543 -0.226805
N31   N     N_R   0.232820 0.987670 0.022542 -0.226805
N32   N     N_R   0.012329 0.232821 0.022543 -0.226806
N33   N     N_R   0.267179 0.487670 0.477458 -0.226806
N34   N     N_R   0.487666 0.732820 0.477459 -0.226804
N35   N     N_R   0.732820 0.512331 0.477458 -0.226806
N36   N     N_R   0.512331 0.267180 0.477458 -0.226805
N37   N     N_R   0.267179 0.512330 0.522542 -0.226805
N38   N     N_R   0.487669 0.267180 0.522542 -0.226806
N39   N     N_R   0.732820 0.487669 0.522542 -0.226805
N40   N     N_R   0.512334 0.732820 0.522541 -0.226804
C169  C     C_R   0.785025 1.000000 0.000000 0.408277
C170  C     C_R   1.000000 0.214976 1.000000 0.408279
C171  C     C_R   0.214976 1.000000 1.000000 0.408278
C172  C     C_R   1.000000 0.785024 1.000000 0.408278
C173  C     C_R   0.285024 0.500000 0.500000 0.408278
C174  C     C_R   0.500000 0.714975 0.500000 0.408277
C175  C     C_R   0.714975 0.500000 0.500000 0.408279
C176  C     C_R   0.500000 0.285024 0.500000 0.408278
C177  C     C_R   0.715072 1.000000 0.000000 0.468712
C178  C     C_R   1.000000 0.284928 1.000000 0.468711
C179  C     C_R   0.284928 1.000000 1.000000 0.468712
C180  C     C_R   1.000000 0.715072 1.000000 0.468711
C181  C     C_R   0.215072 0.500000 0.500000 0.468712
C182  C     C_R   0.500000 0.784928 0.500000 0.468711
C183  C     C_R   0.784928 0.500000 0.500000 0.468712
C184  C     C_R   0.500000 0.215072 0.500000 0.468712
C185  C     C_R   0.841463 0.006218 0.025118 -0.140543
C186  C     C_R   0.006211 0.158537 0.025119 -0.140546
C187  C     C_R   0.158537 0.993787 0.025119 -0.140546
C188  C     C_R   0.993789 0.841463 0.025119 -0.140546
C189  C     C_R   0.841463 0.993782 0.974882 -0.140543
C190  C     C_R   0.006211 0.841463 0.974881 -0.140546
C191  C     C_R   0.158537 0.006213 0.974881 -0.140545
C192  C     C_R   0.993788 0.158537 0.974881 -0.140547
C193  C     C_R   0.341463 0.506213 0.525119 -0.140546
C194  C     C_R   0.506216 0.658537 0.525119 -0.140545
C195  C     C_R   0.658537 0.493786 0.525119 -0.140545
C196  C     C_R   0.493786 0.341463 0.525119 -0.140545
C197  C     C_R   0.341463 0.493786 0.474881 -0.140545
C198  C     C_R   0.506214 0.341463 0.474881 -0.140545
C199  C     C_R   0.658537 0.506214 0.474881 -0.140547
C200  C     C_R   0.493784 0.658537 0.474881 -0.140545
H65   H     H_    0.828097 0.010989 0.044846 0.161046
H66   H     H_    0.010978 0.171903 0.044848 0.161047
H67   H     H_    0.171903 0.989019 0.044847 0.161048
H68   H     H_    0.989024 0.828096 0.044848 0.161047
H69   H     H_    0.828097 0.989011 0.955154 0.161046
H70   H     H_    0.010976 0.828096 0.955152 0.161047
H71   H     H_    0.171903 0.010981 0.955152 0.161047
H72   H     H_    0.989022 0.171903 0.955152 0.161048
H73   H     H_    0.328097 0.510981 0.544847 0.161048
H74   H     H_    0.510986 0.671903 0.544847 0.161047
H75   H     H_    0.671903 0.489017 0.544847 0.161047
H76   H     H_    0.489018 0.328097 0.544847 0.161047
H77   H     H_    0.328097 0.489019 0.455152 0.161047
H78   H     H_    0.510982 0.328097 0.455153 0.161047
H79   H     H_    0.671903 0.510983 0.455153 0.161048
H80   H     H_    0.489014 0.671903 0.455153 0.161047
C201  C     C_R   0.877397 0.006044 0.025144 -0.171980
C202  C     C_R   0.006038 0.122604 0.025145 -0.171979
C203  C     C_R   0.122604 0.993960 0.025145 -0.171978
C204  C     C_R   0.993963 0.877396 0.025145 -0.171979
C205  C     C_R   0.877396 0.993956 0.974856 -0.171980
C206  C     C_R   0.006037 0.877396 0.974855 -0.171979
C207  C     C_R   0.122604 0.006040 0.974855 -0.171979
C208  C     C_R   0.993962 0.122604 0.974855 -0.171978
C209  C     C_R   0.377396 0.506039 0.525145 -0.171978
C210  C     C_R   0.506042 0.622603 0.525144 -0.171979
C211  C     C_R   0.622603 0.493959 0.525145 -0.171979
C212  C     C_R   0.493960 0.377396 0.525145 -0.171979
C213  C     C_R   0.377396 0.493960 0.474855 -0.171979
C214  C     C_R   0.506040 0.377396 0.474855 -0.171979
C215  C     C_R   0.622603 0.506040 0.474855 -0.171977
C216  C     C_R   0.493958 0.622603 0.474855 -0.171979
H81   H     H_    0.890810 0.010862 0.044846 0.159691
H82   H     H_    0.010851 0.109190 0.044848 0.159693
H83   H     H_    0.109190 0.989146 0.044847 0.159692
H84   H     H_    0.989151 0.890810 0.044848 0.159694
H85   H     H_    0.890810 0.989138 0.955154 0.159691
H86   H     H_    0.010849 0.890810 0.955152 0.159694
H87   H     H_    0.109190 0.010854 0.955152 0.159693
H88   H     H_    0.989149 0.109190 0.955152 0.159694
H89   H     H_    0.390810 0.510854 0.544848 0.159693
H90   H     H_    0.510859 0.609190 0.544847 0.159692
H91   H     H_    0.609190 0.489144 0.544847 0.159692
H92   H     H_    0.489145 0.390810 0.544847 0.159693
H93   H     H_    0.390810 0.489146 0.455152 0.159693
H94   H     H_    0.510855 0.390810 0.455153 0.159693
H95   H     H_    0.609190 0.510856 0.455153 0.159692
H96   H     H_    0.489141 0.609190 0.455153 0.159692
C217  C     C_R   0.895728 0.000000 0.000000 -0.040437
C218  C     C_R   1.000000 0.104272 0.000000 -0.040440
C219  C     C_R   0.104272 0.000000 0.000000 -0.040440
C220  C     C_R   1.000000 0.895728 0.000000 -0.040440
C221  C     C_R   0.395728 0.500000 0.500000 -0.040440
C222  C     C_R   0.500000 0.604272 0.500000 -0.040439
C223  C     C_R   0.604272 0.500000 0.500000 -0.040440
C224  C     C_R   0.500000 0.395728 0.500000 -0.040440
C225  C     C_R   0.823095 1.000000 0.000000 0.052043
C226  C     C_R   1.000000 0.176905 1.000000 0.052044
C227  C     C_R   0.176905 1.000000 1.000000 0.052043
C228  C     C_R   1.000000 0.823094 0.000000 0.052043
C229  C     C_R   0.323095 0.500000 0.500000 0.052043
C230  C     C_R   0.500000 0.676905 0.500000 0.052043
C231  C     C_R   0.676905 0.500000 0.500000 0.052043
C232  C     C_R   0.500000 0.323095 0.500000 0.052043
O49   O     O_R   0.000030 0.049790 0.976210 -0.582860
O50   O     O_R   0.049790 0.999970 0.976210 -0.582860
O51   O     O_R   0.999970 0.950210 0.976210 -0.582861
O52   O     O_R   0.950210 0.000030 0.976210 -0.582859
O53   O     O_R   0.000030 0.950210 0.023790 -0.582861
O54   O     O_R   0.049790 0.000030 0.023790 -0.582861
O55   O     O_R   0.999970 0.049790 0.023790 -0.582862
O56   O     O_R   0.950210 0.999970 0.023790 -0.582859
O57   O     O_R   0.500030 0.549790 0.476210 -0.582860
O58   O     O_R   0.549790 0.499970 0.476210 -0.582860
O59   O     O_R   0.499970 0.450210 0.476210 -0.582860
O60   O     O_R   0.450210 0.500030 0.476210 -0.582860
O61   O     O_R   0.500030 0.450210 0.523790 -0.582861
O62   O     O_R   0.549790 0.500030 0.523790 -0.582861
O63   O     O_R   0.499970 0.549790 0.523790 -0.582860
O64   O     O_R   0.450210 0.499970 0.523790 -0.582860
C233  C     C_R   1.000000 0.066262 0.000000 0.793127
C234  C     C_R   0.066262 0.000000 0.000000 0.793127
C235  C     C_R   1.000000 0.933738 0.000000 0.793129
C236  C     C_R   0.933738 0.000000 0.000000 0.793127
C237  C     C_R   0.500000 0.566262 0.500000 0.793126
C238  C     C_R   0.566262 0.500000 0.500000 0.793127
C239  C     C_R   0.500000 0.433738 0.500000 0.793128
C240  C     C_R   0.433738 0.500000 0.500000 0.793128
N41   N     N_R   0.605222 0.037821 0.042647 0.136845
O65   O     O_R   0.618187 0.066390 0.052265 -0.326557
O66   O     O_R   0.579491 0.023936 0.056045 -0.383508
N42   N     N_R   0.037817 0.394778 0.042649 0.136843
O67   O     O_R   0.066384 0.381813 0.052270 -0.326558
O68   O     O_R   0.023931 0.420510 0.056046 -0.383512
N43   N     N_R   0.394778 0.962182 0.042649 0.136843
O69   O     O_R   0.381813 0.933615 0.052269 -0.326557
O70   O     O_R   0.420510 0.976068 0.056046 -0.383510
N44   N     N_R   0.962183 0.605222 0.042649 0.136843
O71   O     O_R   0.933616 0.618187 0.052270 -0.326558
O72   O     O_R   0.976069 0.579490 0.056046 -0.383512
N45   N     N_R   0.605222 0.962179 0.957353 0.136844
O73   O     O_R   0.618187 0.933610 0.947735 -0.326556
O74   O     O_R   0.579490 0.976064 0.943955 -0.383506
N46   N     N_R   0.037817 0.605222 0.957350 0.136843
O75   O     O_R   0.066384 0.618187 0.947730 -0.326556
O76   O     O_R   0.023931 0.579490 0.943954 -0.383510
N47   N     N_R   0.394778 0.037818 0.957351 0.136843
O77   O     O_R   0.381813 0.066385 0.947731 -0.326557
O78   O     O_R   0.420510 0.023932 0.943954 -0.383509
N48   N     N_R   0.962183 0.394778 0.957351 0.136842
O79   O     O_R   0.933616 0.381813 0.947730 -0.326556
O80   O     O_R   0.976069 0.420510 0.943954 -0.383509
N49   N     N_R   0.105222 0.537818 0.542649 0.136842
O81   O     O_R   0.118187 0.566385 0.552269 -0.326558
O82   O     O_R   0.079490 0.523932 0.556046 -0.383514
N50   N     N_R   0.537820 0.894778 0.542647 0.136843
O83   O     O_R   0.566388 0.881813 0.552266 -0.326557
O84   O     O_R   0.523935 0.920509 0.556045 -0.383510
N51   N     N_R   0.894778 0.462182 0.542648 0.136843
O85   O     O_R   0.881813 0.433614 0.552268 -0.326558
O86   O     O_R   0.920510 0.476067 0.556046 -0.383513
N52   N     N_R   0.462182 0.105222 0.542649 0.136844
O87   O     O_R   0.433614 0.118187 0.552268 -0.326558
O88   O     O_R   0.476067 0.079490 0.556046 -0.383512
N53   N     N_R   0.105222 0.462182 0.457351 0.136844
O89   O     O_R   0.118187 0.433615 0.447731 -0.326557
O90   O     O_R   0.079490 0.476068 0.443954 -0.383512
N54   N     N_R   0.537818 0.105222 0.457351 0.136843
O91   O     O_R   0.566386 0.118187 0.447732 -0.326557
O92   O     O_R   0.523933 0.079490 0.443954 -0.383510
N55   N     N_R   0.894778 0.537818 0.457351 0.136844
O93   O     O_R   0.881813 0.566386 0.447732 -0.326557
O94   O     O_R   0.920510 0.523933 0.443954 -0.383510
N56   N     N_R   0.462180 0.894778 0.457352 0.136845
O95   O     O_R   0.433612 0.881813 0.447734 -0.326557
O96   O     O_R   0.476065 0.920509 0.443955 -0.383509

loop_
_geom_bond_atom_site_label_1
_geom_bond_atom_site_label_2
_geom_bond_distance
_ccdc_geom_bond_type
C202  H82   1.082953 S    
N43   O69   1.301386 A    
C174  C230  1.479892 S    
C77   C115  1.403034 A    
Cu10  O54   1.946451 S    
O25   C13   1.293654 A    
Cu11  O59   1.946455 S    
N55   O93   1.301382 A    
C192  H72   1.082802 S    
N50   O83   1.301387 A    
C186  C226  1.405546 A    
C205  C217  1.404703 A    
C134  C168  1.417706 A    
C149  H61   1.083039 S    
Cu9   O52   1.946455 S    
N27   C171  1.358072 A    
C87   C119  1.403034 A    
C188  H68   1.082804 S    
N13   N29   1.331556 A    
C122  C138  1.402206 A    
C38   C62   1.405500 A    
C200  H80   1.082807 S    
C135  N55   1.438631 S    
O18   Cu2   1.950667 S    
O51   C235  1.293206 A    
C8    C168  1.475697 S    
C201  C217  1.404698 A    
C198  C214  1.396853 A    
C130  C166  1.417702 A    
C210  H90   1.082954 S    
Cu12  O63   1.946451 S    
C74   H18   1.082809 S    
C206  C220  1.404699 A    
C148  C160  1.401375 A    
C201  H81   1.082952 S    
O24   Cu4   1.950662 S    
C94   H38   1.082932 S    
C128  N48   1.438625 S    
N10   C178  1.358205 A    
Cu1   Cu3   2.662783 S    
C80   H24   1.082815 S    
Cu2   Cu4   2.662783 S    
C17   C35   1.405462 A    
C193  C229  1.405545 A    
C104  H48   1.082931 S    
C154  C178  1.480999 S    
C10   C106  1.476586 S    
O57   C237  1.293206 A    
C19   N1    1.372314 A    
C133  N53   1.438632 S    
C44   C54   1.407978 A    
C98   C110  1.405537 A    
C32   C46   1.405462 A    
C160  C184  1.481003 S    
C202  C218  1.404692 A    
C46   C56   1.407979 A    
C23   C37   1.405462 A    
C149  C157  1.401374 A    
C126  C142  1.402210 A    
C216  C222  1.404699 A    
C17   N1    1.372314 A    
N26   C170  1.358071 A    
C138  C154  1.401374 A    
N32   C170  1.358071 A    
N11   N27   1.331552 A    
C41   C65   1.405498 A    
C170  C226  1.479895 S    
C25   N5    1.372312 A    
N13   C177  1.358207 A    
N29   C169  1.358073 A    
O17   C9    1.293654 A    
C200  C216  1.396857 A    
C47   C71   1.405498 A    
N6    C115  1.441608 S    
C22   C40   1.405462 A    
C75   C113  1.403032 A    
C208  C218  1.404697 A    
C210  C222  1.404694 A    
C79   C115  1.403032 A    
C86   C102  1.396567 A    
O52   C236  1.293206 A    
C203  C219  1.404693 A    
Cu11  Cu12  2.659907 S    
C69   H13   1.083052 S    
N56   O95   1.301387 A    
O13   C5    1.291907 A    
C190  C206  1.396857 A    
C44   C68   1.405498 A    
O7    Cu1   1.952295 S    
O50   C234  1.293206 A    
C85   C119  1.403033 A    
O7    C3    1.291908 A    
C48   C56   1.407979 A    
C123  C139  1.402206 A    
C57   C70   1.396319 A    
Cu11  O57   1.946451 S    
C189  H69   1.082810 S    
C102  H46   1.082931 S    
C135  C151  1.402206 A    
C59   C72   1.396319 A    
O6    C4    1.291908 A    
O31   C15   1.293654 A    
C187  C227  1.405549 A    
C25   C43   1.405462 A    
C15   C111  1.476586 S    
C41   C53   1.407981 A    
C147  C159  1.401379 A    
Cu10  O56   1.946455 S    
C88   C104  1.396567 A    
C29   C47   1.405462 A    
C81   C117  1.403033 A    
C134  N54   1.438629 S    
C31   C45   1.405462 A    
C129  N49   1.438626 S    
C14   C110  1.476586 S    
C191  C207  1.396853 A    
N22   C184  1.358207 A    
C193  H73   1.082803 S    
C217  C236  1.477579 S    
C189  C205  1.396853 A    
N49   O82   1.300874 A    
C75   C91   1.396562 A    
C125  C161  1.417706 A    
C122  C162  1.417703 A    
N39   C175  1.358073 A    
N48   O79   1.301386 A    
O11   C7    1.291907 A    
C92   H36   1.082933 S    
C203  H83   1.082956 S    
N44   O72   1.300875 A    
C42   C66   1.405498 A    
N52   O87   1.301385 A    
C185  C201  1.396853 A    
N33   C173  1.358070 A    
C131  N51   1.438629 S    
O4    C4    1.291905 A    
C76   C114  1.403037 A    
N20   C184  1.358202 A    
O5    C1    1.291907 A    
O59   C239  1.293206 A    
C30   O46   1.349383 S    
O5    Cu3   1.952292 S    
C150  C160  1.401373 A    
C144  C154  1.401376 A    
C93   C107  1.405540 A    
C132  C148  1.402206 A    
O53   C235  1.293202 A    
C139  C155  1.401376 A    
C142  H54   1.083037 S    
N9    C177  1.358209 A    
C12   C108  1.476586 S    
C129  C145  1.402206 A    
C45   C55   1.407984 A    
C31   N7    1.372314 A    
C199  C231  1.405544 A    
C74   C90   1.396567 A    
C90   H34   1.082933 S    
C197  C229  1.405549 A    
N10   N26   1.331556 A    
C103  H47   1.082931 S    
C89   H33   1.082933 S    
N47   O78   1.300875 A    
C190  H70   1.082803 S    
Cu9   O49   1.946451 S    
N21   N37   1.331552 A    
C70   H14   1.083057 S    
O14   C8    1.291910 A    
C195  C211  1.396853 A    
C42   C54   1.407978 A    
N1    C120  1.441608 S    
C21   C39   1.405462 A    
N42   O67   1.301386 A    
N20   N36   1.331556 A    
O17   Cu1   1.950667 S    
C175  C231  1.479895 S    
Cu12  O62   1.946451 S    
C80   C116  1.403034 A    
O28   C14   1.293650 A    
O26   C14   1.293654 A    
C173  C229  1.479892 S    
O29   C15   1.293650 A    
O8    Cu4   1.952295 S    
O30   C16   1.293654 A    
N16   N32   1.331556 A    
N14   C180  1.358207 A    
C150  H62   1.083036 S    
C185  C225  1.405542 A    
O63   C237  1.293202 A    
C73   C113  1.403036 A    
C45   C69   1.405500 A    
O61   C239  1.293202 A    
N37   C173  1.358075 A    
C212  H92   1.082952 S    
O19   Cu3   1.950667 S    
Cu12  O61   1.946455 S    
C191  C227  1.405545 A    
C186  C202  1.396857 A    
C24   N4    1.372314 A    
C33   C57   1.405498 A    
C124  C140  1.402206 A    
C155  C179  1.481003 S    
C213  H93   1.082952 S    
C208  H88   1.082952 S    
C209  H89   1.082956 S    
O56   C236  1.293202 A    
C218  C233  1.477582 S    
N15   C179  1.358208 A    
C26   C44   1.405462 A    
C16   C112  1.476586 S    
C76   H20   1.082812 S    
C221  C240  1.477582 S    
C145  C157  1.401376 A    
C100  H44   1.082935 S    
C30   C48   1.405462 A    
C158  C182  1.480999 S    
C37   C51   1.407978 A    
C187  C203  1.396853 A    
C98   H42   1.082935 S    
N14   N30   1.331556 A    
C28   C42   1.405462 A    
N51   O85   1.301386 A    
N18   N34   1.331552 A    
C81   C97   1.396562 A    
C95   H39   1.082931 S    
O6    Cu2   1.952292 S    
O3    C3    1.291905 A    
N53   O90   1.300873 A    
N36   C176  1.358073 A    
C169  C225  1.479895 S    
C61   C66   1.396319 A    
N41   O66   1.300874 A    
C83   H27   1.082813 S    
C29   N7    1.372309 A    
N23   N39   1.331556 A    
C18   N2    1.372313 A    
O21   Cu3   1.950662 S    
Cu10  O55   1.946451 S    
C198  C232  1.405547 A    
C195  H75   1.082807 S    
C220  C235  1.477582 S    
C101  C111  1.405536 A    
N50   O84   1.300875 A    
C9    C105  1.476586 S    
C84   C100  1.396562 A    
Cu9   O51   1.946455 S    
C92   C106  1.405543 A    
O12   C8    1.291907 A    
C197  H77   1.082806 S    
C121  N41   1.438629 S    
C84   C118  1.403034 A    
O11   Cu7   1.952295 S    
C13   C109  1.476586 S    
C32   N8    1.372311 A    
C187  H67   1.082803 S    
C82   C118  1.403031 A    
C213  C221  1.404701 A    
C46   C70   1.405495 A    
C23   N3    1.372315 A    
O49   C233  1.293206 A    
C52   C53   1.414013 A    
N45   O74   1.300876 A    
C34   C58   1.405498 A    
C2    C162  1.475701 S    
C131  C147  1.402206 A    
C82   H26   1.082815 S    
C57   H1    1.083054 S    
O29   Cu7   1.950662 S    
C145  H57   1.083039 S    
N46   O75   1.301386 A    
O64   C240  1.293202 A    
C87   C103  1.396567 A    
C132  C168  1.417702 A    
C61   H5    1.083057 S    
C171  C227  1.479892 S    
N2    C119  1.441608 S    
C172  C228  1.479895 S    
C190  C228  1.405544 A    
C159  C183  1.480999 S    
C209  C221  1.404692 A    
C200  C230  1.405542 A    
C206  H86   1.082952 S    
C34   C50   1.407978 A    
C151  C159  1.401374 A    
C219  C234  1.477582 S    
N17   N33   1.331552 A    
C224  C239  1.477579 S    
O10   C6    1.291910 A    
C204  C220  1.404695 A    
O15   Cu5   1.952295 S    
C121  C137  1.402206 A    
N18   C182  1.358206 A    
C37   C61   1.405498 A    
C195  C231  1.405545 A    
C212  C224  1.404699 A    
C39   C63   1.405500 A    
C130  N50   1.438626 S    
C50   C55   1.414008 A    
C156  C180  1.480999 S    
C91   H35   1.082933 S    
N54   O91   1.301385 A    
C140  C156  1.401375 A    
N3    C118  1.441608 S    
C65   H9    1.083054 S    
C28   O44   1.349386 S    
C36   C50   1.407978 A    
C136  C152  1.402206 A    
C93   H37   1.082929 S    
O32   Cu8   1.950662 S    
C86   H30   1.082812 S    
N56   O96   1.300870 A    
C143  H55   1.083039 S    
C63   C68   1.396319 A    
O58   C238  1.293206 A    
C38   C52   1.407976 A    
C153  C177  1.481003 S    
C130  C146  1.402206 A    
C214  H94   1.082951 S    
C97   C109  1.405535 A    
O22   Cu2   1.950662 S    
O21   C11   1.293650 A    
Cu10  O53   1.946455 S    
C28   N6    1.372310 A    
C60   C71   1.396319 A    
O22   C12   1.293654 A    
Cu11  O60   1.946455 S    
C6    C166  1.475701 S    
C211  C223  1.404697 A    
O16   Cu8   1.952295 S    
O23   Cu1   1.950662 S    
C24   C38   1.405462 A    
N35   C175  1.358068 A    
C76   C92   1.396562 A    
C19   O35   1.349384 S    
C26   N6    1.372315 A    
C18   O34   1.349385 S    
C136  N56   1.438631 S    
C79   C95   1.396562 A    
N31   C171  1.358073 A    
C134  C150  1.402206 A    
C78   C116  1.403032 A    
C68   H12   1.083054 S    
O3    Cu3   1.952295 S    
N44   O71   1.301386 A    
C78   H22   1.082811 S    
C1    C161  1.475701 S    
C30   N8    1.372316 A    
N24   N40   1.331552 A    
O8    C2    1.291905 A    
O60   C240  1.293206 A    
C94   C108  1.405538 A    
N11   C179  1.358203 A    
C102  C112  1.405536 A    
N47   O77   1.301386 A    
N49   O81   1.301390 A    
C83   C117  1.403036 A    
C85   C101  1.396567 A    
C27   N5    1.372317 A    
N43   O70   1.300872 A    
N48   O80   1.300875 A    
O30   Cu6   1.950662 S    
C151  H63   1.083042 S    
C198  H78   1.082806 S    
C141  C153  1.401375 A    
C125  N45   1.438625 S    
C127  C143  1.402206 A    
N52   O88   1.300872 A    
C204  H84   1.082951 S    
C80   C96   1.396562 A    
C40   C52   1.407976 A    
C3    C163  1.475701 S    
C216  H96   1.082954 S    
N51   O86   1.300872 A    
C152  H64   1.083040 S    
C58   C69   1.396319 A    
N17   C181  1.358206 A    
C4    C164  1.475701 S    
C5    C165  1.475697 S    
O9    Cu5   1.952292 S    
C7    C167  1.475697 S    
C22   O38   1.349381 S    
O16   C6    1.291907 A    
C196  C212  1.396853 A    
O1    C1    1.291910 A    
C194  C210  1.396857 A    
O62   C238  1.293202 A    
C11   C107  1.476586 S    
C19   C33   1.405462 A    
N38   C176  1.358070 A    
C25   O41   1.349381 S    
C192  C208  1.396857 A    
C126  C164  1.417701 A    
C193  C209  1.396853 A    
N30   C172  1.358074 A    
C137  H49   1.083040 S    
C67   H11   1.083057 S    
C78   C94   1.396562 A    
C99   C109  1.405540 A    
C191  H71   1.082807 S    
O31   Cu5   1.950662 S    
C147  H59   1.083038 S    
C222  C237  1.477579 S    
C36   C60   1.405500 A    
C43   C67   1.405500 A    
O18   C10   1.293654 A    
C199  C215  1.396853 A    
N34   C174  1.358074 A    
C135  C167  1.417702 A    
C128  C144  1.402210 A    
C49   C56   1.414013 A    
N12   N28   1.331556 A    
C197  C213  1.396853 A    
C40   C64   1.405500 A    
C129  C165  1.417705 A    
C51   C54   1.414013 A    
N42   O68   1.300873 A    
C35   C49   1.407978 A    
C73   H17   1.082812 S    
C33   C49   1.407978 A    
Cu11  O58   1.946451 S    
C127  C163  1.417703 A    
C77   H21   1.082815 S    
O13   Cu7   1.952292 S    
C124  C164  1.417705 A    
C194  C230  1.405545 A    
C133  C165  1.417704 A    
O2    C2    1.291908 A    
O25   Cu5   1.950667 S    
O23   C11   1.293654 A    
C199  H79   1.082803 S    
N8    C113  1.441608 S    
N45   O73   1.301382 A    
N54   O92   1.300875 A    
C139  H51   1.083039 S    
C21   N3    1.372312 A    
C140  H52   1.083040 S    
C89   C105  1.405536 A    
O4    Cu4   1.952292 S    
O28   Cu8   1.950667 S    
C192  C226  1.405542 A    
N9    N25   1.331556 A    
C31   O47   1.349384 S    
O54   C234  1.293202 A    
C137  C153  1.401376 A    
C32   O48   1.349383 S    
C123  C163  1.417705 A    
C133  C149  1.402206 A    
N16   C178  1.358206 A    
C146  H58   1.083040 S    
N19   N35   1.331556 A    
C27   C41   1.405462 A    
C188  C204  1.396857 A    
C142  C156  1.401373 A    
C84   H28   1.082815 S    
C20   N2    1.372313 A    
C62   H6    1.083057 S    
O32   C16   1.293650 A    
N19   C183  1.358205 A    
Cu12  O64   1.946455 S    
C90   C106  1.405538 A    
C20   C34   1.405462 A    
C87   H31   1.082812 S    
N25   C169  1.358076 A    
N24   C182  1.358210 A    
C88   H32   1.082811 S    
O55   C233  1.293202 A    
N12   C180  1.358202 A    
C207  H87   1.082952 S    
N4    C117  1.441608 S    
C83   C99   1.396562 A    
O2    Cu2   1.952295 S    
N53   O89   1.301385 A    
C43   C53   1.407974 A    
C95   C107  1.405538 A    
C196  C232  1.405544 A    
C23   O39   1.349383 S    
O15   C7    1.291910 A    
C127  N47   1.438626 S    
C79   H23   1.082815 S    
C74   C114  1.403032 A    
C59   H3    1.083056 S    
N28   C172  1.358068 A    
C186  H66   1.082803 S    
C73   C89   1.396562 A    
C157  C181  1.481003 S    
C39   C51   1.407976 A    
Cu5   Cu7   2.662783 S    
C71   H15   1.083055 S    
Cu6   Cu8   2.662783 S    
C72   H16   1.083055 S    
C47   C55   1.407979 A    
O27   Cu7   1.950667 S    
C104  C112  1.405539 A    
C136  C166  1.417701 A    
C66   H10   1.083057 S    
N40   C174  1.358076 A    
C60   H4    1.083056 S    
N23   C183  1.358207 A    
Cu9   O50   1.946451 S    
C223  C238  1.477579 S    
C24   O40   1.349383 S    
C125  C141  1.402206 A    
C122  N42   1.438631 S    
C138  H50   1.083039 S    
C146  C158  1.401376 A    
C131  C167  1.417707 A    
C144  H56   1.083039 S    
C143  C155  1.401373 A    
N7    C114  1.441613 S    
C99   H43   1.082932 S    
C18   C36   1.405462 A    
O19   C9    1.293650 A    
C97   H41   1.082932 S    
C215  H95   1.082956 S    
C82   C98   1.396562 A    
C188  C228  1.405541 A    
Cu9   Cu10  2.659907 S    
O24   C12   1.293650 A    
C124  N44   1.438632 S    
N55   O94   1.300872 A    
N15   N31   1.331552 A    
C207  C219  1.404700 A    
C62   C65   1.396319 A    
O12   Cu8   1.952292 S    
C121  C161  1.417699 A    
O14   Cu6   1.952292 S    
C58   H2    1.083059 S    
N46   O76   1.300874 A    
C96   H40   1.082931 S    
C123  N43   1.438630 S    
C20   O36   1.349385 S    
C96   C108  1.405540 A    
C152  C158  1.401378 A    
O9    C5    1.291910 A    
N22   N38   1.331556 A    
C91   C105  1.405540 A    
N5    C116  1.441608 S    
C29   O45   1.349384 S    
C22   N4    1.372315 A    
C205  H85   1.082953 S    
C48   C72   1.405500 A    
C27   O43   1.349383 S    
C176  C232  1.479895 S    
C194  H74   1.082807 S    
C214  C224  1.404703 A    
O26   Cu6   1.950667 S    
C63   H7    1.083052 S    
C141  H53   1.083043 S    
C88   C120  1.403036 A    
C132  N52   1.438632 S    
C85   H29   1.082808 S    
C64   H8    1.083054 S    
C215  C223  1.404700 A    
O20   Cu4   1.950667 S    
C128  C162  1.417704 A    
O1    Cu1   1.952292 S    
C211  H91   1.082956 S    
O20   C10   1.293650 A    
C148  H60   1.083040 S    
C35   C59   1.405498 A    
N41   O65   1.301384 A    
O10   Cu6   1.952295 S    
C77   C93   1.396562 A    
C17   O33   1.349384 S    
C75   H19   1.082812 S    
C101  H45   1.082931 S    
C103  C111  1.405533 A    
C126  N46   1.438627 S    
C21   O37   1.349383 S    
C86   C120  1.403033 A    
C26   O42   1.349386 S    
N21   C181  1.358205 A    
C81   H25   1.082813 S    
C189  C225  1.405546 A    
C64   C67   1.396319 A    
C100  C110  1.405540 A    
C185  H65   1.082811 S    
C196  H76   1.082806 S    
O27   C13   1.293650 A    
