data_mof_unit_59217.cif
_audit_creation_date              2012-12-11T14:48:09-0500
_audit_creation_method            fapswitch 2.2
_symmetry_space_group_name_H-M    P1
_symmetry_Int_Tables_number       1
_space_group_crystal_system       triclinic
_cell_length_a                    11.457891
_cell_length_b                    11.567841
_cell_length_c                    19.442469
_cell_angle_alpha                 90.460046
_cell_angle_beta                  89.736975
_cell_angle_gamma                 59.45507
_cell_volume                      2219.17728664

loop_
_atom_site_label
_atom_site_type_symbol
_atom_type_description
_atom_site_fract_x
_atom_site_fract_y
_atom_site_fract_z
_atom_type_partial_charge
C1    C     C_R   0.641853 0.118619 0.598620 0.545827
C2    C     C_1   0.663570 0.160287 0.664431 -0.010685
C3    C     C_R   0.604938 0.583084 0.318822 0.228715
C4    C     C_R   0.614647 0.742401 0.597673 0.534504
C5    C     C_R   0.603847 0.567944 0.247832 0.256907
C6    C     C_R   0.705380 0.569876 0.207292 -0.046487
C7    C     C_R   0.804632 0.588641 0.238935 -0.184454
C8    C     C_R   0.792445 0.624691 0.308330 0.076585
C9    C     C_R   0.680155 0.638362 0.345895 -0.014512
C10   C     C_R   0.203344 0.264930 0.294127 -0.130841
C11   C     C_R   0.180413 0.279095 0.225049 -0.138259
C12   C     C_1   0.653486 0.680852 0.663489 -0.006733
C13   C     C_R   0.148249 0.193384 0.190506 0.033549
C14   C     C_R   0.150608 0.085539 0.224883 -0.139582
C15   C     C_R   0.178296 0.068527 0.294716 -0.145829
C16   C     C_R   0.239428 0.146185 0.597729 0.547153
C17   C     C_R   0.201560 0.160561 0.329912 0.031884
C18   C     C_R   0.732351 0.010702 0.281312 -0.140485
C19   C     C_R   0.748982 0.040546 0.214619 -0.131408
C20   C     C_R   0.661291 0.168847 0.187500 0.026132
C21   C     C_R   0.546124 0.259291 0.224920 -0.113121
C22   C     C_R   0.529796 0.229932 0.292405 -0.127391
C23   C     C_1   0.127542 0.198455 0.859416 0.004372
C24   C     C_R   0.627057 0.107591 0.321994 0.016552
C25   C     C_R   0.082845 0.230753 0.928876 0.535324
C26   C     C_R   0.710524 0.544560 0.922518 0.539272
C27   C     C_R   0.741923 0.231676 0.922774 0.539280
C28   C     C_R   0.618293 0.079716 0.394490 0.560625
C29   C     C_R   0.085081 0.234689 0.124297 0.543190
C30   C     C_R   0.711247 0.546782 0.132975 0.596111
C31   C     C_R   0.704779 0.208378 0.125350 0.560345
C32   C     C_R   0.622806 0.730266 0.405082 0.554604
C33   C     C_R   0.247273 0.139561 0.400354 0.535134
C34   C     C_1   0.169375 0.171327 0.727409 -0.032051
C35   C     C_1   0.701323 0.577768 0.851328 -0.003112
C36   C     C_1   0.675616 0.641150 0.721610 -0.031290
C37   C     C_1   0.692044 0.604864 0.791283 -0.030169
C38   C     C_3   0.586922 0.469235 0.410739 0.026275
C39   C     C_3   0.490750 0.494638 0.471309 -0.233778
C40   C     C_3   0.569241 0.430395 0.536746 -0.442152
C41   C     C_3   0.380176 0.662674 0.218817 0.041547
C42   C     C_3   0.270994 0.627394 0.203547 -0.264271
C43   C     C_3   0.130229 0.752346 0.200377 -0.493812
C44   C     C_3   0.963547 0.573221 0.396691 -0.253364
C45   C     C_1   0.149772 0.182416 0.798793 -0.031521
C46   C     C_1   0.192683 0.162354 0.666876 0.002344
C47   C     C_1   0.716059 0.219629 0.851901 -0.004143
C48   C     C_1   0.679717 0.185925 0.722463 -0.031424
C49   C     C_1   0.698284 0.206895 0.792025 -0.030223
Cr1   Cr    Cr6+3 0.404720 0.198220 0.499960 0.986916
Cr2   Cr    Cr6+3 0.698290 0.897110 0.500380 1.014696
Cr3   Cr    Cr6+3 0.396970 0.904720 0.499610 1.016299
Cr4   Cr    Cr6+3 0.926180 0.152240 0.028110 1.010190
Cr5   Cr    Cr6+3 0.921340 0.452070 0.027460 1.019842
Cr6   Cr    Cr6+3 0.626260 0.447120 0.028700 1.035574
H1    H     H_    0.836049 0.965063 0.185861 0.138679
H2    H     H_    0.676308 0.472977 0.430332 0.104240
H3    H     H_    0.624702 0.366446 0.389705 0.153791
H4    H     H_    0.425044 0.604293 0.480927 0.197025
H5    H     H_    0.424283 0.453450 0.458757 0.159464
H6    H     H_    0.644539 0.322913 0.527005 0.160302
H7    H     H_    0.498058 0.439471 0.578234 0.159784
H8    H     H_    0.623738 0.481807 0.554070 0.142203
H9    H     H_    0.378382 0.731084 0.178392 0.150184
H10   H     H_    0.354545 0.717399 0.269112 0.162968
H11   H     H_    0.293982 0.572549 0.153519 0.168983
H12   H     H_    0.472610 0.353728 0.203077 0.164654
H13   H     H_    0.270983 0.561024 0.244606 0.157803
H14   H     H_    0.125447 0.817249 0.157417 0.154857
H15   H     H_    0.104954 0.809939 0.249594 0.141793
H16   H     H_    0.053805 0.722009 0.191360 0.139158
H17   H     H_    0.947590 0.669852 0.303857 0.231454
H18   H     H_    0.948533 0.640529 0.441026 0.164558
H19   H     H_    0.930998 0.501307 0.411971 0.137239
H20   H     H_    0.073433 0.515806 0.384451 0.120605
H21   H     H_    0.444477 0.305279 0.322114 0.134876
H22   H     H_    0.888255 0.581631 0.209199 0.147271
H23   H     H_    0.225624 0.335388 0.318813 0.121762
H24   H     H_    0.180518 0.362223 0.199748 0.124632
H25   H     H_    0.125581 0.018274 0.198637 0.126518
H26   H     H_    0.180784 0.985032 0.320931 0.124462
H27   H     H_    0.805230 0.914037 0.301906 0.145849
N1    N     N_2   0.888744 0.653330 0.338161 -0.497928
O1    O     O_R   0.267740 0.231990 0.575440 -0.506730
O2    O     O_R   0.596140 0.579600 0.952720 -0.497710
O3    O     O_R   0.639070 0.321380 0.958660 -0.502462
O4    O     O_R   0.527280 0.186680 0.570530 -0.496227
O5    O     O_R   0.821240 0.124490 0.104360 -0.523082
O6    O     O_R   0.036900 0.167320 0.097830 -0.504623
O7    O     O_R   0.056190 0.349890 0.102870 -0.531357
O8    O     O_R   0.797670 0.565150 0.097930 -0.501240
O9    O     O_R   0.595880 0.584540 0.104260 -0.475053
O10   O     O_R   0.638830 0.325960 0.099140 -0.487559
O11   O     O_3   0.824590 0.350480 0.028090 -0.314894
O12   O     O_R   0.685970 0.784630 0.430010 -0.495822
O13   O     O_R   0.728090 0.003480 0.576380 -0.498865
O14   O     O_R   0.682970 0.789220 0.570490 -0.497617
O15   O     O_R   0.499290 0.771920 0.575530 -0.515727
O16   O     O_R   0.285330 0.030900 0.569730 -0.488397
O17   O     O_R   0.270980 0.227040 0.423900 -0.545996
O18   O     O_R   0.530280 0.182090 0.430050 -0.522342
O19   O     O_R   0.731330 0.998530 0.424830 -0.510224
O20   O     O_3   0.515475 0.564285 0.358881 -0.554429
O21   O     O_3   0.508609 0.542951 0.218865 -0.548694
O22   O     O_R   0.502530 0.766960 0.423990 -0.488794
O23   O     O_R   0.288330 0.026310 0.429250 -0.499653
O24   O     O_3   0.499990 0.000020 0.499980 -0.260214
O25   O     O_R   0.821500 0.119550 0.952820 -0.488213
O26   O     O_R   0.037130 0.162750 0.957360 -0.509032
O27   O     O_R   0.056440 0.344950 0.951330 -0.506922
O28   O     O_R   0.797900 0.560570 0.957460 -0.473958

loop_
_geom_bond_atom_site_label_1
_geom_bond_atom_site_label_2
_ccdc_geom_bond_type
C19   H1    S    
Cr2   O14   S    
C1    O4    A    
C23   C45   T    
C4    O15   A    
C44   H20   S    
C8    N1    S    
C41   C42   S    
C19   C20   A    
C22   H21   S    
Cr6   O10   S    
C44   N1    S    
C29   O6    A    
C10   H23   S    
Cr1   O1    S    
C7    C8    A    
C15   H26   S    
Cr2   O19   S    
Cr6   O9    S    
C40   H8    S    
C18   C24   A    
C13   C29   S    
C36   C37   S    
C35   C37   T    
Cr5   O7    S    
C1    O13   A    
C38   C39   S    
C10   C17   A    
C3    O20   S    
C16   O1    A    
C40   H7    S    
Cr5   O27   S    
C1    C2    S    
C9    C32   S    
C38   H3    S    
C28   O18   A    
Cr3   O24   S    
C8    C9    A    
C34   C46   T    
C14   H25   S    
C12   C36   T    
C25   O26   A    
Cr2   O13   S    
C7    H22   S    
C5    O21   S    
Cr3   O23   S    
C43   H14   S    
C21   C22   A    
C21   H12   S    
C42   H13   S    
C17   C33   S    
Cr6   O11   S    
C29   O7    A    
C13   C14   A    
C30   O9    A    
C16   C46   S    
C39   C40   S    
C18   C19   A    
C41   H10   S    
C2    C48   T    
C31   O10   A    
C40   H6    S    
Cr6   O2    S    
C27   O3    A    
C38   O20   S    
C3    C9    A    
C38   H2    S    
C39   H4    S    
C34   C45   S    
C44   H19   S    
C11   H24   S    
Cr1   O4    S    
C25   O27   A    
C27   C47   S    
C48   C49   S    
C6    C30   S    
Cr3   O22   S    
C43   H15   S    
C32   O22   A    
Cr4   O6    S    
Cr1   O24   S    
C22   C24   A    
C4    C12   S    
C42   C43   S    
Cr4   O26   S    
C15   C17   A    
C43   H16   S    
C31   O5    A    
Cr4   O11   S    
C33   O23   A    
C24   C28   S    
C30   O8    A    
C3    C5    A    
C16   O16   A    
C6    C7    A    
C47   C49   T    
Cr3   O16   S    
Cr1   O17   S    
C41   O21   S    
C33   O17   A    
Cr6   O3    S    
Cr5   O8    S    
C11   C13   A    
Cr4   O25   S    
C5    C6    A    
C27   O25   A    
C26   O2    A    
C39   H5    S    
Cr3   O15   S    
C18   H27   S    
Cr5   O28   S    
Cr4   O5    S    
C23   C25   S    
C44   H18   S    
Cr5   O11   S    
H17   N1    S    
C10   C11   A    
C28   O19   A    
C26   C35   S    
C32   O12   A    
C20   C21   A    
Cr1   O18   S    
Cr2   O24   S    
C42   H11   S    
C14   C15   A    
C41   H9    S    
C4    O14   A    
C26   O28   A    
Cr2   O12   S    
C20   C31   S    
