data_mof_unit_15472.cif
_audit_creation_date              2012-12-10T16:33:55-0500
_audit_creation_method            fapswitch 2.2
_symmetry_space_group_name_H-M    P1
_symmetry_Int_Tables_number       1
_space_group_crystal_system       triclinic
_cell_length_a                    28.691787
_cell_length_b                    18.882929
_cell_length_c                    17.169295
_cell_angle_alpha                 90.037878
_cell_angle_beta                  61.219491
_cell_angle_gamma                 89.810913
_cell_volume                      8152.91538138

loop_
_atom_site_label
_atom_site_type_symbol
_atom_type_description
_atom_site_fract_x
_atom_site_fract_y
_atom_site_fract_z
_atom_type_partial_charge
C1    C     C_R   0.702854 0.271488 0.674734 0.905403
C2    C     C_R   0.297610 0.730575 0.324957 0.930570
C3    C     C_R   0.296905 0.271520 0.325431 0.919018
C4    C     C_R   0.702419 0.730389 0.674961 0.906264
C5    C     C_R   0.202105 0.769666 0.675233 0.899582
C6    C     C_R   0.797982 0.231473 0.324868 0.928886
C7    C     C_R   0.796412 0.772653 0.325806 0.921704
C8    C     C_R   0.202517 0.230101 0.674903 0.905531
C9    C     C_R   0.059628 0.373335 0.470071 -0.246878
C10   C     C_R   0.952734 0.626254 0.491303 -0.220422
C11   C     C_R   0.954708 0.372215 0.488241 -0.250348
C12   C     C_R   0.054423 0.626410 0.483986 -0.231863
C13   C     C_R   0.561246 0.873598 0.465468 -0.244292
C14   C     C_R   0.452500 0.126307 0.493092 -0.223532
C15   C     C_R   0.454013 0.872462 0.491468 -0.248967
C16   C     C_R   0.554877 0.126655 0.482474 -0.233914
C17   C     C_R   0.712556 0.261591 0.964011 -0.047182
C18   C     C_R   0.269213 0.716245 0.057140 -0.043832
C19   C     C_R   0.286458 0.262689 0.037357 -0.051314
C20   C     C_R   0.729048 0.718662 0.944561 -0.057920
C21   C     C_R   0.209699 0.756762 0.966149 -0.037671
C22   C     C_R   0.771718 0.222848 0.056347 -0.062009
C23   C     C_R   0.787183 0.760221 0.037423 -0.052126
C24   C     C_R   0.228712 0.218902 0.944833 -0.057230
C25   C     C_R   0.765842 0.234436 0.918394 -0.335951
C26   C     C_R   0.217184 0.744020 0.103753 -0.348517
C27   C     C_R   0.235067 0.232673 0.082127 -0.330928
C28   C     C_R   0.777111 0.756973 0.902066 -0.332898
C29   C     C_R   0.261844 0.729347 0.920697 -0.338092
C30   C     C_R   0.719216 0.249771 0.102724 -0.332004
C31   C     C_R   0.740029 0.719449 0.078361 -0.330616
C32   C     C_R   0.279579 0.249439 0.899501 -0.337928
C33   C     C_R   0.795260 0.218425 0.961977 0.471638
C34   C     C_R   0.187519 0.764293 0.061012 0.491762
C35   C     C_R   0.206805 0.211967 0.038350 0.485757
C36   C     C_R   0.803915 0.781292 0.947411 0.485002
C37   C     C_R   0.290257 0.707845 0.963993 0.483025
C38   C     C_R   0.690900 0.272101 0.058741 0.487243
C39   C     C_R   0.710419 0.702433 0.035709 0.479191
C40   C     C_R   0.307033 0.274150 0.943643 0.489909
C41   C     C_R   0.633485 0.315344 0.949195 -0.259460
C42   C     C_R   0.342050 0.647594 0.073189 -0.237840
C43   C     C_R   0.363071 0.320880 0.053217 -0.258732
C44   C     C_R   0.657874 0.647554 0.926609 -0.236176
C45   C     C_R   0.136402 0.821179 0.947526 -0.254105
C46   C     C_R   0.843966 0.152725 0.071521 -0.232364
C47   C     C_R   0.864879 0.816840 0.051865 -0.249273
C48   C     C_R   0.157492 0.147897 0.927589 -0.231494
C49   C     C_R   0.612658 0.345409 0.897360 -0.189418
C50   C     C_R   0.375611 0.638850 0.111445 -0.201339
C51   C     C_R   0.384018 0.349996 0.105015 -0.183919
C52   C     C_R   0.624617 0.638083 0.888038 -0.208348
C53   C     C_R   0.114358 0.847902 0.896111 -0.192333
C54   C     C_R   0.877777 0.143623 0.109529 -0.203667
C55   C     C_R   0.884838 0.848538 0.104021 -0.188688
C56   C     C_R   0.124574 0.137899 0.888295 -0.203938
C57   C     C_R   0.633909 0.329949 0.807750 0.402870
C58   C     C_R   0.363336 0.670214 0.191714 0.381174
C59   C     C_R   0.362555 0.334550 0.194383 0.390950
C60   C     C_R   0.637124 0.668976 0.807570 0.382673
C61   C     C_R   0.134134 0.829309 0.807706 0.399456
C62   C     C_R   0.867090 0.178354 0.187740 0.395282
C63   C     C_R   0.861980 0.835522 0.194207 0.392330
C64   C     C_R   0.137345 0.168096 0.807276 0.378486
C65   C     C_R   0.679680 0.288553 0.768702 -0.168285
C66   C     C_R   0.318741 0.713629 0.231451 -0.170291
C67   C     C_R   0.318774 0.289896 0.232092 -0.159359
C68   C     C_R   0.681129 0.712983 0.768377 -0.172296
C69   C     C_R   0.178193 0.784729 0.769923 -0.161184
C70   C     C_R   0.820380 0.217758 0.230376 -0.178509
C71   C     C_R   0.817960 0.791565 0.232633 -0.165487
C72   C     C_R   0.181393 0.212213 0.768114 -0.167926
C73   C     C_R   0.705424 0.267067 0.817904 -0.282421
C74   C     C_R   0.290437 0.732635 0.185504 -0.280204
C75   C     C_R   0.294428 0.265859 0.181970 -0.272692
C76   C     C_R   0.708530 0.732927 0.814935 -0.288624
C77   C     C_R   0.201711 0.758832 0.821005 -0.280894
C78   C     C_R   0.791425 0.236091 0.185794 -0.285165
C79   C     C_R   0.792995 0.768732 0.183357 -0.279567
C80   C     C_R   0.209051 0.231865 0.814492 -0.292442
C81   C     C_R   0.683301 0.280743 0.910700 0.145201
C82   C     C_R   0.300714 0.698350 0.105726 0.124225
C83   C     C_R   0.314970 0.283144 0.090718 0.140285
C84   C     C_R   0.698285 0.699424 0.895145 0.129783
C85   C     C_R   0.181797 0.777859 0.911914 0.149425
C86   C     C_R   0.802486 0.203431 0.105167 0.126292
C87   C     C_R   0.815416 0.781711 0.090711 0.135145
C88   C     C_R   0.198374 0.198932 0.895142 0.125620
C89   C     C_R   0.695787 0.128501 0.520363 0.954521
C90   C     C_R   0.304773 0.871311 0.478069 0.933635
C91   C     C_R   0.304761 0.128610 0.478248 0.964329
C92   C     C_R   0.696595 0.871473 0.517565 0.917667
C93   C     C_R   0.195221 0.628582 0.521736 0.956262
C94   C     C_R   0.804970 0.371264 0.477337 0.931112
C95   C     C_R   0.804669 0.628553 0.478551 0.964966
C96   C     C_R   0.196118 0.371456 0.519252 0.915859
C97   C     C_R   0.078153 0.092554 0.929582 0.926599
C98   C     C_R   0.927336 0.899705 0.065397 0.927699
C99   C     C_R   0.923016 0.095228 0.069337 0.923233
C100  C     C_R   0.072798 0.900018 0.934374 0.929103
C101  C     C_R   0.578201 0.592550 0.929473 0.932512
C102  C     C_R   0.426854 0.400373 0.065924 0.928191
C103  C     C_R   0.422028 0.593123 0.070211 0.929627
C104  C     C_R   0.571469 0.398364 0.935662 0.929807
C105  C     C_R   0.553170 0.999733 0.489018 0.037664
C106  C     C_R   0.456074 0.999403 0.482453 0.037487
C107  C     C_R   0.052482 0.499542 0.490543 0.037801
C108  C     C_R   0.956205 0.499274 0.481452 0.037081
C109  C     C_R   0.528771 0.063781 0.485911 0.054496
C110  C     C_R   0.481511 0.935281 0.481735 0.052983
C111  C     C_R   0.480290 0.063664 0.484051 0.052132
C112  C     C_R   0.531073 0.935517 0.480272 0.048485
C113  C     C_R   0.028432 0.563632 0.486600 0.054669
C114  C     C_R   0.981577 0.435154 0.480874 0.056105
C115  C     C_R   0.980365 0.563602 0.483247 0.050579
C116  C     C_R   0.030417 0.435432 0.481737 0.048885
C117  C     C_R   0.626416 0.935751 0.494349 0.007222
C118  C     C_R   0.379445 0.063880 0.488394 0.003318
C119  C     C_R   0.379699 0.935041 0.488208 0.010076
C120  C     C_R   0.623015 0.064684 0.504430 0.011324
C121  C     C_R   0.125041 0.435345 0.498741 0.009902
C122  C     C_R   0.879280 0.563529 0.488575 0.001126
C123  C     C_R   0.880315 0.434817 0.485942 0.012676
C124  C     C_R   0.122112 0.564322 0.506613 0.008639
C125  C     C_R   0.672329 0.936438 0.507403 -0.225885
C126  C     C_R   0.331340 0.063519 0.481386 -0.232432
C127  C     C_R   0.331360 0.936097 0.481205 -0.236099
C128  C     C_R   0.670715 0.063589 0.512807 -0.233385
C129  C     C_R   0.171070 0.436398 0.511595 -0.230900
C130  C     C_R   0.831169 0.563344 0.481553 -0.233054
C131  C     C_R   0.831744 0.435962 0.479650 -0.232832
C132  C     C_R   0.169425 0.563620 0.516210 -0.227609
C133  C     C_R   0.697588 0.999764 0.506214 0.393378
C134  C     C_R   0.308573 0.000053 0.474206 0.397455
C135  C     C_R   0.195796 0.500182 0.511742 0.391437
C136  C     C_R   0.808736 0.499932 0.473519 0.396060
C137  C     C_R   0.600178 0.999956 0.498061 0.061251
C138  C     C_R   0.405372 0.999391 0.484497 0.070065
C139  C     C_R   0.099155 0.499717 0.501122 0.061021
C140  C     C_R   0.905586 0.499159 0.483337 0.070191
C141  C     C_R   0.106670 0.373541 0.473173 -0.131459
C142  C     C_R   0.902811 0.625599 0.499972 -0.139583
C143  C     C_R   0.905189 0.372256 0.494633 -0.159639
C144  C     C_R   0.099586 0.626707 0.491677 -0.139094
C145  C     C_R   0.608485 0.874371 0.467628 -0.138783
C146  C     C_R   0.403249 0.126110 0.499081 -0.139483
C147  C     C_R   0.404019 0.872591 0.498801 -0.154792
C148  C     C_R   0.599571 0.127469 0.491636 -0.134908
H1    H     H_    0.129155 0.323593 0.444574 0.177756
H2    H     H_    0.884282 0.676027 0.522793 0.191079
H3    H     H_    0.888696 0.320393 0.512357 0.191650
H4    H     H_    0.116089 0.678563 0.476805 0.193822
H5    H     H_    0.631762 0.826240 0.438894 0.177086
H6    H     H_    0.385746 0.177563 0.518999 0.191607
H7    H     H_    0.386305 0.821326 0.519060 0.190530
H8    H     H_    0.614350 0.180779 0.480845 0.193446
H9    H     H_    0.049490 0.323668 0.450876 0.134947
H10   H     H_    0.965992 0.677570 0.499655 0.136528
H11   H     H_    0.968917 0.321408 0.496948 0.136531
H12   H     H_    0.042684 0.677197 0.470642 0.137130
H13   H     H_    0.551183 0.824419 0.444660 0.135021
H14   H     H_    0.465389 0.177316 0.503441 0.137166
H15   H     H_    0.468263 0.822089 0.501659 0.136452
H16   H     H_    0.543070 0.177300 0.468562 0.138234
H17   H     H_    0.788062 0.226302 0.846621 0.173156
H18   H     H_    0.197719 0.747792 0.175507 0.172218
H19   H     H_    0.214001 0.226117 0.153426 0.172180
H20   H     H_    0.794938 0.770091 0.832360 0.177395
H21   H     H_    0.282902 0.723859 0.849286 0.169949
H22   H     H_    0.699075 0.254258 0.174757 0.178554
H23   H     H_    0.723125 0.700398 0.145899 0.175743
H24   H     H_    0.299159 0.255453 0.828067 0.178840
H25   H     H_    0.608834 0.320384 0.019227 0.230283
H26   H     H_    0.348276 0.613195 0.019017 0.222155
H27   H     H_    0.386545 0.328100 0.983529 0.235668
H28   H     H_    0.652162 0.612513 0.979781 0.226170
H29   H     H_    0.116816 0.836626 0.015390 0.224412
H30   H     H_    0.850352 0.119958 0.015480 0.213308
H31   H     H_    0.889253 0.820802 0.981263 0.231923
H32   H     H_    0.151084 0.114750 0.982899 0.221509
H33   H     H_    0.742307 0.238345 0.781179 0.171228
H34   H     H_    0.259331 0.772244 0.214160 0.170556
H35   H     H_    0.260585 0.231509 0.215187 0.172895
H36   H     H_    0.739039 0.772590 0.785610 0.169326
H37   H     H_    0.235076 0.722939 0.788289 0.169719
H38   H     H_    0.759463 0.274386 0.215798 0.173906
H39   H     H_    0.756295 0.740285 0.219589 0.170599
H40   H     H_    0.240068 0.271040 0.785337 0.169803
O1    O     O_R   0.746490 0.236330 0.638080 -0.655192
O2    O     O_R   0.253510 0.763670 0.361920 -0.649656
O3    O     O_R   0.253510 0.236330 0.361920 -0.649983
O4    O     O_R   0.746490 0.763670 0.638080 -0.656892
O5    O     O_R   0.246490 0.736330 0.638080 -0.657691
O6    O     O_R   0.753510 0.263670 0.361920 -0.649069
O7    O     O_R   0.753510 0.736330 0.361920 -0.652351
O8    O     O_R   0.246490 0.263670 0.638080 -0.656227
O9    O     O_R   0.674170 0.186160 0.516270 -0.658243
O10   O     O_R   0.325830 0.813840 0.483730 -0.673865
O11   O     O_R   0.325830 0.186160 0.483730 -0.662263
O12   O     O_R   0.674170 0.813840 0.516270 -0.664277
O13   O     O_R   0.174170 0.686160 0.516270 -0.662099
O14   O     O_R   0.825830 0.313840 0.483730 -0.681607
O15   O     O_R   0.825830 0.686160 0.483730 -0.661035
O16   O     O_R   0.174170 0.313840 0.516270 -0.663168
O17   O     O_R   0.739960 0.127620 0.525000 -0.612676
O18   O     O_R   0.260040 0.872380 0.475000 -0.612178
O19   O     O_R   0.260040 0.127620 0.475000 -0.598419
O20   O     O_R   0.739960 0.872380 0.525000 -0.624856
O21   O     O_R   0.239960 0.627620 0.525000 -0.603581
O22   O     O_R   0.760040 0.372380 0.475000 -0.614270
O23   O     O_R   0.760040 0.627620 0.475000 -0.597580
O24   O     O_R   0.239960 0.372380 0.525000 -0.621797
O25   O     O_R   0.680700 0.294870 0.629350 -0.606855
O26   O     O_R   0.319300 0.705130 0.370650 -0.578357
O27   O     O_R   0.319300 0.294870 0.370650 -0.592817
O28   O     O_R   0.680700 0.705130 0.629350 -0.590245
O29   O     O_R   0.180700 0.794870 0.629350 -0.606617
O30   O     O_R   0.819300 0.205130 0.370650 -0.582125
O31   O     O_R   0.819300 0.794870 0.370650 -0.580443
O32   O     O_R   0.180700 0.205130 0.629350 -0.590953
O33   O     O_R   0.062020 0.072840 0.007170 -0.646015
O34   O     O_R   0.937980 0.927160 0.992830 -0.646736
O35   O     O_R   0.937980 0.072840 0.992830 -0.653671
O36   O     O_R   0.062020 0.927160 0.007170 -0.650473
O37   O     O_R   0.562020 0.572840 0.007170 -0.646993
O38   O     O_R   0.437980 0.427160 0.992830 -0.649589
O39   O     O_R   0.437980 0.572840 0.992830 -0.654066
O40   O     O_R   0.562020 0.427160 0.007170 -0.647455
O41   O     O_R   0.947860 0.073950 0.109290 -0.570041
O42   O     O_R   0.052140 0.926050 0.890710 -0.596197
O43   O     O_R   0.052140 0.073950 0.890710 -0.589835
O44   O     O_R   0.947860 0.926050 0.109290 -0.592813
O45   O     O_R   0.447860 0.573950 0.109290 -0.579654
O46   O     O_R   0.552140 0.426050 0.890710 -0.596842
O47   O     O_R   0.552140 0.573950 0.890710 -0.582705
O48   O     O_R   0.447860 0.426050 0.109290 -0.595286
Zn1   Zn    Zn3+2 0.792340 0.208750 0.507670 0.908270
Zn2   Zn    Zn3+2 0.207660 0.791250 0.492330 0.923503
Zn3   Zn    Zn3+2 0.207660 0.208750 0.492330 0.918871
Zn4   Zn    Zn3+2 0.792340 0.791250 0.507670 0.910905
Zn5   Zn    Zn3+2 0.292340 0.708750 0.507670 0.915008
Zn6   Zn    Zn3+2 0.707660 0.291250 0.492330 0.923200
Zn7   Zn    Zn3+2 0.707660 0.708750 0.492330 0.918294
Zn8   Zn    Zn3+2 0.292340 0.291250 0.507670 0.914535
Zn9   Zn    Zn3+2 0.505960 0.500000 0.080520 0.926299
Zn10  Zn    Zn3+2 0.494040 0.500000 0.919480 0.911942
Zn11  Zn    Zn3+2 0.005960 0.000000 0.080520 0.946941
Zn12  Zn    Zn3+2 0.994040 0.000000 0.919480 0.919446
O49   O     O_3   0.753420 0.999099 0.468911 -0.599486
C149  C     C_3   0.771573 0.002363 0.533108 -0.133584
H41   H     H_    0.739793 0.015151 0.601397 0.127687
H42   H     H_    0.804336 0.041599 0.510298 0.163600
H43   H     H_    0.792179 0.953621 0.535737 0.149080
O50   O     O_3   0.273892 0.000863 0.437869 -0.573689
C150  C     C_3   0.219060 0.998738 0.503500 -0.118024
H44   H     H_    0.212744 0.986788 0.571173 0.090297
H45   H     H_    0.198730 0.959171 0.482834 0.156314
H46   H     H_    0.197187 0.047580 0.505382 0.165265
O51   O     O_3   0.251389 0.501312 0.477843 -0.591718
C151  C     C_3   0.267351 0.498147 0.544795 -0.133221
H47   H     H_    0.299858 0.458396 0.524540 0.153854
H48   H     H_    0.234456 0.485769 0.612083 0.120163
H49   H     H_    0.288035 0.546689 0.548052 0.160352
O52   O     O_3   0.774239 0.501051 0.436624 -0.573650
C152  C     C_3   0.719300 0.498364 0.501692 -0.117835
H50   H     H_    0.712658 0.484866 0.569238 0.090468
H51   H     H_    0.699417 0.459455 0.479262 0.156825
H52   H     H_    0.697375 0.547423 0.504908 0.165752
O53   O     O_3   0.640782 0.299901 0.112489 -0.623815
C153  C     C_3   0.644884 0.374610 0.118534 0.063865
H53   H     H_    0.663195 0.399656 0.050801 0.144333
H54   H     H_    0.669282 0.388754 0.151113 0.143601
C154  C     C_3   0.589152 0.405526 0.174778 -0.764990
H55   H     H_    0.574128 0.393137 0.246580 0.228927
H56   H     H_    0.590107 0.464187 0.166164 0.202348
H57   H     H_    0.560683 0.382477 0.154437 0.269413
O54   O     O_3   0.336947 0.672106 0.912980 -0.635334
C155  C     C_3   0.379541 0.719407 0.885610 0.068541
H58   H     H_    0.378044 0.749795 0.942625 0.141344
H59   H     H_    0.379692 0.757621 0.836106 0.144033
C156  C     C_3   0.430362 0.676133 0.843299 -0.804833
H60   H     H_    0.445487 0.672693 0.770433 0.223672
H61   H     H_    0.459486 0.701928 0.858947 0.205658
H62   H     H_    0.423685 0.621068 0.869619 0.283860
O55   O     O_3   0.354513 0.308296 0.891189 -0.625919
C157  C     C_3   0.344232 0.382125 0.892656 0.064859
H63   H     H_    0.323716 0.402995 0.962459 0.142441
H64   H     H_    0.318910 0.393814 0.861223 0.142411
C158  C     C_3   0.396928 0.421320 0.840885 -0.776517
H65   H     H_    0.409144 0.421820 0.768722 0.221132
H66   H     H_    0.392488 0.476995 0.865178 0.214051
H67   H     H_    0.429157 0.395007 0.849111 0.272934
O56   O     O_3   0.663122 0.668297 0.086324 -0.638548
C159  C     C_3   0.621591 0.718526 0.115973 0.080172
H68   H     H_    0.624480 0.752983 0.060920 0.137025
H69   H     H_    0.622157 0.753181 0.168105 0.142011
C160  C     C_3   0.569264 0.679056 0.154465 -0.803693
H70   H     H_    0.548472 0.684386 0.227647 0.214641
H71   H     H_    0.545046 0.701335 0.125999 0.207176
H72   H     H_    0.575195 0.621654 0.138126 0.284421
O57   O     O_3   0.134883 0.783260 0.115464 -0.611741
C161  C     C_3   0.132546 0.853872 0.147333 0.056502
H73   H     H_    0.154262 0.891756 0.090143 0.131990
H74   H     H_    0.150034 0.857766 0.193091 0.140479
C162  C     C_3   0.074207 0.876858 0.199294 -0.766942
H75   H     H_    0.054013 0.849327 0.264893 0.236116
H76   H     H_    0.071643 0.935191 0.210802 0.193336
H77   H     H_    0.052394 0.863367 0.161965 0.271358
O58   O     O_3   0.847534 0.196908 0.909242 -0.628501
C163  C     C_3   0.881660 0.254726 0.899817 0.097494
H78   H     H_    0.872468 0.279479 0.965374 0.141207
H79   H     H_    0.879149 0.296243 0.855715 0.144587
C164  C     C_3   0.938363 0.227138 0.856927 -0.844252
H80   H     H_    0.950056 0.211705 0.787027 0.253618
H81   H     H_    0.965548 0.269338 0.858866 0.193729
H82   H     H_    0.941008 0.178947 0.893072 0.275347
O59   O     O_3   0.847899 0.823223 0.898947 -0.629153
C165  C     C_3   0.832623 0.895511 0.917214 0.061447
H83   H     H_    0.815337 0.907357 0.989904 0.144433
H84   H     H_    0.802778 0.909877 0.895664 0.140541
C166  C     C_3   0.881738 0.941619 0.866112 -0.756968
H85   H     H_    0.889292 0.949870 0.796633 0.218826
H86   H     H_    0.875551 0.994149 0.899589 0.218720
H87   H     H_    0.917641 0.915554 0.862918 0.273645
O60   O     O_3   0.158302 0.181035 0.089869 -0.634279
C167  C     C_3   0.117931 0.231224 0.107869 0.065710
H88   H     H_    0.123893 0.260535 0.047189 0.138237
H89   H     H_    0.116076 0.270703 0.157575 0.144432
C168  C     C_3   0.065773 0.191608 0.144978 -0.783786
H90   H     H_    0.044016 0.199243 0.217645 0.218477
H91   H     H_    0.043057 0.211086 0.112356 0.207082
H92   H     H_    0.072003 0.133715 0.132201 0.286637
O61   O     O_3   0.603945 0.342986 0.764406 -0.578867
C169  C     C_3   0.616695 0.409301 0.718802 0.207116
H93   H     H_    0.651098 0.405044 0.652140 0.133448
H94   H     H_    0.627159 0.451482 0.752851 0.118720
C170  C     C_3   0.570148 0.433429 0.704950 -0.773167
H95   H     H_    0.537861 0.458597 0.766192 0.256730
H96   H     H_    0.584405 0.473320 0.650194 0.166083
H97   H     H_    0.552767 0.387154 0.686867 0.245827
O62   O     O_3   0.387711 0.645654 0.239432 -0.578388
C171  C     C_3   0.424349 0.696219 0.237834 0.184967
H98   H     H_    0.407958 0.751331 0.250704 0.108240
H99   H     H_    0.460313 0.695295 0.171808 0.121044
C172  C     C_3   0.438750 0.676856 0.310054 -0.788699
H100  H     H_    0.461178 0.625980 0.292999 0.231558
H101  H     H_    0.462764 0.719627 0.317469 0.186801
H102  H     H_    0.402449 0.670235 0.375413 0.264183
O63   O     O_3   0.391752 0.349020 0.237792 -0.586799
C173  C     C_3   0.375443 0.413467 0.286881 0.213913
H103  H     H_    0.333397 0.412669 0.339924 0.164062
H104  H     H_    0.378397 0.459910 0.245345 0.150967
C174  C     C_3   0.411014 0.424902 0.328950 -0.769904
H105  H     H_    0.452032 0.438215 0.276775 0.236239
H106  H     H_    0.395216 0.468425 0.378482 0.184925
H107  H     H_    0.412990 0.375673 0.362898 0.246830
O64   O     O_3   0.612490 0.645410 0.760230 -0.586834
C175  C     C_3   0.575037 0.696280 0.765444 0.182340
H108  H     H_    0.591558 0.750932 0.751111 0.111226
H109  H     H_    0.540528 0.696059 0.833256 0.119370
C176  C     C_3   0.557882 0.677354 0.696683 -0.805319
H110  H     H_    0.536932 0.625608 0.713498 0.236713
H111  H     H_    0.531506 0.719452 0.694324 0.194781
H112  H     H_    0.593078 0.672853 0.629504 0.261258
O65   O     O_3   0.104549 0.843862 0.764127 -0.579050
C177  C     C_3   0.118289 0.910386 0.719164 0.204603
H113  H     H_    0.153417 0.906061 0.653417 0.133293
H114  H     H_    0.128238 0.952022 0.754543 0.117881
C178  C     C_3   0.072812 0.935585 0.703106 -0.762031
H115  H     H_    0.040101 0.960976 0.764145 0.255668
H116  H     H_    0.088239 0.975737 0.648271 0.165170
H117  H     H_    0.055521 0.889628 0.683741 0.243809
O66   O     O_3   0.896758 0.162659 0.229983 -0.582898
C179  C     C_3   0.923773 0.223895 0.234939 0.179539
H118  H     H_    0.899780 0.273766 0.250057 0.104722
H119  H     H_    0.959743 0.231706 0.170169 0.112732
C180  C     C_3   0.938762 0.213108 0.308417 -0.797029
H120  H     H_    0.958736 0.160870 0.299973 0.240945
H121  H     H_    0.965111 0.256627 0.307018 0.192771
H122  H     H_    0.903118 0.213584 0.375219 0.266877
O67   O     O_3   0.888336 0.855842 0.240635 -0.590178
C181  C     C_3   0.866534 0.919186 0.289590 0.221625
H123  H     H_    0.822122 0.920189 0.323571 0.143633
H124  H     H_    0.879893 0.966324 0.245780 0.155519
C182  C     C_3   0.885310 0.926490 0.358413 -0.748170
H125  H     H_    0.886999 0.983185 0.373607 0.187260
H126  H     H_    0.858533 0.897853 0.420486 0.231909
H127  H     H_    0.925977 0.903557 0.332704 0.243657
O68   O     O_3   0.113789 0.142414 0.758944 -0.589159
C183  C     C_3   0.074868 0.190603 0.763377 0.178693
H128  H     H_    0.089469 0.246230 0.751035 0.110875
H129  H     H_    0.039045 0.188096 0.829873 0.135786
C184  C     C_3   0.059857 0.170024 0.692372 -0.791205
H130  H     H_    0.034468 0.121829 0.713422 0.225928
H131  H     H_    0.038241 0.214426 0.681187 0.193523
H132  H     H_    0.096087 0.158509 0.628092 0.260507

loop_
_geom_bond_atom_site_label_1
_geom_bond_atom_site_label_2
_ccdc_geom_bond_type
C150  H45   S    
C102  O48   A    
O64   C175  S    
C160  H71   S    
O1    Zn1   S    
O14   Zn1   S    
C79   C87   A    
C170  H95   S    
C11   H11   S    
C61   C69   A    
O61   C169  S    
C156  H62   S    
C41   H25   S    
C15   H15   S    
C13   C112  A    
C149  H42   S    
C36   O59   S    
C154  H57   S    
C62   C70   A    
C175  C176  S    
C101  O37   A    
C107  C113  A    
C180  H122  S    
C43   H27   S    
C89   O17   A    
C18   C26   A    
C167  H88   S    
C78   H38   S    
C147  H7    S    
C165  C166  S    
C178  H117  S    
O28   Zn7   S    
C143  H3    S    
C32   H24   S    
C50   C103  S    
O3    Zn3   S    
O16   Zn3   S    
C73   C81   A    
C174  H106  S    
C16   C109  A    
C104  O40   A    
C161  H74   S    
C176  H112  S    
C163  H79   S    
C52   C101  S    
O22   Zn6   S    
C57   C65   A    
C171  H98   S    
C183  H129  S    
C20   C28   A    
C27   C35   A    
O57   C161  S    
C21   C29   A    
C27   H19   S    
C23   C31   A    
C24   C32   A    
C73   H33   S    
O36   Zn11  S    
C146  H6    S    
C61   O65   S    
C167  C168  S    
O18   Zn2   S    
C172  H102  S    
C98   O44   A    
C105  C112  A    
C63   C71   A    
C120  C148  A    
O67   C181  S    
C153  H54   S    
C166  H85   S    
C6    O6    A    
C170  H97   S    
O10   Zn5   S    
C157  C158  S    
C26   C34   A    
C9    C116  A    
C2    O2    A    
C171  C172  S    
C184  H130  S    
C17   C25   A    
C80   C88   A    
O65   C177  S    
O39   Zn10  S    
C157  H64   S    
C169  C170  S    
O45   Zn9   S    
C55   C98   S    
C18   C82   S    
O68   C183  S    
C33   O58   S    
C173  H103  S    
C38   O53   S    
C11   C143  A    
C28   H20   S    
C160  H70   S    
C57   O61   S    
C126  C134  A    
C23   C36   A    
C29   H21   S    
C118  C138  A    
C3    O27   A    
C96   C129  S    
C113  C115  A    
O63   C173  S    
C4    O28   A    
C43   C83   A    
C124  C139  A    
C69   C77   A    
C127  C134  A    
C13   C145  A    
C43   C51   A    
C92   C125  S    
C49   C104  S    
C71   C79   A    
C34   O57   S    
C16   H16   S    
C51   C102  S    
C30   C38   A    
O27   Zn8   S    
C8    O32   A    
C108  C115  A    
O25   Zn6   S    
C109  C111  A    
O4    Zn4   S    
C95   O15   A    
C60   O64   S    
C66   C74   A    
C58   O62   S    
C49   C57   A    
C124  C132  A    
C64   O68   S    
C165  H84   S    
C52   C60   A    
C59   C67   A    
C129  C135  A    
C53   C61   A    
O52   C152  S    
C162  H76   S    
C55   C63   A    
C95   C130  S    
C1    C65   S    
C56   C64   A    
C93   C132  S    
C10   H10   S    
C44   C52   A    
C104  O46   A    
C77   C85   A    
C90   O18   A    
O54   C155  S    
C168  H91   S    
C56   C97   S    
C19   C83   S    
C99   O41   A    
C96   O16   A    
C106  C111  A    
C184  H132  S    
C99   O35   A    
C131  C136  A    
C42   H26   S    
O21   Zn5   S    
C4    C68   S    
C169  H93   S    
C59   O63   S    
C179  C180  S    
C47   C87   A    
C39   O56   S    
O56   C159  S    
C166  H87   S    
C158  H65   S    
C80   H40   S    
C175  H109  S    
C152  H51   S    
C177  C178  S    
C60   C68   A    
C42   C50   A    
C94   O22   A    
C20   C84   S    
C54   C99   S    
C67   C75   A    
C133  O49   S    
C48   H32   S    
C93   O13   A    
C105  C109  A    
C22   C30   A    
C119  C138  A    
O5    Zn5   S    
C44   H28   S    
C151  H47   S    
C2    C66   S    
C91   O19   A    
C74   H34   S    
C68   C76   A    
C89   O9    A    
C135  O51   S    
C45   C85   A    
C95   O23   A    
C121  C139  A    
C122  C140  A    
C72   C80   A    
C31   H23   S    
C149  H43   S    
C98   O34   A    
C154  H56   S    
C17   C38   A    
C107  C139  A    
C110  C112  A    
C107  C116  A    
C180  H121  S    
C153  C154  S    
C19   C40   A    
C105  C137  A    
O41   Zn11  S    
C155  H58   S    
C167  H89   S    
C182  H126  S    
C92   O12   A    
C117  C125  A    
C89   C128  S    
O51   C151  S    
C25   C33   A    
C178  H116  S    
C119  C127  A    
C181  H123  S    
C96   O24   A    
C4    O4    A    
O2    Zn2   S    
C76   C84   A    
C174  H105  S    
O13   Zn2   S    
C176  H111  S    
C12   C113  A    
C159  H68   S    
C171  H99   S    
C136  O52   S    
C119  C147  A    
C40   O55   S    
C102  O38   A    
C158  H67   S    
C117  C145  A    
C10   C142  A    
C108  C114  A    
C177  H113  S    
C30   H22   S    
C5    C69   S    
C6    O30   A    
O34   Zn12  S    
C155  C156  S    
O11   Zn8   S    
C90   C127  S    
C48   C88   A    
C94   O14   A    
C172  H101  S    
O47   Zn10  S    
O19   Zn3   S    
C150  H46   S    
C103  O45   A    
O53   C153  S    
C15   C110  A    
C74   C82   A    
C151  H49   S    
C170  H96   S    
O38   Zn10  S    
C53   C100  S    
O9    Zn6   S    
C21   C85   S    
C8    C72   S    
C50   C58   A    
O23   Zn7   S    
C35   O60   S    
C159  C160  S    
C20   C39   A    
C21   C34   A    
C54   C62   A    
C181  C182  S    
C25   H17   S    
C149  H41   S    
O62   C171  S    
O31   Zn4   S    
C14   H14   S    
O50   C150  S    
C121  C141  A    
C114  C116  A    
C9    H9    S    
C41   C81   A    
C46   C54   A    
O49   C149  S    
C63   O67   S    
C12   H12   S    
C173  H104  S    
C24   C88   S    
C1    O25   A    
C156  H61   S    
C7    O7    A    
C13   H13   S    
C174  H107  S    
C5    O5    A    
C182  H125  S    
C6    C70   S    
C163  H78   S    
C123  C131  A    
O48   Zn9   S    
C121  C129  A    
C44   C84   A    
C120  C128  A    
C183  H128  S    
O33   Zn11  S    
C94   C131  S    
C173  C174  S    
C142  H2    S    
C100  O42   A    
O46   Zn10  S    
C15   C147  A    
C168  H92   S    
C75   C83   A    
C164  H80   S    
O7    Zn7   S    
C8    O8    A    
C17   C81   S    
C22   C86   S    
O60   C167  S    
C179  H119  S    
C164  H81   S    
C28   C36   A    
C144  H4    S    
C162  H75   S    
C29   C37   A    
C153  H53   S    
C120  C137  A    
C148  H8    S    
O30   Zn1   S    
O66   C179  S    
C163  C164  S    
C91   C126  S    
C70   C78   A    
C77   H37   S    
C168  H90   S    
C46   H30   S    
O43   Zn12  S    
C42   C82   A    
C75   H35   S    
O20   Zn4   S    
C183  C184  S    
C141  H1    S    
O58   C163  S    
C184  H131  S    
C161  C162  S    
O55   C157  S    
C79   H39   S    
O8    Zn8   S    
O26   Zn5   S    
C5    O29   A    
C18   C37   A    
C7    C71   S    
C157  H63   S    
C169  H94   S    
C106  C138  A    
C100  O36   A    
C65   C73   A    
C3    C67   S    
C11   C114  A    
C47   H31   S    
C179  H118  S    
C41   C49   A    
C97   O33   A    
C166  H86   S    
C101  O47   A    
O32   Zn3   S    
C19   C27   A    
C152  H50   S    
C45   H29   S    
C182  H127  S    
C7    O31   A    
C78   C86   A    
C32   C40   A    
C23   C87   S    
C175  H108  S    
C130  C136  A    
C58   C66   A    
O37   Zn9   S    
C14   C111  A    
C24   C35   A    
C118  C146  A    
C134  O50   S    
C151  H48   S    
C108  C140  A    
C9    C141  A    
C164  H82   S    
O40   Zn9   S    
C156  H60   S    
C123  C140  A    
C12   C144  A    
O17   Zn1   S    
C165  H83   S    
C92   O20   A    
C3    O3    A    
C162  H77   S    
O15   Zn4   S    
C154  H55   S    
O12   Zn7   S    
C180  H120  S    
C103  O39   A    
C93   O21   A    
C160  H72   S    
C155  H59   S    
C51   C59   A    
C122  C142  A    
C123  C143  A    
C150  H44   S    
O42   Zn12  S    
C47   C55   A    
C178  H115  S    
C106  C110  A    
C125  C133  A    
C145  H5    S    
C48   C56   A    
C22   C33   A    
C161  H73   S    
C26   H18   S    
C62   O66   S    
C181  H124  S    
O6    Zn6   S    
C117  C137  A    
C2    O26   A    
C90   O10   A    
O35   Zn12  S    
C176  H110  S    
C14   C146  A    
C16   C148  A    
O44   Zn11  S    
C91   O11   A    
O24   Zn8   S    
C128  C133  A    
C159  H69   S    
C97   O43   A    
C132  C135  A    
C158  H66   S    
C31   C39   A    
C64   C72   A    
O59   C165  S    
C152  H52   S    
C177  H114  S    
C45   C53   A    
C37   O54   S    
C124  C144  A    
C118  C126  A    
C172  H100  S    
C76   H36   S    
O29   Zn2   S    
C122  C130  A    
C10   C115  A    
C1    O1    A    
C46   C86   A    
