data_mof_unit_46515.cif
_audit_creation_date              2012-12-10T17:32:16-0500
_audit_creation_method            fapswitch 2.2
_symmetry_space_group_name_H-M    P1
_symmetry_Int_Tables_number       1
_space_group_crystal_system       triclinic
_cell_length_a                    15.426446
_cell_length_b                    15.555849
_cell_length_c                    15.485684
_cell_angle_alpha                 91.516916
_cell_angle_beta                  72.943977
_cell_angle_gamma                 111.940467
_cell_volume                      3280.86165796

loop_
_atom_site_label
_atom_site_type_symbol
_atom_type_description
_atom_site_fract_x
_atom_site_fract_y
_atom_site_fract_z
_atom_type_partial_charge
C1    C     C_R   0.462563 0.258646 0.464071 0.496123
C2    C     C_R   0.536310 0.514637 0.108651 -0.088095
C3    C     C_R   0.607429 0.674584 0.136515 -0.110793
C4    C     C_R   0.536152 0.741720 0.535752 0.482470
C5    C     C_R   0.425767 0.431486 0.841923 -0.027944
C6    C     C_R   0.436860 0.041628 0.348954 -0.056960
C7    C     C_R   0.449132 0.161999 0.451857 0.029938
C8    C     C_R   0.548103 0.858344 0.645665 -0.119417
C9    C     C_R   0.524850 0.932437 0.682367 -0.003731
C10   C     C_R   0.498927 0.985107 0.630415 -0.061560
C11   C     C_R   0.508989 0.973100 0.537474 0.039315
C12   C     C_R   0.350581 0.315495 0.972259 0.240821
C13   C     C_R   0.536897 0.899513 0.499429 0.015899
C14   C     C_R   0.486843 0.028841 0.482355 0.058683
C15   C     C_R   0.473726 0.997845 0.398513 -0.051005
C16   C     C_R   0.756528 0.550962 0.465135 0.501092
C17   C     C_R   0.506466 0.929130 0.360539 -0.104345
C18   C     C_R   0.551058 0.889823 0.405344 0.040729
C19   C     C_R   0.482292 0.116112 0.505112 0.195745
C20   C     C_R   0.421188 0.121736 0.376338 0.217427
C21   C     C_R   0.546504 0.836990 0.557448 0.000727
C22   C     C_R   0.006926 0.703717 0.469580 0.262972
C23   C     C_R   0.394160 0.382964 0.025935 0.297091
C24   C     C_R   0.861145 0.578080 0.454310 -0.013019
C25   C     C_R   0.068863 0.340175 0.586449 -0.135850
C26   C     C_R   0.968774 0.319382 0.607137 -0.119225
C27   C     C_R   0.934044 0.387075 0.591242 0.098990
C28   C     C_R   0.242684 0.450789 0.537942 0.503462
C29   C     C_R   0.003640 0.475137 0.544818 0.067913
C30   C     C_R   0.102290 0.501295 0.543659 -0.031946
C31   C     C_R   0.978244 0.540844 0.506209 -0.016738
C32   C     C_R   0.038855 0.637471 0.496819 0.073409
C33   C     C_R   0.129652 0.665037 0.514730 0.265051
C34   C     C_R   0.461520 0.473837 0.984827 0.020567
C35   C     C_R   0.161398 0.596746 0.534899 -0.136724
C36   C     C_R   0.898300 0.512224 0.470660 0.202561
C37   C     C_R   0.915875 0.672825 0.453463 -0.170885
C38   C     C_R   0.136836 0.431426 0.557120 0.021608
C39   C     C_R   0.552007 0.552434 0.259127 0.505035
C40   C     C_R   0.448140 0.451226 0.743004 0.509217
C41   C     C_R   0.602866 0.705353 0.054525 0.022437
C42   C     C_R   0.574497 0.580380 0.163478 0.004835
C43   C     C_R   0.369861 0.339832 0.880266 -0.157918
C44   C     C_3   0.520651 0.950453 0.779437 -0.277148
C45   C     C_R   0.465113 0.500373 0.896879 -0.042649
C46   C     C_3   0.623813 0.996549 0.787971 -0.431464
C47   C     C_3   0.621824 0.848747 0.348246 -0.258435
C48   C     C_3   0.706115 0.921671 0.276225 -0.456488
C49   C     C_3   0.640577 0.750537 0.848092 -0.304287
C50   C     C_3   0.700551 0.732193 0.756619 -0.422228
C51   C     C_3   0.827122 0.369705 0.642383 -0.248531
C52   C     C_3   0.819603 0.437813 0.714450 -0.447988
C53   C     C_3   0.616011 0.807034 0.046068 -0.280042
C54   C     C_3   0.722513 0.873422 0.032313 -0.448347
C55   C     C_R   0.520154 0.541321 0.030418 0.023657
C56   C     C_R   0.565856 0.637801 0.996036 0.049068
C57   C     C_R   0.568008 0.661380 0.907147 0.003822
C58   C     C_R   0.508391 0.595065 0.865401 -0.093180
H1    H     H_    0.630553 0.724576 0.183291 0.105390
H2    H     H_    0.516412 0.442665 0.130455 0.187305
H3    H     H_    0.339773 0.286775 0.838600 0.131504
H4    H     H_    0.498161 0.619521 0.806063 0.149167
H5    H     H_    0.498943 0.208638 0.593709 0.332616
H6    H     H_    0.666864 0.952585 0.763120 0.148360
H7    H     H_    0.662522 0.065632 0.747982 0.166701
H8    H     H_    0.619134 0.006485 0.860221 0.138242
H9    H     H_    0.480205 0.996644 0.804757 0.149141
H10   H     H_    0.480554 0.883735 0.823520 0.138726
H11   H     H_    0.679049 0.943498 0.225054 0.148702
H12   H     H_    0.506961 0.913341 0.291767 0.111163
H13   H     H_    0.743083 0.983696 0.308412 0.177302
H14   H     H_    0.760911 0.891936 0.241230 0.133841
H15   H     H_    0.657322 0.823749 0.388992 0.145808
H16   H     H_    0.581502 0.789419 0.315370 0.161940
H17   H     H_    0.249496 0.765292 0.522473 0.314851
H18   H     H_    0.029588 0.833685 0.442727 0.317179
H19   H     H_    0.734971 0.683620 0.767006 0.167061
H20   H     H_    0.654166 0.702667 0.711972 0.191325
H21   H     H_    0.759557 0.798765 0.721231 0.137565
H22   H     H_    0.600400 0.792941 0.836220 0.128771
H23   H     H_    0.423315 0.015379 0.286598 0.154904
H24   H     H_    0.695909 0.791644 0.879807 0.164925
H25   H     H_    0.820195 0.416942 0.409348 0.355108
H26   H     H_    0.861155 0.434506 0.761120 0.158034
H27   H     H_    0.848798 0.510084 0.682496 0.155420
H28   H     H_    0.741447 0.419285 0.754632 0.148957
H29   H     H_    0.783602 0.372640 0.598272 0.212867
H30   H     H_    0.788797 0.298303 0.677930 0.131796
H31   H     H_    0.744400 0.867479 0.093153 0.148398
H32   H     H_    0.774672 0.858088 0.973933 0.152986
H33   H     H_    0.729637 0.946248 0.020908 0.142860
H34   H     H_    0.558993 0.812464 0.689252 0.127407
H35   H     H_    0.587943 0.823447 0.993275 0.141417
H36   H     H_    0.569596 0.821695 0.109966 0.144342
H37   H     H_    0.315001 0.300609 0.138468 0.388365
H38   H     H_    0.265307 0.187992 0.964559 0.324738
H39   H     H_    0.366322 0.210960 0.355439 0.329688
H40   H     H_    0.467413 0.032440 0.665209 0.170240
H41   H     H_    0.886406 0.723090 0.441389 0.108205
H42   H     H_    0.092799 0.285430 0.597796 0.142684
H43   H     H_    0.918082 0.250689 0.638948 0.111646
H44   H     H_    0.230548 0.619997 0.549234 0.136018
O1    O     O_3   0.500000 0.500000 0.500000 -0.434892
O2    O     O_R   0.588830 0.499590 0.285390 -0.534608
O3    O     O_R   0.395900 0.395880 0.699370 -0.541940
O4    O     O_R   0.493280 0.582590 0.315890 -0.536470
O5    O     O_R   0.521980 0.521940 0.699340 -0.557794
O6    O     O_3   0.526210 0.161860 0.568383 -0.727907
O7    O     O_3   0.188126 0.758430 0.509444 -0.615543
O8    O     O_3   0.062689 0.797915 0.462946 -0.609935
O9    O     O_3   0.863429 0.422109 0.447008 -0.703797
O10   O     O_3   0.364141 0.364848 0.119329 -0.706805
O11   O     O_3   0.289924 0.226116 0.011046 -0.701829
O12   O     O_R   0.708210 0.582550 0.530770 -0.547317
O13   O     O_3   0.385799 0.162030 0.323334 -0.674968
O14   O     O_R   0.270260 0.395900 0.573760 -0.545712
O15   O     O_R   0.537060 0.322180 0.411040 -0.509296
O16   O     O_R   0.484470 0.699370 0.484430 -0.546726
O17   O     O_R   0.404710 0.279110 0.530840 -0.560814
O18   O     O_R   0.573760 0.699350 0.573690 -0.570412
O19   O     O_R   0.714470 0.499570 0.411000 -0.541123
O20   O     O_R   0.307050 0.521980 0.484470 -0.535451
Zn1   Zn    Zn3+2 0.574690 0.574670 0.574650 0.900406
Zn2   Zn    Zn3+2 0.583640 0.456100 0.403530 0.963997
Zn3   Zn    Zn3+2 0.447120 0.574690 0.447120 0.933788
Zn4   Zn    Zn3+2 0.394550 0.394550 0.574700 0.937759

loop_
_geom_bond_atom_site_label_1
_geom_bond_atom_site_label_2
_ccdc_geom_bond_type
C58   H4    S    
C39   O4    A    
C55   C56   A    
C3    C42   A    
C27   C29   A    
O5    Zn1   S    
C48   H11   S    
C35   H44   S    
O1    Zn1   S    
C18   C47   S    
C39   O2    A    
C53   C54   S    
C23   O10   S    
O4    Zn3   S    
C26   C27   A    
C24   C36   A    
C22   C32   A    
O3    Zn4   S    
C52   H27   S    
O15   Zn2   S    
C46   H8    S    
C12   C43   A    
H37   O10   S    
C31   C36   A    
C26   H43   S    
C11   C14   A    
C2    H2    S    
C49   C57   S    
C56   C57   A    
C30   C38   A    
C52   H26   S    
C1    O17   A    
C10   H40   S    
O1    Zn4   S    
O19   Zn2   S    
C28   O14   A    
C6    C15   A    
C47   C48   S    
C27   C51   S    
C8    C9    A    
C22   O8    S    
C16   O12   A    
C8    H34   S    
O16   Zn3   S    
H39   O13   S    
C9    C10   A    
O18   Zn1   S    
C19   O6    S    
C5    C43   A    
C34   C55   A    
C16   C24   S    
C6    H23   S    
O14   Zn4   S    
C50   H21   S    
C4    O16   A    
C48   H14   S    
O1    Zn2   S    
C50   H20   S    
C44   C46   S    
C24   C37   A    
C39   C42   S    
C45   C58   A    
H17   O7    S    
C53   H35   S    
C51   C52   S    
C47   H15   S    
C46   H7    S    
C51   H29   S    
C25   C26   A    
C22   C37   A    
C5    C45   A    
C46   H6    S    
C49   H24   S    
C16   O19   A    
C41   C56   A    
C29   C30   A    
C25   C38   A    
C25   H42   S    
C31   C32   A    
C12   C23   A    
C28   C38   S    
C23   C34   A    
C36   O9    S    
C17   C18   A    
C13   C21   A    
C34   C45   A    
C1    O15   A    
C41   C53   S    
C54   H31   S    
C40   O5    A    
O12   Zn1   S    
C13   C18   A    
C7    C20   A    
C7    C19   A    
H25   O9    S    
H38   O11   S    
C44   H10   S    
C33   O7    S    
C48   H13   S    
C50   H19   S    
C37   H41   S    
C6    C20   A    
C43   H3    S    
C12   O11   S    
C15   C17   A    
C3    C41   A    
C9    C44   S    
C53   H36   S    
C1    C7    S    
C14   C19   A    
C47   H16   S    
C8    C21   A    
C51   H30   S    
C20   O13   S    
C54   H32   S    
O2    Zn2   S    
C30   C35   A    
C49   H22   S    
C2    C55   A    
C32   C33   A    
O20   Zn3   S    
C52   H28   S    
C54   H33   S    
C29   C31   A    
C4    C21   S    
C11   C13   A    
C57   C58   A    
C2    C42   A    
C33   C35   A    
C28   O20   A    
O1    Zn3   S    
C10   C11   A    
O17   Zn4   S    
C17   H12   S    
H18   O8    S    
C49   C50   S    
C5    C40   S    
C14   C15   A    
C4    O18   A    
C44   H9    S    
H5    O6    S    
C40   O3    A    
C3    H1    S    
