data_mof_unit_55272.cif
_audit_creation_date              2013-03-05T15:41:31-0500
_audit_creation_method            fapswitch 2.2
_symmetry_space_group_name_H-M    P1
_symmetry_Int_Tables_number       1
_space_group_crystal_system       triclinic
_cell_length_a                    24.542465
_cell_length_b                    17.411246
_cell_length_c                    15.482345
_cell_angle_alpha                 89.761898
_cell_angle_beta                  129.211471
_cell_angle_gamma                 90.264348
_cell_volume                      5126.00778074

loop_
_atom_site_label
_atom_site_type_symbol
_atom_site_description
_atom_site_fract_x
_atom_site_fract_y
_atom_site_fract_z
_atom_type_partial_charge
C1    C     C_R   0.334718 0.389801 0.199171 -0.164150
C2    C     C_R   0.334170 0.609110 0.198615 -0.154864
C3    C     C_R   0.850695 0.858765 0.241464 -0.131054
C4    C     C_R   0.847109 0.136301 0.229369 -0.130163
H1    H     H_    0.281618 0.391384 0.170536 0.096251
H2    H     H_    0.281299 0.607096 0.170906 0.093618
H3    H     H_    0.802645 0.845021 0.227172 0.100703
H4    H     H_    0.795254 0.146284 0.202737 0.104939
N1    N     N_R   0.389430 0.421450 0.294590 -0.039794
N2    N     N_R   0.389430 0.578550 0.294590 -0.038227
N3    N     N_R   0.889430 0.921450 0.294590 -0.041613
N4    N     N_R   0.889430 0.078550 0.294590 -0.041532
C5    C     C_R   0.666910 0.390777 0.798469 -0.096648
C6    C     C_R   0.667586 0.606236 0.801461 -0.117279
C7    C     C_R   0.150515 0.861250 0.757918 -0.106415
C8    C     C_R   0.153449 0.136008 0.763250 -0.123538
H5    H     H_    0.719272 0.389978 0.823867 0.114470
H6    H     H_    0.720608 0.604432 0.829689 0.111085
H7    H     H_    0.198367 0.847327 0.771942 0.120245
H8    H     H_    0.201524 0.149499 0.777447 0.123137
N5    N     N_R   0.612200 0.424040 0.705410 -0.052746
N6    N     N_R   0.612200 0.575960 0.705410 -0.048830
N7    N     N_R   0.112200 0.924040 0.705410 -0.049858
N8    N     N_R   0.112200 0.075960 0.705410 -0.049173
C9    C     C_R   0.614652 0.396741 0.407204 -0.133009
C10   C     C_R   0.588405 0.642895 0.406630 -0.135150
C11   C     C_R   0.115205 0.898118 0.407046 -0.145202
C12   C     C_R   0.115815 0.103076 0.408010 -0.145067
H9    H     H_    0.591167 0.393224 0.320295 0.100061
H10   H     H_    0.561019 0.656001 0.320060 0.110525
H11   H     H_    0.092472 0.897913 0.320391 0.103003
H12   H     H_    0.093952 0.105110 0.321728 0.100987
N9    N     N_R   0.581780 0.422390 0.443390 -0.039073
N10   N     N_R   0.581780 0.577610 0.443390 -0.045486
N11   N     N_R   0.081780 0.922390 0.443390 -0.042220
N12   N     N_R   0.081780 0.077610 0.443390 -0.040221
C13   C     C_R   0.413553 0.358078 0.594256 0.010888
C14   C     C_R   0.411860 0.641025 0.593704 0.006337
C15   C     C_R   0.886644 0.899453 0.593809 -0.097846
C16   C     C_R   0.903147 0.132291 0.593816 -0.010000
H13   H     H_    0.440424 0.346294 0.680974 0.116718
H14   H     H_    0.438453 0.653598 0.680202 0.113878
H15   H     H_    0.910554 0.899915 0.680588 0.163425
H16   H     H_    0.923403 0.138206 0.678578 0.111019
N13   N     N_R   0.419850 0.423100 0.556610 -0.045882
N14   N     N_R   0.419850 0.576900 0.556610 -0.044342
N15   N     N_R   0.919850 0.923100 0.556610 -0.057266
N16   N     N_R   0.919850 0.076900 0.556610 -0.051168
C17   C     C_R   0.689210 0.398474 0.592530 -0.116723
C18   C     C_R   0.663666 0.642092 0.592729 -0.130034
C19   C     C_R   0.189733 0.899323 0.591592 -0.143480
C20   C     C_R   0.189780 0.100857 0.592713 -0.136049
H17   H     H_    0.735709 0.398037 0.679162 0.111782
H18   H     H_    0.707343 0.654312 0.678721 0.119984
H19   H     H_    0.236961 0.899536 0.677668 0.115247
H20   H     H_    0.236750 0.098308 0.678865 0.110424
N17   N     N_R   0.627410 0.423100 0.556610 -0.038480
N18   N     N_R   0.627410 0.576900 0.556610 -0.043743
N19   N     N_R   0.127410 0.923100 0.556610 -0.040346
N20   N     N_R   0.127410 0.076900 0.556610 -0.037769
C21   C     C_R   0.338512 0.356772 0.408238 -0.093758
C22   C     C_R   0.335996 0.640981 0.407470 -0.099274
C23   C     C_R   0.812019 0.898985 0.409606 -0.126475
C24   C     C_R   0.827890 0.132907 0.407844 -0.099625
H21   H     H_    0.295060 0.343508 0.322501 0.092589
H22   H     H_    0.292835 0.653114 0.321247 0.096582
H23   H     H_    0.765145 0.899133 0.323394 0.128508
H24   H     H_    0.779997 0.139582 0.323627 0.100319
N21   N     N_R   0.374220 0.422390 0.443390 -0.039521
N22   N     N_R   0.374220 0.577610 0.443390 -0.041270
N23   N     N_R   0.874220 0.922390 0.443390 -0.049276
N24   N     N_R   0.874220 0.077610 0.443390 -0.039767
C25   C     C_R   0.577069 0.391601 0.801620 -0.107415
C26   C     C_R   0.576851 0.607197 0.801860 -0.125576
C27   C     C_R   0.059351 0.860613 0.759147 -0.130068
C28   C     C_R   0.065010 0.134525 0.770492 -0.081830
H25   H     H_    0.548747 0.393432 0.833759 0.113741
H26   H     H_    0.547706 0.605403 0.832606 0.114232
H27   H     H_    0.022946 0.844547 0.773203 0.127286
H28   H     H_    0.034407 0.146692 0.796559 0.117308
N25   N     N_R   0.555000 0.424040 0.705410 -0.056705
N26   N     N_R   0.555000 0.575960 0.705410 -0.051882
N27   N     N_R   0.055000 0.924040 0.705410 -0.050888
N28   N     N_R   0.055000 0.075960 0.705410 -0.056509
C29   C     C_R   0.426352 0.388215 0.200551 -0.055360
C30   C     C_R   0.424623 0.609336 0.197674 -0.076296
C31   C     C_R   0.942354 0.858381 0.241291 -0.046837
C32   C     C_R   0.940768 0.138605 0.234949 -0.048820
H29   H     H_    0.456811 0.388809 0.172085 0.132018
H30   H     H_    0.453605 0.606582 0.166730 0.132299
H31   H     H_    0.979172 0.842951 0.228111 0.138786
H32   H     H_    0.977569 0.153378 0.221246 0.133584
N29   N     N_R   0.446630 0.421450 0.294590 -0.053258
N30   N     N_R   0.446630 0.578550 0.294590 -0.050994
N31   N     N_R   0.946630 0.921450 0.294590 -0.054844
N32   N     N_R   0.946630 0.078550 0.294590 -0.053991
C33   C     C_R   0.356175 0.368245 0.138438 0.043324
C34   C     C_R   0.354526 0.629323 0.135925 0.042399
C35   C     C_R   0.883280 0.817110 0.208545 0.028727
C36   C     C_R   0.879777 0.177328 0.195946 0.034625
C37   C     C_R   0.646725 0.370577 0.861221 0.157712
C38   C     C_R   0.647054 0.626433 0.863522 0.158888
C39   C     C_R   0.117826 0.819432 0.790587 0.136670
C40   C     C_R   0.123741 0.175232 0.802037 0.137033
C41   C     C_R   0.683053 0.382323 0.499915 0.039618
C42   C     C_R   0.639692 0.685548 0.499431 0.074692
C43   C     C_R   0.183973 0.884191 0.498913 0.050512
C44   C     C_R   0.184404 0.117297 0.500855 0.054636
C45   C     C_R   0.362255 0.314577 0.502220 0.017839
C46   C     C_R   0.358886 0.682875 0.501013 0.017822
C47   C     C_R   0.817620 0.885198 0.502995 0.081955
C48   C     C_R   0.848694 0.171978 0.501389 0.026917
Ni1   Ni    Ni4+2 0.382890 0.500000 0.370170 0.239097
Ni2   Ni    Ni4+2 0.882890 0.000000 0.370170 0.253300
Ni3   Ni    Ni4+2 0.618740 0.500000 0.629830 0.218645
Ni4   Ni    Ni4+2 0.118740 0.000000 0.629830 0.224225
Ni5   Ni    Ni4+2 0.514090 0.500000 0.370170 0.216894
Ni6   Ni    Ni4+2 0.014090 0.000000 0.370170 0.230018
Ni7   Ni    Ni4+2 0.487550 0.500000 0.629830 0.266932
Ni8   Ni    Ni4+2 0.987550 0.000000 0.629830 0.245698
C49   C     C_3   0.359560 0.214766 0.618326 0.239240
C50   C     C_3   0.360746 0.800105 0.598974 0.257935
C51   C     C_3   0.766863 0.856207 0.603271 0.246028
C52   C     C_3   0.854078 0.282205 0.609364 0.262856
H33   H     H_    0.378265 0.257306 0.685004 0.120794
H34   H     H_    0.394371 0.769300 0.679903 0.113164
H35   H     H_    0.750258 0.916673 0.595240 0.179017
H36   H     H_    0.879596 0.245985 0.684901 0.110453
C53   C     C_3   0.712088 0.803882 0.593577 -0.455430
C54   C     C_3   0.806772 0.338911 0.610430 -0.487017
C55   C     C_3   0.309549 0.160508 0.617336 -0.478308
C56   C     C_3   0.311053 0.852994 0.601351 -0.475292
H37   H     H_    0.736015 0.775632 0.674784 0.204404
H38   H     H_    0.825172 0.399241 0.620867 0.201648
H39   H     H_    0.328654 0.100155 0.635980 0.204439
H40   H     H_    0.323073 0.914754 0.601823 0.200962
H41   H     H_    0.308753 0.179304 0.685117 0.174470
H42   H     H_    0.320259 0.841979 0.680412 0.183905
H43   H     H_    0.668097 0.839356 0.574755 0.196282
H44   H     H_    0.810447 0.324838 0.684071 0.179162
H45   H     H_    0.594785 0.817241 0.369948 0.220853
H46   H     H_    0.699480 0.238610 0.561668 0.221875
H47   H     H_    0.204510 0.265132 0.548447 0.214717
H48   H     H_    0.213570 0.744669 0.576634 0.211551
C57   C     C_3   0.253739 0.302196 0.476789 0.177233
C58   C     C_3   0.265242 0.695835 0.514862 0.170152
C59   C     C_3   0.690414 0.846571 0.390787 0.196838
C60   C     C_3   0.748650 0.188768 0.496334 0.178734
C61   C     C_3   0.287560 0.196671 0.409286 -0.372353
C62   C     C_3   0.268361 0.785037 0.389081 -0.379523
C63   C     C_3   0.790118 0.754005 0.510911 -0.402599
C64   C     C_3   0.770352 0.283017 0.397053 -0.397036
C65   C     C_3   0.318234 0.257530 0.503344 0.011720
C66   C     C_3   0.315543 0.740552 0.502195 0.004811
C67   C     C_3   0.767618 0.838305 0.503967 0.004012
C68   C     C_3   0.807373 0.230681 0.502404 0.010376
H49   H     H_    0.784337 0.739487 0.435416 0.156119
H50   H     H_    0.732562 0.249210 0.319782 0.150788
H51   H     H_    0.255654 0.224773 0.326059 0.145796
H52   H     H_    0.230750 0.745061 0.319759 0.151414
H53   H     H_    0.329762 0.165371 0.417164 0.234181
H54   H     H_    0.300077 0.811576 0.368359 0.223929
H55   H     H_    0.846479 0.744460 0.583044 0.220545
H56   H     H_    0.808505 0.308414 0.388923 0.222331
C69   C     C_3   0.682957 0.744068 0.499399 0.239799
C70   C     C_3   0.729656 0.330715 0.501005 0.261437
C71   C     C_3   0.234551 0.164608 0.502489 0.253343
C72   C     C_3   0.232921 0.835700 0.499443 0.261754
C73   C     C_3   0.641256 0.788647 0.387316 -0.486495
C74   C     C_3   0.702020 0.248485 0.493170 -0.459140
C75   C     C_3   0.206892 0.247794 0.481720 -0.473121
C76   C     C_3   0.213918 0.751942 0.505475 -0.461415
C77   C     C_3   0.744423 0.699796 0.518096 -0.354894
C78   C     C_3   0.728647 0.345965 0.401130 -0.376705
C79   C     C_3   0.239483 0.140312 0.411083 -0.381228
C80   C     C_3   0.224679 0.846073 0.392080 -0.381790
H57   H     H_    0.777489 0.671469 0.601360 0.204259
H58   H     H_    0.751907 0.403281 0.409921 0.198981
H59   H     H_    0.260741 0.080982 0.427724 0.197371
H60   H     H_    0.241988 0.904668 0.389736 0.198913
H61   H     H_    0.723846 0.653664 0.454600 0.156735
H62   H     H_    0.674375 0.345643 0.320365 0.155647
H63   H     H_    0.186701 0.140297 0.327402 0.156138
H64   H     H_    0.169204 0.839136 0.315592 0.159364
H65   H     H_    0.221455 0.323098 0.388938 0.096639
H66   H     H_    0.233404 0.654834 0.443765 0.114247
H67   H     H_    0.689857 0.829731 0.320959 0.074984
H68   H     H_    0.714921 0.156412 0.416128 0.129265
H69   H     H_    0.620903 0.748518 0.317122 0.152706
H70   H     H_    0.647250 0.241937 0.413723 0.171537
H71   H     H_    0.152162 0.251664 0.401488 0.164270
H72   H     H_    0.159509 0.738482 0.428807 0.163826
H73   H     H_    0.214628 0.628088 0.990977 0.118536
H74   H     H_    0.216817 0.373025 0.990434 0.124398
H75   H     H_    0.791948 0.276345 0.177328 0.112839
H76   H     H_    0.787845 0.721700 0.177851 0.113468
H77   H     H_    0.786081 0.380677 0.009273 0.167106
H78   H     H_    0.786614 0.617354 0.014202 0.169149
H79   H     H_    0.207769 0.720458 0.812052 0.175802
H80   H     H_    0.207769 0.278429 0.813240 0.171466
C81   C     C_2   0.692880 0.340721 0.975034 -0.206816
C82   C     C_2   0.692725 0.655588 0.977823 -0.217848
C83   C     C_2   0.143753 0.747808 0.854419 -0.222581
C84   C     C_2   0.151033 0.245559 0.867753 -0.145778
C85   C     C_2   0.762651 0.346039 0.036597 -0.055511
C86   C     C_2   0.762658 0.651109 0.040896 -0.047878
C87   C     C_2   0.193203 0.706995 0.863531 -0.022097
C88   C     C_2   0.195960 0.289902 0.868704 -0.016842
C89   C     C_2   0.308818 0.658461 0.020775 0.325286
C90   C     C_2   0.311173 0.338325 0.024202 0.324589
C91   C     C_2   0.853251 0.247902 0.129457 0.335598
C92   C     C_2   0.857518 0.745256 0.144385 0.327871
C93   C     C_2   0.238506 0.656699 0.959875 -0.214761
C94   C     C_2   0.240949 0.342169 0.961683 -0.223591
C95   C     C_2   0.806552 0.290848 0.126011 -0.208680
C96   C     C_2   0.806176 0.705239 0.132564 -0.213684
H81   H     H_    0.669664 0.306586 0.003423 0.158487
H82   H     H_    0.668852 0.688609 0.005589 0.153537
H83   H     H_    0.128552 0.733812 0.905109 0.152057
H84   H     H_    0.138956 0.257457 0.922927 0.144213
N33   N     N_R   0.421687 0.173667 0.648253 0.247128
O1    O     O_R   0.415457 0.109405 0.599990 -0.348059
O2    O     O_R   0.484257 0.197146 0.732541 -0.386236
N34   N     N_R   0.408193 0.844372 0.590077 0.251318
O3    O     O_R   0.385312 0.901449 0.520504 -0.365878
O4    O     O_R   0.475346 0.830265 0.658786 -0.367973
N35   N     N_R   0.835252 0.847844 0.715098 0.228607
O5    O     O_R   0.865323 0.781084 0.752810 -0.401867
O6    O     O_R   0.861153 0.905628 0.783760 -0.352929
N36   N     N_R   0.910555 0.322109 0.618604 0.245953
O7    O     O_R   0.897481 0.381581 0.556932 -0.397609
O8    O     O_R   0.975676 0.302602 0.697128 -0.415328
N37   N     N_R   0.273319 0.369779 0.547696 0.247069
O9    O     O_R   0.255129 0.437703 0.502484 -0.341728
O10   O     O_R   0.303583 0.362868 0.653045 -0.374004
N38   N     N_R   0.302749 0.651069 0.618884 0.235044
O11   O     O_R   0.299916 0.576499 0.614437 -0.302620
O12   O     O_R   0.332333 0.684313 0.714402 -0.387133
N39   N     N_R   0.663574 0.925577 0.369680 0.254789
O13   O     O_R   0.655335 0.965956 0.291265 -0.385263
O14   O     O_R   0.639970 0.952888 0.418576 -0.360735
N40   N     N_R   0.776407 0.133138 0.587229 0.246337
O15   O     O_R   0.768778 0.060005 0.565571 -0.361365
O16   O     O_R   0.805479 0.155401 0.688181 -0.383174
Br1   Br    Br    0.353208 0.709014 0.968247 -0.501445
Br2   Br    Br    0.355575 0.283831 0.975100 -0.530613
Br3   Br    Br    0.880437 0.270653 0.039230 -0.533015
Br4   Br    Br    0.891263 0.718187 0.064664 -0.518680

loop_
_geom_bond_atom_site_label_1
_geom_bond_atom_site_label_2
_geom_bond_distance
_ccdc_geom_bond_type
C28   C40   1.386307 A    
C91   C95   1.343801 D    
C32   N32   1.338675 A    
N9    Ni5   1.870233 S    
C63   C77   1.519207 S    
C58   C76   1.529977 S    
H78   C86   1.083656 S    
C6    H6    1.080066 S    
C62   C80   1.534496 S    
N39   O13   1.301122 A    
C3    N3    1.334440 A    
C73   H69   1.111509 S    
C4    H4    1.076028 S    
C54   H44   1.111717 S    
N34   O3    1.301791 A    
C10   C42   1.383419 A    
C57   C75   1.524856 S    
C9    C41   1.376853 A    
C16   C48   1.376058 A    
C54   H38   1.112740 S    
C76   H72   1.114601 S    
C2    C34   1.387133 A    
C7    H7    1.079304 S    
N21   Ni1   1.856327 S    
C18   H18   1.078278 S    
C57   N37   1.469442 S    
N7    N27   1.403829 A    
C84   H84   1.087487 S    
C13   H13   1.076593 S    
C55   H41   1.112458 S    
C63   H49   1.114735 S    
C15   N15   1.324301 A    
C8    H8    1.079617 S    
C30   N30   1.342312 A    
C14   H14   1.078591 S    
C3    H3    1.079255 S    
C55   H39   1.112773 S    
C92   Br4   1.931929 S    
H76   C96   1.085289 S    
N30   Ni5   1.881207 S    
C6    C38   1.384724 A    
C51   N35   1.470324 S    
N25   Ni7   1.848489 S    
N2    N30   1.403829 A    
C56   H42   1.111261 S    
C27   C39   1.390675 A    
N24   Ni2   1.864595 S    
C87   C93   1.459191 S    
C17   N17   1.315719 A    
C41   C70   1.449425 S    
C22   N22   1.323462 A    
C9    H9    1.079925 S    
C80   H64   1.109836 S    
C91   Br3   1.930006 S    
N3    Ni2   1.875715 S    
C61   C65   1.558697 S    
C20   N20   1.320510 A    
N7    Ni4   1.834895 S    
C56   C72   1.558972 S    
C29   N29   1.338085 A    
C10   N10   1.323751 A    
C64   C68   1.561346 S    
C62   H52   1.111795 S    
C5    H5    1.080513 S    
N19   Ni4   1.855616 S    
C55   C71   1.554593 S    
C31   N31   1.339689 A    
N40   O16   1.301814 A    
C51   C67   1.581562 S    
C75   H71   1.114587 S    
C49   N33   1.471620 S    
C77   H57   1.113267 S    
C14   C46   1.386251 A    
C59   C67   1.576036 S    
N37   O9    1.300316 A    
C78   H58   1.112623 S    
H75   C95   1.086733 S    
N5    Ni3   1.834895 S    
C26   C38   1.381952 A    
C64   C78   1.531498 S    
N13   Ni7   1.857170 S    
N10   Ni5   1.865959 S    
C7    N7    1.332623 A    
C47   C67   1.478770 S    
C21   C45   1.385462 A    
C8    N8    1.331031 A    
C50   N34   1.470595 S    
N28   Ni8   1.844513 S    
C51   C53   1.547402 S    
C60   N40   1.471491 S    
C50   C66   1.565739 S    
C78   H62   1.109903 S    
C2    H2    1.079301 S    
N29   Ni5   1.877167 S    
N26   Ni7   1.844513 S    
N16   N24   1.358273 A    
C25   N25   1.344211 A    
C8    C40   1.385719 A    
N4    Ni2   1.867525 S    
C35   C92   1.469891 S    
C25   C37   1.384355 A    
N22   Ni1   1.864595 S    
C69   C73   1.552991 S    
C62   H54   1.110635 S    
C34   C89   1.470801 S    
C58   N38   1.473217 S    
C28   N28   1.344867 A    
C70   C78   1.552548 S    
C18   C42   1.387652 A    
N14   N22   1.358273 A    
C31   H31   1.079888 S    
C22   H22   1.077297 S    
N13   N21   1.358312 A    
C18   N18   1.326529 A    
C42   C69   1.468464 S    
C32   H32   1.080116 S    
C12   H12   1.080354 S    
C1    N1    1.334524 A    
N17   Ni3   1.855616 S    
H77   C85   1.084253 S    
C30   H30   1.081256 S    
C1    C33   1.390385 A    
H73   C93   1.084234 S    
C92   C96   1.344656 D    
C15   H15   1.073652 S    
C83   H83   1.087317 S    
C11   N11   1.325516 A    
C90   C94   1.342769 D    
N1    N29   1.403829 A    
C83   C87   1.337303 D    
C89   C93   1.345478 D    
N23   Ni2   1.856327 S    
C57   H65   1.116328 S    
C79   H59   1.112875 S    
C61   C79   1.544837 S    
C70   C74   1.553405 S    
N27   Ni8   1.848489 S    
C50   H34   1.108960 S    
N36   O8    1.300999 A    
C23   H23   1.078691 S    
C49   H33   1.108640 S    
N33   O1    1.301753 A    
C46   C66   1.474790 S    
C3    C35   1.396085 A    
N37   O10   1.301506 A    
C54   C70   1.554984 S    
C80   H60   1.112555 S    
C51   H35   1.108479 S    
N35   O5    1.301588 A    
C58   C66   1.569920 S    
C11   C43   1.376967 A    
C56   H40   1.112573 S    
N15   N23   1.358312 A    
C33   C90   1.466920 S    
H79   C87   1.084386 S    
N40   O15   1.300327 A    
N5    N25   1.403829 A    
C89   Br1   1.930911 S    
C5    N5    1.329810 A    
N39   O14   1.301849 A    
C32   C36   1.386674 A    
N38   O11   1.299676 A    
C61   H51   1.111526 S    
C12   N12   1.329448 A    
C64   H56   1.110357 S    
N2    Ni1   1.867525 S    
C49   C65   1.570101 S    
C64   H50   1.111663 S    
C53   H37   1.109743 S    
C40   C84   1.457499 S    
C19   C43   1.376460 A    
N6    Ni3   1.842953 S    
N35   O6    1.301914 A    
C44   C71   1.464713 S    
C23   N23   1.325336 A    
N8    Ni4   1.842953 S    
C50   C56   1.550515 S    
C4    C36   1.391793 A    
C11   H11   1.079274 S    
C62   C66   1.562278 S    
N18   Ni3   1.847382 S    
C1    H1    1.079514 S    
N20   Ni4   1.847382 S    
C19   N19   1.326970 A    
C90   Br2   1.930976 S    
C13   N13   1.323653 A    
C2    N2    1.335100 A    
C24   H24   1.075849 S    
C52   H36   1.108641 S    
C27   N27   1.343234 A    
C45   C65   1.472362 S    
C5    C37   1.384566 A    
N16   Ni8   1.861424 S    
C79   H63   1.111125 S    
C26   N26   1.343431 A    
C72   C76   1.549402 S    
N3    N31   1.403829 A    
C57   C65   1.570100 S    
C16   N16   1.317879 A    
H48   C76   1.113810 S    
C43   C72   1.467244 S    
N15   Ni8   1.857170 S    
C29   H29   1.081489 S    
C59   N39   1.471544 S    
H45   C73   1.112341 S    
C13   C45   1.386028 A    
C58   H66   1.116123 S    
C28   H28   1.075786 S    
C88   C94   1.453103 S    
N12   N20   1.358273 A    
N34   O4    1.301175 A    
H74   C94   1.084342 S    
C17   C41   1.373676 A    
C10   H10   1.077088 S    
C84   C88   1.335569 D    
N9    N17   1.358312 A    
C60   H68   1.116438 S    
C74   H70   1.114477 S    
C36   C91   1.463871 S    
C63   H55   1.111573 S    
C63   C67   1.549820 S    
N6    N26   1.403829 A    
C71   C75   1.546351 S    
C85   C95   1.453733 S    
C59   H67   1.113032 S    
C6    N6    1.334597 A    
C52   C68   1.569677 S    
C38   C82   1.462865 S    
C81   H81   1.087387 S    
N33   O2    1.301207 A    
C48   C68   1.450245 S    
N8    N28   1.403829 A    
C52   C54   1.535550 S    
N32   Ni6   1.881207 S    
C15   C47   1.376845 A    
C82   H82   1.087306 S    
C49   C55   1.537793 S    
C20   H20   1.079736 S    
H47   C75   1.113987 S    
C12   C44   1.378731 A    
C17   H17   1.079852 S    
C26   H26   1.081378 S    
C22   C46   1.386159 A    
N38   O12   1.301850 A    
N14   Ni7   1.861424 S    
C71   C79   1.555087 S    
C19   H19   1.080026 S    
C21   N21   1.327541 A    
C24   N24   1.318031 A    
C23   C47   1.383189 A    
N36   O7    1.301669 A    
C30   C34   1.384904 A    
C39   C83   1.462432 S    
N1    Ni1   1.875715 S    
C14   N14   1.328379 A    
C24   C48   1.375153 A    
C29   C33   1.383880 A    
N11   N19   1.358312 A    
C77   H61   1.114315 S    
C53   H43   1.113047 S    
C31   C35   1.392633 A    
C21   H21   1.078462 S    
C16   H16   1.075039 S    
C61   H53   1.108872 S    
C20   C44   1.371734 A    
C25   H25   1.081389 S    
H80   C88   1.085325 S    
C82   C86   1.336775 D    
N31   Ni6   1.877167 S    
C53   C69   1.552258 S    
N10   N18   1.358273 A    
C81   C85   1.335985 D    
N4    N32   1.403829 A    
N11   Ni6   1.870233 S    
C37   C81   1.460302 S    
N12   Ni6   1.865959 S    
C60   C68   1.561431 S    
C72   C80   1.552190 S    
C7    C39   1.390761 A    
C4    N4    1.335896 A    
C69   C77   1.552553 S    
C27   H27   1.080226 S    
C52   N36   1.471623 S    
H46   C74   1.113584 S    
C59   C73   1.543632 S    
C60   C74   1.527372 S    
C9    N9    1.319486 A    
C86   C96   1.458927 S    
