data_mof_unit_66050.cif
_audit_creation_date              2012-12-10T17:07:15-0500
_audit_creation_method            fapswitch 2.2
_symmetry_space_group_name_H-M    P1
_symmetry_Int_Tables_number       1
_space_group_crystal_system       triclinic
_cell_length_a                    30.879254
_cell_length_b                    30.355284
_cell_length_c                    21.295138
_cell_angle_alpha                 89.656412
_cell_angle_beta                  43.080669
_cell_angle_gamma                 89.880461
_cell_volume                      13633.5645394

loop_
_atom_site_label
_atom_site_type_symbol
_atom_type_description
_atom_site_fract_x
_atom_site_fract_y
_atom_site_fract_z
_atom_type_partial_charge
C1    C     C_R   0.308889 0.810274 0.501538 0.859649
C2    C     C_R   0.691147 0.189724 0.498391 0.859699
C3    C     C_R   0.690739 0.810202 0.499027 0.859133
C4    C     C_R   0.309263 0.189796 0.500971 0.859055
C5    C     C_R   0.808851 0.310276 0.501614 0.859712
C6    C     C_R   0.191157 0.689724 0.498371 0.859705
C7    C     C_R   0.190735 0.310204 0.499034 0.859045
C8    C     C_R   0.809268 0.689796 0.500962 0.859035
C9    C     C_R   0.373521 0.867928 0.573041 0.026669
C10   C     C_R   0.626132 0.132220 0.427345 0.026383
C11   C     C_R   0.669562 0.910397 0.421299 0.004694
C12   C     C_R   0.330424 0.089608 0.578746 0.004621
C13   C     C_R   0.873890 0.367771 0.572629 0.026377
C14   C     C_R   0.126039 0.632259 0.427448 0.026313
C15   C     C_R   0.169577 0.410385 0.421240 0.004609
C16   C     C_R   0.830423 0.589625 0.578782 0.004609
C17   C     C_R   0.332240 0.841878 0.580333 0.064760
C18   C     C_R   0.667461 0.158292 0.419911 0.064953
C19   C     C_R   0.697604 0.871822 0.416310 0.061169
C20   C     C_R   0.302403 0.128194 0.583719 0.061272
C21   C     C_R   0.832558 0.341697 0.580073 0.064905
C22   C     C_R   0.167381 0.658337 0.419976 0.064958
C23   C     C_R   0.197593 0.371798 0.416272 0.061258
C24   C     C_R   0.802416 0.628216 0.583741 0.061283
C25   C     C_R   0.337531 0.843577 0.508911 -0.071590
C26   C     C_R   0.662535 0.156416 0.490963 -0.072095
C27   C     C_R   0.661235 0.844086 0.494051 -0.069898
C28   C     C_R   0.338765 0.155904 0.505942 -0.069851
C29   C     C_R   0.837461 0.343585 0.509044 -0.072108
C30   C     C_R   0.162552 0.656414 0.490930 -0.072206
C31   C     C_R   0.161232 0.344096 0.494064 -0.069826
C32   C     C_R   0.838771 0.655902 0.505929 -0.069808
C33   C     C_R   0.376258 0.874131 0.437738 -0.193695
C34   C     C_R   0.624206 0.125639 0.561752 -0.193433
C35   C     C_R   0.597830 0.852365 0.573457 -0.197429
C36   C     C_R   0.402138 0.147572 0.426494 -0.197227
C37   C     C_R   0.875764 0.374377 0.438277 -0.193415
C38   C     C_R   0.124327 0.625579 0.561621 -0.193368
C39   C     C_R   0.097862 0.352438 0.573525 -0.197222
C40   C     C_R   0.902128 0.647538 0.426452 -0.197188
C41   C     C_R   0.411645 0.903022 0.435306 -0.178213
C42   C     C_R   0.588803 0.096736 0.564235 -0.177730
C43   C     C_R   0.568665 0.887582 0.575910 -0.132882
C44   C     C_R   0.431287 0.112339 0.424040 -0.132253
C45   C     C_R   0.911165 0.403283 0.435791 -0.177936
C46   C     C_R   0.088920 0.596672 0.564117 -0.177813
C47   C     C_R   0.068715 0.387671 0.575977 -0.132216
C48   C     C_R   0.931270 0.612303 0.424006 -0.132100
C49   C     C_R   0.410516 0.900559 0.502129 -0.086648
C50   C     C_R   0.589508 0.099405 0.497880 -0.086509
C51   C     C_R   0.602760 0.915306 0.499154 -0.125495
C52   C     C_R   0.397210 0.084656 0.500847 -0.125193
C53   C     C_R   0.910487 0.400600 0.502119 -0.086439
C54   C     C_R   0.089515 0.599395 0.497883 -0.086407
C55   C     C_R   0.102791 0.415345 0.499153 -0.125178
C56   C     C_R   0.897201 0.584646 0.500850 -0.125117
C57   C     C_R   0.934194 0.554725 0.500336 1.006209
C58   C     C_R   0.065802 0.445269 0.499664 1.006120
C59   C     C_R   0.057089 0.564446 0.499462 1.007538
C60   C     C_R   0.942910 0.435553 0.500539 1.007394
C61   C     C_R   0.434199 0.054733 0.500336 1.006229
C62   C     C_R   0.565779 0.945234 0.499666 1.005606
C63   C     C_R   0.557083 0.064452 0.499461 1.007632
C64   C     C_R   0.442927 0.935536 0.500543 1.006983
C65   C     C_R   0.335790 0.750000 0.328461 0.864727
C66   C     C_R   0.664209 0.250000 0.671539 0.864847
C67   C     C_R   0.664086 0.749899 0.671482 0.861439
C68   C     C_R   0.335914 0.250101 0.328518 0.861418
C69   C     C_R   0.835791 0.250000 0.328461 0.864853
C70   C     C_R   0.164208 0.749998 0.671539 0.864854
C71   C     C_R   0.164086 0.249899 0.671482 0.861405
C72   C     C_R   0.835914 0.750101 0.328518 0.861390
C73   C     C_1   0.386452 0.749794 0.226855 -0.201941
C74   C     C_1   0.613548 0.250206 0.773145 -0.201948
C75   C     C_1   0.613077 0.749548 0.773098 -0.201987
C76   C     C_1   0.386923 0.250452 0.226902 -0.202006
C77   C     C_1   0.886452 0.249794 0.226855 -0.201957
C78   C     C_1   0.113548 0.750205 0.773145 -0.201999
C79   C     C_1   0.113077 0.249548 0.773098 -0.202014
C80   C     C_1   0.886923 0.750452 0.226902 -0.202026
C81   C     C_1   0.428649 0.749629 0.142219 0.004803
C82   C     C_1   0.571351 0.250371 0.857781 0.004814
C83   C     C_1   0.570711 0.749413 0.857741 0.003409
C84   C     C_1   0.429289 0.250587 0.142259 0.003393
C85   C     C_1   0.928649 0.249629 0.142219 0.004803
C86   C     C_1   0.071351 0.750371 0.857781 0.004770
C87   C     C_1   0.070711 0.249413 0.857741 0.003383
C88   C     C_1   0.929290 0.750587 0.142259 0.003373
C89   C     C_1   0.478502 0.749475 0.042303 0.009004
C90   C     C_1   0.521498 0.250525 0.957697 0.009001
C91   C     C_1   0.520770 0.749401 0.957660 0.008323
C92   C     C_1   0.479231 0.250599 0.042340 0.008312
C93   C     C_1   0.978502 0.249474 0.042303 0.008988
C94   C     C_1   0.021499 0.750526 0.957697 0.008954
C95   C     C_1   0.020769 0.249401 0.957660 0.008301
C96   C     C_1   0.979231 0.750599 0.042339 0.008285
C97   C     C_R   0.287287 0.814212 0.657863 -0.156361
C98   C     C_R   0.712089 0.186155 0.342625 -0.156358
C99   C     C_R   0.761534 0.862180 0.334639 -0.163046
C100  C     C_R   0.238499 0.137871 0.665410 -0.163007
C101  C     C_R   0.787952 0.313821 0.657347 -0.156348
C102  C     C_R   0.211923 0.686251 0.342752 -0.156354
C103  C     C_R   0.261494 0.362111 0.334570 -0.162997
C104  C     C_R   0.738530 0.637924 0.665457 -0.162994
C105  C     C_R   0.286289 0.809969 0.723890 -0.203439
C106  C     C_R   0.712667 0.190588 0.277068 -0.203591
C107  C     C_R   0.798400 0.891672 0.261186 -0.204385
C108  C     C_R   0.201632 0.108405 0.738904 -0.204366
C109  C     C_R   0.787404 0.309374 0.722873 -0.203562
C110  C     C_R   0.212390 0.690734 0.277317 -0.203586
C111  C     C_R   0.298362 0.391569 0.261055 -0.204350
C112  C     C_R   0.701665 0.608483 0.738999 -0.204348
C113  C     C_R   0.332076 0.831101 0.711125 -0.142945
C114  C     C_R   0.666790 0.169428 0.290075 -0.142897
C115  C     C_R   0.773425 0.932105 0.269792 -0.148637
C116  C     C_R   0.226580 0.067965 0.730331 -0.148564
C117  C     C_R   0.833290 0.330536 0.709844 -0.142903
C118  C     C_R   0.166488 0.669566 0.290393 -0.142876
C119  C     C_R   0.273421 0.432011 0.269622 -0.148536
C120  C     C_R   0.726592 0.568036 0.730448 -0.148546
C121  C     C_R   0.376824 0.858780 0.635165 0.375201
C122  C     C_R   0.622392 0.141533 0.365764 0.374609
C123  C     C_R   0.710257 0.942420 0.349864 0.371903
C124  C     C_R   0.289723 0.057614 0.650243 0.371810
C125  C     C_R   0.877664 0.358446 0.634170 0.374636
C126  C     C_R   0.122181 0.641615 0.366012 0.374500
C127  C     C_R   0.210281 0.442372 0.349724 0.371800
C128  C     C_R   0.789717 0.557655 0.650331 0.371796
H1    H     H_    0.379621 0.875221 0.383376 0.150035
H2    H     H_    0.621148 0.124392 0.615798 0.150332
H3    H     H_    0.570882 0.831470 0.633793 0.148335
H4    H     H_    0.429077 0.168439 0.366126 0.148158
H5    H     H_    0.878803 0.375633 0.384249 0.150341
H6    H     H_    0.121348 0.624292 0.615584 0.150401
H7    H     H_    0.070924 0.331577 0.633904 0.148129
H8    H     H_    0.929059 0.668386 0.366058 0.148084
H9    H     H_    0.252455 0.795885 0.668183 0.141493
H10   H     H_    0.746988 0.204494 0.332131 0.141813
H11   H     H_    0.783419 0.831845 0.327055 0.136178
H12   H     H_    0.216632 0.168213 0.672976 0.136130
H13   H     H_    0.753048 0.295480 0.667854 0.141834
H14   H     H_    0.246841 0.704594 0.332210 0.141909
H15   H     H_    0.283357 0.331768 0.327009 0.136122
H16   H     H_    0.716677 0.668270 0.673009 0.136094
H17   H     H_    0.251861 0.788527 0.782779 0.161833
H18   H     H_    0.746831 0.212191 0.218383 0.161825
H19   H     H_    0.847440 0.884056 0.199115 0.163868
H20   H     H_    0.152611 0.116049 0.800989 0.163873
H21   H     H_    0.753258 0.287761 0.781547 0.161820
H22   H     H_    0.246486 0.712378 0.218684 0.161840
H23   H     H_    0.347381 0.383918 0.198960 0.163867
H24   H     H_    0.652659 0.616150 0.801106 0.163870
H25   H     H_    0.334259 0.824565 0.758826 0.172307
H26   H     H_    0.664262 0.176100 0.242798 0.172286
H27   H     H_    0.804194 0.956295 0.215178 0.176175
H28   H     H_    0.195806 0.043797 0.784989 0.176174
H29   H     H_    0.835845 0.323854 0.757091 0.172276
H30   H     H_    0.163868 0.676274 0.243226 0.172290
H31   H     H_    0.304197 0.456173 0.214947 0.176171
H32   H     H_    0.695815 0.543887 0.785149 0.176168
H33   H     H_    0.439700 0.927728 0.381169 0.162157
H34   H     H_    0.561055 0.071866 0.618044 0.161995
H35   H     H_    0.518613 0.892381 0.637700 0.205413
H36   H     H_    0.481323 0.107506 0.362216 0.204967
H37   H     H_    0.938893 0.428164 0.382001 0.161916
H38   H     H_    0.061253 0.571759 0.617842 0.161889
H39   H     H_    0.018680 0.392510 0.637810 0.204905
H40   H     H_    0.981298 0.607451 0.362162 0.204801
O1    O     O_R   0.321660 0.769950 0.500020 -0.609538
O2    O     O_R   0.678340 0.230050 0.499980 -0.609603
O3    O     O_R   0.678340 0.769950 0.499980 -0.605962
O4    O     O_R   0.321660 0.230050 0.500020 -0.605882
O5    O     O_R   0.821660 0.269950 0.500020 -0.609602
O6    O     O_R   0.178340 0.730050 0.499980 -0.609618
O7    O     O_R   0.178340 0.269950 0.499980 -0.605871
O8    O     O_R   0.821660 0.730050 0.500020 -0.605855
O9    O     O_R   0.269950 0.821670 0.500000 -0.608918
O10   O     O_R   0.730050 0.178330 0.500000 -0.608979
O11   O     O_R   0.730050 0.821670 0.500000 -0.608538
O12   O     O_R   0.269950 0.178330 0.500000 -0.608546
O13   O     O_R   0.769950 0.321670 0.500000 -0.609001
O14   O     O_R   0.230050 0.678330 0.500000 -0.609015
O15   O     O_R   0.230050 0.321670 0.500000 -0.608560
O16   O     O_R   0.769950 0.678330 0.500000 -0.608552
O17   O     O_R   0.339000 0.724150 0.373720 -0.591144
O18   O     O_R   0.661000 0.275850 0.626280 -0.591098
O19   O     O_R   0.661000 0.724150 0.626280 -0.600190
O20   O     O_R   0.339000 0.275850 0.373720 -0.600209
O21   O     O_R   0.839000 0.224150 0.373720 -0.591094
O22   O     O_R   0.161000 0.775850 0.626280 -0.591110
O23   O     O_R   0.161000 0.224150 0.626280 -0.600214
O24   O     O_R   0.839000 0.775850 0.373720 -0.600235
O25   O     O_R   0.287290 0.775870 0.373700 -0.605062
O26   O     O_R   0.712710 0.224130 0.626300 -0.605041
O27   O     O_R   0.712710 0.775870 0.626300 -0.593916
O28   O     O_R   0.287290 0.224130 0.373700 -0.593912
O29   O     O_R   0.787290 0.275870 0.373700 -0.605036
O30   O     O_R   0.212710 0.724130 0.626300 -0.604888
O31   O     O_R   0.212710 0.275870 0.626300 -0.593920
O32   O     O_R   0.787290 0.724130 0.373700 -0.593925
O33   O     O_R   0.989830 0.545820 0.428700 -0.605792
O34   O     O_R   0.010170 0.454180 0.571300 -0.605745
O35   O     O_R   0.010170 0.545820 0.571300 -0.656839
O36   O     O_R   0.989830 0.454180 0.428700 -0.656896
O37   O     O_R   0.489830 0.045820 0.428700 -0.605693
O38   O     O_R   0.510170 0.954180 0.571300 -0.605468
O39   O     O_R   0.510170 0.045820 0.571300 -0.656786
O40   O     O_R   0.489830 0.954180 0.428700 -0.657095
O41   O     O_R   0.918540 0.545810 0.571290 -0.593432
O42   O     O_R   0.081460 0.454190 0.428710 -0.593498
O43   O     O_R   0.081460 0.545810 0.428710 -0.546327
O44   O     O_R   0.918540 0.454190 0.571290 -0.546281
O45   O     O_R   0.418540 0.045810 0.571290 -0.593560
O46   O     O_R   0.581460 0.954190 0.428710 -0.593891
O47   O     O_R   0.581460 0.045810 0.428710 -0.546173
O48   O     O_R   0.418540 0.954190 0.571290 -0.545897
Zn1   Zn    Zn3+2 0.284530 0.715470 0.500010 0.981918
Zn2   Zn    Zn3+2 0.715470 0.284530 0.499990 0.981851
Zn3   Zn    Zn3+2 0.715470 0.715470 0.499990 0.984150
Zn4   Zn    Zn3+2 0.284530 0.284530 0.500010 0.984181
Zn5   Zn    Zn3+2 0.784530 0.215470 0.500010 0.981865
Zn6   Zn    Zn3+2 0.215470 0.784530 0.499990 0.981892
Zn7   Zn    Zn3+2 0.215470 0.215470 0.499990 0.984205
Zn8   Zn    Zn3+2 0.784530 0.784530 0.500010 0.984198
Zn9   Zn    Zn3+2 0.047600 0.500000 0.404790 1.055595
Zn10  Zn    Zn3+2 0.952400 0.500000 0.595210 1.055723
Zn11  Zn    Zn3+2 0.547600 1.000000 0.404790 1.055464
Zn12  Zn    Zn3+2 0.452400 1.000000 0.595210 1.056137
Cl1   Cl    Cl    0.442695 0.871757 0.611805 -0.677461
Cl2   Cl    Cl    0.556342 0.128469 0.389637 -0.677686
Cl3   Cl    Cl    0.691070 0.998522 0.363741 -0.646448
Cl4   Cl    Cl    0.308864 0.001505 0.636449 -0.646366
Cl5   Cl    Cl    0.943734 0.371513 0.610248 -0.677596
Cl6   Cl    Cl    0.056081 0.628530 0.390025 -0.677614
Cl7   Cl    Cl    0.191154 0.498484 0.363502 -0.646521
Cl8   Cl    Cl    0.808817 0.501538 0.636590 -0.646481

loop_
_geom_bond_atom_site_label_1
_geom_bond_atom_site_label_2
_ccdc_geom_bond_type
C128  Cl8   S    
O1    Zn1   S    
C88   C96   S    
O15   Zn4   S    
C41   H33   S    
C70   C78   S    
C16   C128  A    
C97   C105  A    
C69   C77   S    
C81   C89   S    
O6    Zn6   S    
C108  C116  A    
O5    Zn5   S    
C110  C118  A    
C1    O9    A    
C71   C79   S    
C45   H37   S    
C109  C117  A    
O34   Zn10  S    
C39   H7    S    
O33   Zn9   S    
O18   Zn2   S    
C11   C19   A    
O48   Zn12  S    
O17   Zn1   S    
C98   H10   S    
C42   H34   S    
C10   C18   A    
C105  C113  A    
C4    O12   A    
C52   C61   S    
C36   H4    S    
O40   Zn11  S    
O27   Zn8   S    
O21   Zn5   S    
C29   C37   A    
C123  Cl3   S    
C101  C109  A    
O44   Zn10  S    
C66   C74   S    
C57   O41   A    
C65   C73   S    
C56   C57   S    
C30   C38   A    
O12   Zn7   S    
C103  C111  A    
C5    O13   A    
C3    O11   A    
O2    Zn2   S    
C86   C94   S    
C4    C28   S    
C101  H13   S    
C60   O36   A    
O16   Zn3   S    
C23   C103  A    
C67   O19   A    
C34   C42   A    
C87   C95   S    
C9    C121  A    
C112  H24   S    
O10   Zn5   S    
C98   C106  A    
O9    Zn6   S    
C89   C91   T    
C35   C43   A    
C5    C29   S    
C46   C54   A    
O4    Zn4   S    
C36   C44   A    
C46   H38   S    
C105  H17   S    
C94   C96   T    
C13   C125  A    
C44   C52   A    
C6    O14   A    
C15   C23   A    
C77   C85   T    
C16   C24   A    
C49   C64   S    
C15   C127  A    
C79   C87   T    
C80   C88   T    
C1    C25   S    
C50   C63   S    
C62   O46   A    
C76   C84   T    
C51   C62   S    
C85   C93   S    
C16   C56   A    
C74   C82   T    
C67   O27   A    
C22   C102  A    
C41   C49   A    
C66   O26   A    
C53   C60   S    
C59   O43   A    
O20   Zn4   S    
C13   C53   A    
C54   C59   S    
C58   O42   A    
C122  Cl2   S    
C65   O17   A    
C100  C108  A    
C7    C31   S    
C117  H29   S    
C61   O45   A    
C28   C36   A    
C115  C123  A    
O24   Zn8   S    
C121  Cl1   S    
C2    C26   S    
C69   O21   A    
C112  C120  A    
C19   C99   A    
O19   Zn3   S    
C6    O6    A    
O22   Zn6   S    
C27   C35   A    
C107  H19   S    
C39   C47   A    
C21   C29   A    
C99   C107  A    
C7    O7    A    
C104  C112  A    
C24   C104  A    
C15   C55   A    
C109  H21   S    
C24   C32   A    
C125  Cl5   S    
C14   C126  A    
C72   O32   A    
C47   H39   S    
C90   C92   T    
C48   H40   S    
C42   C50   A    
C69   O29   A    
C18   C26   A    
C12   C20   A    
C25   C33   A    
C120  C128  A    
C111  H23   S    
C68   O28   A    
O8    Zn8   S    
C82   C90   S    
C84   C92   S    
O46   Zn11  S    
C60   O44   A    
C107  C115  A    
C124  Cl4   S    
C99   H11   S    
C73   C81   T    
O26   Zn5   S    
C10   C122  A    
C111  C119  A    
C9    C17   A    
O25   Zn6   S    
C6    C30   S    
C43   H35   S    
C106  C114  A    
C115  H27   S    
C3    O3    A    
O38   Zn12  S    
O42   Zn9   S    
C37   H5    S    
C118  H30   S    
O30   Zn1   S    
C67   C75   S    
O41   Zn10  S    
C37   C45   A    
O29   Zn2   S    
C10   C50   A    
C20   C28   A    
O23   Zn7   S    
C75   C83   T    
C19   C27   A    
C70   O22   A    
C47   C55   A    
C33   H1    S    
C48   C56   A    
C68   O20   A    
C40   C48   A    
C38   H6    S    
C40   H8    S    
C4    O4    A    
C2    O10   A    
C26   C34   A    
C2    O2    A    
C5    O5    A    
C100  H12   S    
C64   O48   A    
C119  H31   S    
C11   C123  A    
O31   Zn4   S    
C113  H25   S    
C17   C25   A    
C110  H22   S    
C103  H15   S    
C71   O23   A    
C8    O8    A    
C71   O31   A    
C118  C126  A    
C68   C76   S    
C61   O37   A    
C18   C98   A    
C12   C52   A    
C127  Cl7   S    
C106  H18   S    
C7    O15   A    
O11   Zn8   S    
O13   Zn2   S    
C14   C54   A    
C33   C41   A    
C14   C22   A    
C3    C27   S    
O36   Zn9   S    
C35   H3    S    
C21   C101  A    
C20   C100  A    
C72   C80   S    
C66   O18   A    
C22   C30   A    
C120  H32   S    
C13   C21   A    
C38   C46   A    
C8    O16   A    
C93   C95   T    
C8    C32   S    
C117  C125  A    
C43   C51   A    
C102  C110  A    
C83   C91   S    
C1    O1    A    
C31   C39   A    
O37   Zn11  S    
O47   Zn11  S    
C32   C40   A    
C65   O25   A    
C126  Cl6   S    
C62   O38   A    
C97   H9    S    
C116  H28   S    
O28   Zn7   S    
C11   C51   A    
C104  H16   S    
C45   C53   A    
C114  C122  A    
C59   O35   A    
O39   Zn12  S    
C113  C121  A    
C34   H2    S    
O14   Zn1   S    
C70   O30   A    
C78   C86   T    
O43   Zn9   S    
C55   C58   S    
C57   O33   A    
C72   O24   A    
O45   Zn12  S    
O32   Zn3   S    
O7    Zn7   S    
C64   O40   A    
C63   O39   A    
C44   H36   S    
C63   O47   A    
C102  H14   S    
C116  C124  A    
C17   C97   A    
C12   C124  A    
C114  H26   S    
O35   Zn10  S    
O3    Zn3   S    
C9    C49   A    
C58   O34   A    
C23   C31   A    
C108  H20   S    
C119  C127  A    
