data_mof_unit_33861.cif
_audit_creation_date              2012-12-10T17:00:51-0500
_audit_creation_method            fapswitch 2.2
_symmetry_space_group_name_H-M    P1
_symmetry_Int_Tables_number       1
_space_group_crystal_system       triclinic
_cell_length_a                    10.451591
_cell_length_b                    10.683088
_cell_length_c                    10.131809
_cell_angle_alpha                 91.102682
_cell_angle_beta                  103.686935
_cell_angle_gamma                 91.485161
_cell_volume                      1098.40094487

loop_
_atom_site_label
_atom_site_type_symbol
_atom_type_description
_atom_site_fract_x
_atom_site_fract_y
_atom_site_fract_z
_atom_type_partial_charge
C1    C     C_R   0.492752 0.262889 0.496769 0.940140
C2    C     C_2   0.116697 0.466698 0.415488 -0.529263
C3    C     C_2   0.068203 0.388157 0.495462 0.413871
C4    C     C_2   0.882875 0.460457 0.581688 -0.123163
C5    C     C_2   0.927294 0.387346 0.489500 0.053329
C6    C     C_2   0.524645 0.932795 0.399803 -0.199392
C7    C     C_3   0.836067 0.311730 0.372584 -0.392470
C8    C     C_3   0.906389 0.213127 0.304417 -0.336099
C9    C     C_3   0.810048 0.138166 0.192164 -0.929186
C10   C     C_3   0.660129 0.678455 0.166479 -0.380284
C11   C     C_3   0.795478 0.660854 0.135459 -0.391213
C12   C     C_2   0.549745 0.868575 0.515749 -0.044755
C13   C     C_3   0.899405 0.750691 0.221714 -0.896428
C14   C     C_3   0.405828 0.407809 0.064492 -0.246216
C15   C     C_3   0.287314 0.360174 0.116615 -0.315162
C16   C     C_3   0.205530 0.261392 0.018414 -0.939705
C17   C     C_3   0.974474 0.514764 0.710947 -0.423997
C18   C     C_3   0.035055 0.642189 0.687785 -0.338499
C19   C     C_3   0.128798 0.693640 0.817753 -0.847217
C20   C     C_3   0.620736 0.923319 0.655795 -0.404108
C21   C     C_3   0.750494 0.858552 0.714088 -0.358498
C22   C     C_3   0.816689 0.911523 0.855596 -0.889322
C23   C     C_2   0.525941 0.067163 0.398059 -0.210948
C24   C     C_2   0.477050 0.130460 0.488182 -0.317341
C25   C     C_2   0.528158 0.597186 0.934076 -0.210328
C26   C     C_2   0.559591 0.584499 0.086305 0.161574
C27   C     C_R   0.257417 0.492918 0.443590 0.980368
C28   C     C_R   0.511611 0.737306 0.504100 0.888943
C29   C     C_R   0.742457 0.490007 0.555585 0.861832
Cl1   Cl    Cl    0.165583 0.280270 0.603303 -0.684548
H1    H     H_    0.536209 0.417839 0.892644 0.179503
H2    H     H_    0.980388 0.260312 0.257931 0.228473
H3    H     H_    0.957790 0.147229 0.381435 0.261859
H4    H     H_    0.759120 0.262194 0.412753 0.214083
H5    H     H_    0.788524 0.376465 0.292510 0.221983
H6    H     H_    0.870947 0.849175 0.201720 0.271800
H7    H     H_    0.910700 0.732596 0.331467 0.258824
H8    H     H_    0.995618 0.736905 0.195773 0.251446
H9    H     H_    0.826671 0.563154 0.156963 0.221669
H10   H     H_    0.789972 0.677781 0.026396 0.233796
H11   H     H_    0.626476 0.774732 0.140526 0.172459
H12   H     H_    0.051581 0.520167 0.338838 0.137056
H13   H     H_    0.672224 0.668608 0.276396 0.262224
H14   H     H_    0.168417 0.300756 0.916380 0.293940
H15   H     H_    0.265719 0.178917 0.009107 0.276984
H16   H     H_    0.119558 0.229694 0.057313 0.256198
H17   H     H_    0.316712 0.313422 0.214042 0.277749
H18   H     H_    0.220891 0.438747 0.121805 0.233816
H19   H     H_    0.350663 0.449309 0.969647 0.194257
H20   H     H_    0.460691 0.324180 0.045517 0.163831
H21   H     H_    0.076871 0.701296 0.901227 0.249982
H22   H     H_    0.213349 0.631092 0.848969 0.267066
H23   H     H_    0.489263 0.886293 0.301057 0.164021
H24   H     H_    0.167176 0.788059 0.799662 0.252683
H25   H     H_    0.090661 0.634416 0.607700 0.238419
H26   H     H_    0.955579 0.709051 0.653409 0.204057
H27   H     H_    0.919044 0.526137 0.791292 0.207382
H28   H     H_    0.053476 0.448846 0.751703 0.249435
H29   H     H_    0.840803 0.013011 0.851149 0.270618
H30   H     H_    0.750757 0.898101 0.925926 0.260722
H31   H     H_    0.909366 0.862256 0.896201 0.259478
H32   H     H_    0.733716 0.756225 0.721594 0.239964
H33   H     H_    0.817677 0.874392 0.645497 0.222405
H34   H     H_    0.561752 0.113530 0.318890 0.180243
H35   H     H_    0.648382 0.023736 0.653094 0.228768
H36   H     H_    0.554214 0.913645 0.726180 0.203945
H37   H     H_    0.432958 0.083989 0.561898 0.180880
H38   H     H_    0.533081 0.689401 0.892143 0.173117
H39   H     H_    0.746023 0.075509 0.236531 0.261396
H40   H     H_    0.748286 0.201738 0.119711 0.262892
H41   H     H_    0.865933 0.079219 0.135382 0.257791
N1    N     N_2   0.501330 0.501330 0.852460 -0.202789
N2    N     N_2   0.501370 0.501360 0.148130 -0.095901
O1    O     O_R   0.499980 0.319060 0.613030 -0.584672
O2    O     O_R   0.500020 0.319100 0.386910 -0.639341
O3    O     O_R   0.317800 0.500000 0.570840 -0.538474
O4    O     O_R   0.317840 0.500040 0.344720 -0.630723
O5    O     O_R   0.499980 0.680900 0.613090 -0.612593
O6    O     O_R   0.500020 0.680940 0.386970 -0.637852
O7    O     O_R   0.682160 0.499960 0.655280 -0.614198
O8    O     O_R   0.682200 0.500000 0.429160 -0.634859
Zn1   Zn    Zn3+2 0.499970 0.499970 0.650990 0.951967
Zn2   Zn    Zn3+2 0.500030 0.500030 0.349010 0.900307

loop_
_geom_bond_atom_site_label_1
_geom_bond_atom_site_label_2
_ccdc_geom_bond_type
C15   H17   S    
C22   H30   S    
C7    C8    S    
C12   C28   S    
C1    O1    A    
C20   H36   S    
C9    H39   S    
C6    C12   D    
C14   H19   S    
O4    Zn2   S    
C15   C16   S    
C26   N2    D    
C18   C19   S    
C28   O6    A    
C24   H37   S    
C19   H22   S    
C8    C9    S    
C23   C24   D    
C2    C27   S    
C28   O5    A    
C16   H14   S    
C13   H7    S    
C4    C29   S    
C18   H26   S    
C17   H28   S    
C10   C26   S    
C21   C22   S    
C10   H11   S    
C25   H38   S    
C15   H18   S    
O1    Zn1   S    
O8    Zn2   S    
C1    O2    A    
C14   N2    S    
C20   H35   S    
C9    H40   S    
C13   H6    S    
O7    Zn1   S    
C16   H16   S    
C22   H29   S    
C5    C7    S    
C3    C5    S    
C25   C26   S    
C8    H2    S    
C3    Cl1   S    
C29   O8    A    
O5    Zn1   S    
C12   C20   S    
C17   C18   S    
C21   H32   S    
C25   N1    D    
C11   H9    S    
C13   H8    S    
C18   H25   S    
C4    C17   S    
C19   H24   S    
H1    N1    S    
C7    H4    S    
C6    H23   S    
O3    Zn1   S    
C27   O3    A    
C23   H34   S    
C10   H13   S    
C7    H5    S    
C9    H41   S    
C4    C5    D    
C27   O4    A    
C16   H15   S    
C2    C3    D    
C22   H31   S    
O6    Zn2   S    
C11   C13   S    
O2    Zn2   S    
C14   H20   S    
C29   O7    A    
C2    H12   S    
C6    C23   S    
C8    H3    S    
C11   H10   S    
C21   H33   S    
C10   C11   S    
C19   H21   S    
C20   C21   S    
C1    C24   S    
C14   C15   S    
N2    Zn2   S    
N1    Zn1   S    
C17   H27   S    
