data_mof_unit_29710.cif
_audit_creation_date              2012-12-10T19:15:19-0500
_audit_creation_method            fapswitch 2.2
_symmetry_space_group_name_H-M    P1
_symmetry_Int_Tables_number       1
_space_group_crystal_system       triclinic
_cell_length_a                    10.842918
_cell_length_b                    9.974892
_cell_length_c                    23.337666
_cell_angle_alpha                 88.793666
_cell_angle_beta                  87.964263
_cell_angle_gamma                 89.581556
_cell_volume                      2521.92401084

loop_
_atom_site_label
_atom_site_type_symbol
_atom_type_description
_atom_site_fract_x
_atom_site_fract_y
_atom_site_fract_z
_atom_type_partial_charge
C1    C     C_R   0.259060 0.500265 0.502513 0.975220
C2    C     C_R   0.477130 0.760769 0.963295 0.449111
C3    C     C_R   0.464608 0.762996 0.022964 0.428909
C4    C     C_R   0.490656 0.646436 0.056045 -0.201038
C5    C     C_R   0.517886 0.524522 0.028417 -0.103394
C6    C     C_R   0.529319 0.404544 0.061092 -0.057182
C7    C     C_R   0.568662 0.285472 0.034133 0.064398
C8    C     C_R   0.592891 0.285311 0.974847 0.420078
C9    C     C_R   0.494175 0.647886 0.116117 0.524432
C10   C     C_R   0.505164 0.409305 0.120487 0.547649
C11   C     C_R   0.598724 0.472539 0.234488 -0.103431
C12   C     C_R   0.501749 0.501246 0.389743 0.867384
C13   C     C_R   0.597892 0.451456 0.293347 0.387184
C14   C     C_R   0.500414 0.505597 0.327431 -0.178914
C15   C     C_R   0.402058 0.571502 0.301395 -0.246388
C16   C     C_R   0.396439 0.579220 0.241902 0.153992
C17   C     C_R   0.497237 0.531452 0.208119 0.167516
C18   C     C_R   0.447162 0.435465 0.767789 -0.143095
C19   C     C_R   0.432548 0.429045 0.708885 0.058230
C20   C     C_R   0.515612 0.497940 0.671565 -0.005684
C21   C     C_R   0.613201 0.570588 0.693283 -0.290792
C22   C     C_R   0.628462 0.574529 0.752060 -0.092152
C23   C     C_R   0.742325 0.499696 0.500485 0.841002
C24   C     C_R   0.544765 0.507777 0.789370 0.269484
C25   C     C_3   0.069618 0.631104 0.529853 -0.171150
C26   C     C_3   0.071017 0.376330 0.537829 -0.194310
C27   C     C_3   0.927361 0.631437 0.527259 0.159343
C28   C     C_3   0.928537 0.381372 0.538521 0.172953
C29   C     C_3   0.083957 0.492006 0.437226 0.133598
C30   C     C_3   0.123053 0.500148 0.502378 -0.025741
C31   C     C_3   0.880614 0.499534 0.498853 -0.048035
C32   C     C_3   0.936156 0.487466 0.434987 0.125583
C33   C     C_3   0.371292 0.081840 0.487153 0.448731
C34   C     C_3   0.370390 0.915865 0.489428 0.425552
C35   C     C_3   0.584540 0.083516 0.452296 -0.078984
C36   C     C_3   0.577247 0.923684 0.449406 -0.160155
C37   C     C_3   0.542531 0.077424 0.556110 0.153329
C38   C     C_3   0.547301 0.913629 0.554727 0.294865
C39   C     C_R   0.501471 0.498935 0.610049 0.862164
C40   C     C_R   0.573799 0.400561 0.880975 0.526625
C41   C     C_R   0.532809 0.636007 0.875515 0.545462
C42   C     C_R   0.515465 0.641609 0.935414 -0.198377
C43   C     C_R   0.534175 0.522714 0.968290 -0.116231
C44   C     C_R   0.569116 0.401930 0.941150 -0.116467
H1    H     H_    0.677780 0.623633 0.664619 0.145178
H2    H     H_    0.704145 0.630398 0.768662 0.157676
H3    H     H_    0.106064 0.716947 0.504179 0.192007
H4    H     H_    0.103994 0.283511 0.517208 0.227431
H5    H     H_    0.886426 0.632652 0.571664 0.125356
H6    H     H_    0.894023 0.402523 0.582988 0.133762
H7    H     H_    0.554542 0.124644 0.410652 0.141970
H8    H     H_    0.534633 0.906159 0.408187 0.119263
H9    H     H_    0.675327 0.434231 0.208439 0.172133
H10   H     H_    0.327833 0.613626 0.327457 0.180370
H11   H     H_    0.381696 0.385469 0.797016 0.151176
N1    N     N_R   0.555092 0.515956 0.849999 -0.351761
N2    N     N_R   0.494439 0.530053 0.146865 -0.347807
N3    N     N_3   0.499750 0.138610 0.498760 -0.083109
N4    N     N_3   0.499750 0.861390 0.498760 -0.068691
O1    O     O_R   0.314910 0.616040 0.499990 -0.543622
O2    O     O_R   0.314910 0.383960 0.499990 -0.563248
O3    O     O_R   0.500080 0.616070 0.416130 -0.629451
O4    O     O_R   0.500080 0.383930 0.416130 -0.615763
O5    O     O_R   0.685320 0.616040 0.499970 -0.565879
O6    O     O_R   0.685320 0.383960 0.499970 -0.574605
O7    O     O_R   0.500150 0.616010 0.583820 -0.569975
O8    O     O_R   0.500150 0.383990 0.583820 -0.665736
O9    O     O_2   0.592971 0.284667 0.853087 -0.516185
O10   O     O_2   0.525841 0.748415 0.842593 -0.527360
O11   O     O_2   0.503196 0.765067 0.143470 -0.538582
O12   O     O_2   0.494307 0.294949 0.152182 -0.520149
Zn1   Zn    Zn3+2 0.500150 0.654960 0.499970 1.012422
Zn2   Zn    Zn3+2 0.500150 0.345040 0.499970 0.973151
O13   O     O_3   0.443812 0.875293 0.933528 -0.632392
H12   H     H_    0.380063 0.848737 0.906613 0.351307
N5    N     N_3   0.330726 0.357603 0.687418 -0.492434
H13   H     H_    0.249414 0.400154 0.704518 0.195051
H14   H     H_    0.335520 0.258571 0.702801 0.194343
N6    N     N_3   0.110961 0.650655 0.588548 -0.408350
H15   H     H_    0.055952 0.597402 0.618643 0.194089
H16   H     H_    0.097883 0.751592 0.598560 0.206435
N7    N     N_3   0.114428 0.368596 0.596685 -0.473225
H17   H     H_    0.074550 0.284746 0.617465 0.206400
H18   H     H_    0.209067 0.349209 0.595328 0.238357
O14   O     O_3   0.884910 0.750502 0.501123 -0.750757
H19   H     H_    0.934717 0.772164 0.465994 0.343326
O15   O     O_3   0.880863 0.254979 0.526254 -0.750097
H20   H     H_    0.928402 0.216000 0.493608 0.347437
N8    N     N_3   0.135928 0.608665 0.404579 -0.452394
H21   H     H_    0.089642 0.697740 0.413573 0.170676
H22   H     H_    0.127793 0.595407 0.360591 0.180875
N9    N     N_3   0.142314 0.371484 0.411586 -0.423841
H23   H     H_    0.135552 0.373801 0.366993 0.186327
H24   H     H_    0.100489 0.283105 0.426355 0.182632
N10   N     N_3   0.888207 0.597651 0.398578 -0.472884
H25   H     H_    0.792977 0.587472 0.395340 0.190313
H26   H     H_    0.922612 0.587629 0.356469 0.193141
N11   N     N_3   0.896551 0.360662 0.410472 -0.483543
H27   H     H_    0.800933 0.359746 0.410111 0.231569
H28   H     H_    0.925369 0.356837 0.367297 0.207296
N12   N     N_3   0.329701 0.134455 0.431320 -0.371646
H29   H     H_    0.236629 0.110868 0.427650 0.172884
H30   H     H_    0.373869 0.093780 0.395444 0.110469
N13   N     N_3   0.318730 0.856173 0.437448 -0.393668
H31   H     H_    0.224605 0.878447 0.435573 0.138270
H32   H     H_    0.354805 0.886122 0.397529 0.130870
O16   O     O_3   0.415755 0.877802 0.046926 -0.703279
H33   H     H_    0.356837 0.850703 0.078413 0.351283
O17   O     O_3   0.282959 0.135525 0.526510 -0.793115
H34   H     H_    0.268184 0.079428 0.561245 0.336646
O18   O     O_3   0.292435 0.867546 0.534493 -0.768566
H35   H     H_    0.206659 0.897538 0.527596 0.313443
N14   N     N_3   0.665459 0.129378 0.568828 -0.395000
H36   H     H_    0.696600 0.085389 0.606772 0.149728
H37   H     H_    0.660038 0.230485 0.578017 0.280755
N15   N     N_3   0.673959 0.859723 0.560905 -0.345307
H38   H     H_    0.740266 0.916484 0.538823 0.245635
H39   H     H_    0.701092 0.857215 0.603448 0.142381
N16   N     N_3   0.459258 0.115458 0.604942 -0.516675
H40   H     H_    0.505302 0.125114 0.643283 0.181710
H41   H     H_    0.403914 0.198529 0.598868 0.279371
N17   N     N_3   0.474848 0.856541 0.604829 -0.345460
H42   H     H_    0.521696 0.868681 0.642775 0.158677
H43   H     H_    0.389080 0.899813 0.613949 0.237577
N18   N     N_3   0.710312 0.135497 0.454541 -0.349686
H44   H     H_    0.749811 0.138147 0.412968 0.154664
H45   H     H_    0.767245 0.071583 0.477396 0.236227
N19   N     N_3   0.697173 0.857885 0.441069 -0.363472
H46   H     H_    0.681519 0.766175 0.422311 0.246532
H47   H     H_    0.748127 0.908728 0.408681 0.156124
N20   N     N_3   0.593961 0.166428 0.067380 -0.338454
H48   H     H_    0.687360 0.141768 0.061366 0.208643
H49   H     H_    0.541834 0.088484 0.051832 0.297863
O19   O     O_3   0.641908 0.169847 0.951618 -0.688313
H50   H     H_    0.714556 0.196719 0.927158 0.359264
O20   O     O_3   0.693511 0.378230 0.315470 -0.809060
H51   H     H_    0.658730 0.321786 0.347256 0.332972
N21   N     N_3   0.285501 0.628698 0.217154 -0.461892
H52   H     H_    0.304327 0.717858 0.194495 0.229361
H53   H     H_    0.254977 0.557916 0.188534 0.191337

loop_
_geom_bond_atom_site_label_1
_geom_bond_atom_site_label_2
_ccdc_geom_bond_type
O15   H20   S    
N12   H29   S    
C41   C42   A    
N10   H25   S    
C36   N4    S    
N19   H46   S    
C29   N8    S    
O6    Zn2   S    
C7    C8    A    
O14   H19   S    
C33   N3    S    
C35   N3    S    
C18   C24   A    
C19   N5    S    
C37   C38   S    
N5    H14   S    
C29   C32   S    
C5    C6    A    
C37   N14   S    
O1    Zn1   S    
C15   C16   A    
C38   N15   S    
N15   H38   S    
C35   N18   S    
C18   C19   A    
C27   O14   S    
N9    H23   S    
C28   H6    S    
O7    Zn1   S    
C19   C20   A    
N15   H39   S    
C16   C17   A    
C40   N1    A    
O16   H33   S    
O8    Zn2   S    
N8    H22   S    
C25   H3    S    
C7    N20   S    
C37   N3    S    
C36   H8    S    
C26   H4    S    
N4    Zn1   S    
C10   O12   S    
C5    C43   A    
N12   H30   S    
C21   C22   A    
C34   O18   S    
C11   H9    S    
C36   N19   S    
N13   H32   S    
N13   H31   S    
C21   H1    S    
N16   H41   S    
O13   H12   S    
C8    O19   S    
C15   H10   S    
C10   N2    A    
N5    H13   S    
C9    N2    A    
C1    O1    A    
N6    H16   S    
C12   O4    A    
O20   H51   S    
O4    Zn2   S    
O2    Zn2   S    
C27   C31   S    
N7    H17   S    
C34   N13   S    
C38   N4    S    
C1    O2    A    
C35   C36   S    
C23   C31   S    
C43   C44   A    
C41   N1    A    
C29   C30   S    
C12   O3    A    
C31   C32   S    
C37   N16   S    
C28   O15   S    
N9    H24   S    
C33   C34   S    
O3    Zn1   S    
C9    O11   S    
C2    O13   S    
C38   N17   S    
N21   H53   S    
C18   H11   S    
C23   O5    A    
C22   H2    S    
C12   C14   S    
C26   C30   S    
N7    H18   S    
C35   H7    S    
N18   H44   S    
C13   O20   S    
C33   N12   S    
C33   O17   S    
C42   C43   A    
N17   H43   S    
C3    C4    A    
N8    H21   S    
C41   O10   S    
N14   H36   S    
C25   C30   S    
C20   C39   S    
C11   C17   A    
O18   H35   S    
C25   N6    S    
C39   O8    A    
C28   C31   S    
C16   N21   S    
C8    C44   A    
C4    C5    A    
N20   H49   S    
N19   H47   S    
C6    C10   A    
N16   H40   S    
N10   H26   S    
C6    C7    A    
C24   N1    S    
O19   H50   S    
C26   C28   S    
C3    O16   S    
C23   O6    A    
C2    C3    A    
N17   H42   S    
O17   H34   S    
C11   C13   A    
C34   N4    S    
C2    C42   A    
C1    C30   S    
C39   O7    A    
C32   N11   S    
C22   C24   A    
O5    Zn1   S    
N11   H28   S    
N21   H52   S    
N6    H15   S    
C27   H5    S    
C40   C44   A    
C32   N10   S    
C20   C21   A    
C26   N7    S    
N11   H27   S    
C40   O9    S    
N18   H45   S    
C14   C15   A    
C4    C9    A    
C13   C14   A    
C29   N9    S    
N20   H48   S    
N3    Zn2   S    
C17   N2    S    
N14   H37   S    
C25   C27   S    
