data_mof_unit_34750.cif
_audit_creation_date              2012-12-10T16:57:03-0500
_audit_creation_method            fapswitch 2.2
_symmetry_space_group_name_H-M    P1
_symmetry_Int_Tables_number       1
_space_group_crystal_system       triclinic
_cell_length_a                    7.765039
_cell_length_b                    8.576545
_cell_length_c                    16.735413
_cell_angle_alpha                 91.786623
_cell_angle_beta                  80.929419
_cell_angle_gamma                 93.771343
_cell_volume                      1097.96616577

loop_
_atom_site_label
_atom_site_type_symbol
_atom_type_description
_atom_site_fract_x
_atom_site_fract_y
_atom_site_fract_z
_atom_type_partial_charge
C1    C     C_R   0.546234 0.794815 0.497895 0.968434
C2    C     C_R   0.409974 0.638397 0.238384 -0.226859
C3    C     C_R   0.603293 0.463665 0.858873 0.187883
C4    C     C_R   0.427364 0.691742 0.160114 0.181203
C5    C     C_R   0.456213 0.522001 0.907644 0.122915
C6    C     C_R   0.577555 0.659466 0.105099 0.127414
C7    C     C_R   0.311159 0.559747 0.874159 -0.137114
C8    C     C_R   0.716261 0.589363 0.130867 -0.129588
C9    C     C_R   0.315960 0.549067 0.791116 -0.173454
C10   C     C_R   0.698814 0.537378 0.209619 -0.173267
C11   C     C_2   0.453717 0.551475 0.993121 -0.168459
C12   C     C_R   0.453775 0.205182 0.502019 0.975899
C13   C     C_2   0.570719 0.653904 0.019158 -0.161640
C14   C     C_2   0.570599 0.958282 0.496606 -0.368741
C15   C     C_2   0.429428 0.041694 0.503135 -0.372553
C16   C     C_R   0.477605 0.500393 0.654214 0.881423
C17   C     C_R   0.523641 0.507202 0.346105 0.884147
C18   C     C_R   0.466394 0.500365 0.741524 -0.080952
C19   C     C_R   0.542481 0.555982 0.262647 -0.077285
C20   C     C_R   0.607919 0.454332 0.775768 -0.223976
H1    H     H_    0.722529 0.411861 0.738097 0.181380
H2    H     H_    0.296170 0.990513 0.509358 0.181539
H3    H     H_    0.022891 0.380747 0.439572 0.195647
H4    H     H_    0.977107 0.619243 0.560435 0.192930
H5    H     H_    0.292179 0.661106 0.279953 0.183965
H6    H     H_    0.804853 0.478629 0.228181 0.172680
H7    H     H_    0.204559 0.583497 0.765721 0.175664
H8    H     H_    0.674889 0.711719 0.977273 0.182489
H9    H     H_    0.352173 0.490743 0.035244 0.183944
H10   H     H_    0.197214 0.603118 0.912053 0.178666
H11   H     H_    0.831881 0.563606 0.088411 0.180430
H12   H     H_    0.703860 0.009458 0.490363 0.182033
I1    I     I_    0.218087 0.810303 0.126936 -0.396598
I2    I     I_    0.819195 0.383041 0.906081 -0.423428
N1    N     N_2   0.953500 0.457650 0.478520 -0.172506
N2    N     N_2   0.046500 0.542350 0.521480 -0.173708
O1    O     O_R   0.388470 0.738640 0.505270 -0.614057
O2    O     O_R   0.611530 0.261360 0.494730 -0.610685
O3    O     O_R   0.679650 0.711510 0.491500 -0.626587
O4    O     O_R   0.320350 0.288490 0.508500 -0.624677
O5    O     O_R   0.337210 0.515200 0.623500 -0.616967
O6    O     O_R   0.662790 0.484800 0.376500 -0.614920
O7    O     O_R   0.628380 0.488060 0.609730 -0.627967
O8    O     O_R   0.371620 0.511940 0.390270 -0.628319
Zn1   Zn    Zn3+2 0.305580 0.518120 0.509190 0.950482
Zn2   Zn    Zn3+2 0.694420 0.481880 0.490810 0.953139

loop_
_geom_bond_atom_site_label_1
_geom_bond_atom_site_label_2
_ccdc_geom_bond_type
C12   O4    A    
C2    C4    A    
C13   H8    S    
H3    N1    S    
N1    N2    D    
C12   C15   S    
C1    O1    A    
C10   C19   A    
C10   H6    S    
C17   O8    A    
N2    Zn1   S    
C7    H10   S    
C20   H1    S    
C6    C13   S    
C11   C13   D    
C16   O7    A    
C11   H9    S    
H4    N2    S    
O3    Zn2   S    
C16   C18   S    
C17   C19   S    
C5    C11   S    
C2    H5    S    
C18   C20   A    
C12   O2    A    
O4    Zn1   S    
O7    Zn2   S    
O2    Zn2   S    
C4    C6    A    
C1    O3    A    
O1    Zn1   S    
C7    C9    A    
C9    C18   A    
C3    C20   A    
O8    Zn1   S    
C9    H7    S    
C8    C10   A    
C17   O6    A    
O6    Zn2   S    
C5    C7    A    
O5    Zn1   S    
C4    I1    S    
C6    C8    A    
C1    C14   S    
C3    I2    S    
C2    C19   A    
C14   C15   D    
N1    Zn2   S    
C16   O5    A    
C15   H2    S    
C8    H11   S    
C14   H12   S    
C3    C5    A    
