data_mof_unit_61929.cif
_audit_creation_date              2012-12-11T15:43:24-0500
_audit_creation_method            fapswitch 2.2
_symmetry_space_group_name_H-M    P1
_symmetry_Int_Tables_number       1
_space_group_crystal_system       triclinic
_cell_length_a                    28.168058
_cell_length_b                    22.088981
_cell_length_c                    20.205759
_cell_angle_alpha                 89.997802
_cell_angle_beta                  49.890557
_cell_angle_gamma                 89.994989
_cell_volume                      9615.33198107

loop_
_atom_site_label
_atom_site_type_symbol
_atom_type_description
_atom_site_fract_x
_atom_site_fract_y
_atom_site_fract_z
_atom_type_partial_charge
C1    C     C_R   0.912229 0.578109 0.742938 0.788144
C2    C     C_1   0.871516 0.318173 0.417785 0.146188
C3    C     C_2   0.309441 0.245098 0.323936 1.092591
C4    C     C_2   0.809768 0.256627 0.322720 1.093424
C5    C     C_2   0.322189 0.666292 0.478707 1.075308
C6    C     C_2   0.323069 0.334186 0.476997 1.075958
C7    C     C_2   0.670663 0.661133 0.534421 1.075233
C8    C     C_1   0.798096 0.639154 0.530928 0.137159
C9    C     C_1   0.195379 0.354660 0.480963 0.135260
C10   C     C_1   0.702016 0.139071 0.468817 0.137615
C11   C     C_1   0.369901 0.819728 0.419556 0.145083
C12   C     C_1   0.370049 0.180320 0.419306 0.143717
C13   C     C_1   0.628522 0.818170 0.582145 0.147957
C14   C     C_2   0.300041 0.688460 0.432895 -0.217466
C15   C     C_2   0.826300 0.237230 0.376415 -0.215648
C16   C     C_2   0.694498 0.685069 0.577276 -0.216592
C17   C     C_R   0.088532 0.422219 0.256761 0.780705
C18   C     C_2   0.300657 0.311770 0.431629 -0.217396
C19   C     C_2   0.805574 0.185067 0.422511 -0.216532
C20   C     C_2   0.323961 0.737824 0.381041 -0.211523
C21   C     C_2   0.324246 0.262100 0.380365 -0.212218
C22   C     C_2   0.673685 0.737166 0.623523 -0.214980
C23   C     C_1   0.853521 0.281574 0.394833 0.090336
C24   C     C_1   0.243274 0.663784 0.459100 0.088063
C25   C     C_1   0.243947 0.336596 0.457761 0.088635
C26   C     C_1   0.749946 0.658255 0.553482 0.089735
C27   C     C_1   0.351824 0.782909 0.397138 0.088340
C28   C     C_R   0.089269 0.577401 0.256460 0.784466
C29   C     C_1   0.750154 0.158205 0.446268 0.090048
C30   C     C_1   0.646490 0.781549 0.605112 0.090309
C31   C     C_1   0.352017 0.217094 0.396754 0.088202
C32   C     C_R   0.906981 0.419963 0.420696 -0.217104
C33   C     C_R   0.109236 0.571461 0.555024 -0.208783
C34   C     C_R   0.109599 0.428770 0.554392 -0.210007
C35   C     C_R   0.885783 0.566333 0.454157 -0.202868
C36   C     C_R   0.405369 0.921173 0.422722 -0.202827
C37   C     C_R   0.614275 0.066293 0.545728 -0.204473
C38   C     C_R   0.593047 0.919962 0.579265 -0.217757
C39   C     C_R   0.907082 0.423906 0.744607 0.780078
C40   C     C_R   0.405427 0.078853 0.422640 -0.201416
C41   C     C_R   0.889019 0.639417 0.526655 0.756677
C42   C     C_R   0.107807 0.357814 0.478568 0.762289
C43   C     C_R   0.107458 0.642440 0.479215 0.755945
C44   C     C_R   0.909830 0.348573 0.494948 0.739947
C45   C     C_R   0.409154 0.151016 0.495542 0.739436
C46   C     C_R   0.590212 0.848582 0.504987 0.746563
C47   C     C_R   0.611053 0.139347 0.473173 0.761226
C48   C     C_R   0.409074 0.849017 0.495674 0.748000
C49   C     C_R   0.902952 0.353874 0.669729 -0.215209
C50   C     C_R   0.407953 0.076559 0.744310 0.782417
C51   C     C_R   0.091651 0.648781 0.330944 -0.177882
C52   C     C_R   0.090994 0.350903 0.331211 -0.154431
C53   C     C_R   0.909716 0.649406 0.668561 -0.169550
C54   C     C_R   0.404096 0.853214 0.669394 -0.195333
C55   C     C_R   0.589986 0.149534 0.331553 -0.147214
C56   C     C_R   0.596744 0.853695 0.330345 -0.195293
C57   C     C_R   0.403478 0.146435 0.669579 -0.215427
C58   C     C_R   0.887859 0.634440 0.750233 -0.180849
C59   C     C_R   0.113171 0.366043 0.249429 -0.185974
C60   C     C_R   0.114258 0.633384 0.249018 -0.177487
C61   C     C_R   0.592637 0.923771 0.255486 0.776034
C62   C     C_R   0.879016 0.369685 0.752301 -0.164782
C63   C     C_R   0.380077 0.130907 0.751981 -0.165595
C64   C     C_R   0.620510 0.869424 0.247832 -0.170680
C65   C     C_R   0.611683 0.134657 0.249933 -0.187841
C66   C     C_R   0.381142 0.868491 0.751641 -0.172409
C67   C     C_R   0.890109 0.361273 0.449233 -0.142391
C68   C     C_R   0.138092 0.623137 0.507715 -0.131661
C69   C     C_R   0.138646 0.377251 0.506698 -0.135535
C70   C     C_R   0.855505 0.617029 0.503811 -0.138075
C71   C     C_R   0.388553 0.862451 0.451060 -0.152564
C72   C     C_R   0.587517 0.078219 0.257170 0.782916
C73   C     C_R   0.644595 0.116945 0.495970 -0.140642
C74   C     C_R   0.609945 0.861279 0.550686 -0.146720
C75   C     C_R   0.388656 0.137596 0.450895 -0.147477
C76   C     C_1   0.837173 0.333945 0.829629 0.110015
C77   C     C_1   0.152453 0.670670 0.172661 0.114856
C78   C     C_1   0.150797 0.328458 0.173294 0.120731
C79   C     C_1   0.850611 0.672215 0.826245 0.116737
C80   C     C_1   0.340535 0.832117 0.828513 0.114541
C81   C     C_1   0.648709 0.172541 0.173999 0.121952
C82   C     C_1   0.662124 0.833576 0.170584 0.113713
C83   C     C_R   0.408693 0.923036 0.744045 0.779421
C84   C     C_1   0.338895 0.166985 0.829069 0.109858
C85   C     C_1   0.801289 0.304158 0.894331 0.032756
C86   C     C_1   0.186408 0.701339 0.108409 0.032872
C87   C     C_1   0.184446 0.297613 0.109140 0.034248
C88   C     C_1   0.817101 0.703149 0.890358 0.032994
C89   C     C_1   0.305338 0.801967 0.892984 0.033846
C90   C     C_1   0.682092 0.203545 0.109924 0.034431
C91   C     C_1   0.697888 0.803728 0.105924 0.033605
C92   C     C_1   0.303388 0.196963 0.893652 0.032802
C93   C     C_1   0.758900 0.269220 0.970055 0.031628
C94   C     C_1   0.194716 0.645787 0.482234 0.134375
C95   C     C_1   0.227652 0.736794 0.032959 0.030560
C96   C     C_1   0.225520 0.262046 0.033724 0.030842
C97   C     C_1   0.776040 0.738755 0.965774 0.030476
C98   C     C_1   0.263398 0.766820 0.968540 0.031565
C99   C     C_1   0.723076 0.239203 0.034518 0.030922
C100  C     C_1   0.740210 0.768763 0.030231 0.031447
C101  C     C_1   0.261268 0.232015 0.969287 0.031557
C102  C     C_2   0.309410 0.754508 0.324230 1.092765
C103  C     C_2   0.829491 0.161063 0.465231 1.074767
C104  C     C_2   0.690127 0.756473 0.677350 1.094108
F1    F     F_    0.917706 0.556111 0.800164 -0.621413
F2    F     F_    0.116683 0.304053 0.440089 -0.705983
F3    F     F_    0.115978 0.696400 0.441358 -0.710645
F4    F     F_    0.917876 0.292182 0.512707 -0.697670
F5    F     F_    0.416965 0.207625 0.512994 -0.698426
F6    F     F_    0.582216 0.792198 0.487155 -0.689265
F7    F     F_    0.621494 0.192859 0.433333 -0.706168
F8    F     F_    0.416785 0.792415 0.513276 -0.689183
F9    F     F_    0.084296 0.444689 0.198536 -0.623588
F10   F     F_    0.085895 0.554612 0.197550 -0.623273
F11   F     F_    0.907567 0.446664 0.806214 -0.623885
F12   F     F_    0.409941 0.054574 0.804890 -0.622207
F13   F     F_    0.592008 0.946572 0.194024 -0.624924
F14   F     F_    0.581960 0.056145 0.200058 -0.623117
F15   F     F_    0.411552 0.944646 0.803966 -0.622344
F16   F     F_    0.878690 0.693027 0.566230 -0.709988
H1    H     H_    0.908409 0.440826 0.371013 0.180084
H2    H     H_    0.093810 0.693299 0.350610 0.234238
H3    H     H_    0.092791 0.306338 0.351148 0.239038
H4    H     H_    0.908438 0.694082 0.648329 0.233015
H5    H     H_    0.397149 0.810935 0.649870 0.224848
H6    H     H_    0.591106 0.194224 0.351906 0.237968
H7    H     H_    0.604018 0.811520 0.349667 0.224655
H8    H     H_    0.396246 0.188609 0.650190 0.222353
H9    H     H_    0.281881 0.727420 0.258129 0.343106
H10   H     H_    0.899475 0.157543 0.468746 0.358161
H11   H     H_    0.717400 0.732522 0.744822 0.344728
H12   H     H_    0.118658 0.547928 0.592083 0.167455
H13   H     H_    0.281838 0.271816 0.257792 0.343287
H14   H     H_    0.782433 0.232793 0.255292 0.344564
H15   H     H_    0.391677 0.661841 0.483180 0.361683
H16   H     H_    0.392708 0.338599 0.481160 0.360160
H17   H     H_    0.600734 0.657629 0.530792 0.359733
H18   H     H_    0.119219 0.452384 0.591166 0.167374
H19   H     H_    0.872816 0.538173 0.424388 0.168493
H20   H     H_    0.405336 0.943077 0.374866 0.176135
H21   H     H_    0.627259 0.038131 0.575478 0.168591
H22   H     H_    0.591625 0.940815 0.628946 0.179673
H23   H     H_    0.405424 0.056948 0.374760 0.176786
H24   H     H_    0.895526 0.311770 0.650463 0.222790
N1    N     N_R   0.944140 0.557460 0.661350 -0.135565
N2    N     N_R   0.065270 0.557830 0.550080 -0.077616
N3    N     N_R   0.065270 0.442170 0.550080 -0.077635
N4    N     N_R   0.934730 0.557830 0.449920 -0.077674
N5    N     N_R   0.434730 0.942170 0.449920 -0.081754
N6    N     N_R   0.565270 0.057830 0.550080 -0.078334
N7    N     N_R   0.565270 0.942170 0.550080 -0.081392
N8    N     N_R   0.434730 0.057830 0.449920 -0.081551
N9    N     N_R   0.936760 0.601610 0.495600 -0.116332
N10   N     N_R   0.063240 0.398390 0.504400 -0.114741
N11   N     N_R   0.063240 0.601610 0.504400 -0.117078
N12   N     N_R   0.055860 0.442540 0.338650 -0.135903
N13   N     N_R   0.936760 0.398390 0.495600 -0.113471
N14   N     N_R   0.436760 0.101610 0.495600 -0.114352
N15   N     N_R   0.563240 0.898390 0.504400 -0.113049
N16   N     N_R   0.563240 0.101610 0.504400 -0.114158
N17   N     N_R   0.436760 0.898390 0.495600 -0.113444
N18   N     N_R   0.942110 0.398020 0.615670 -0.088586
N19   N     N_R   0.057890 0.601980 0.384330 -0.095752
N20   N     N_R   0.057890 0.398020 0.384330 -0.097547
N21   N     N_R   0.942110 0.601980 0.615670 -0.098579
N22   N     N_R   0.442110 0.898020 0.615670 -0.089886
N23   N     N_R   0.055860 0.557460 0.338650 -0.132754
N24   N     N_R   0.557890 0.101980 0.384330 -0.099652
N25   N     N_R   0.557890 0.898020 0.384330 -0.088993
N26   N     N_R   0.442110 0.101980 0.615670 -0.088609
N27   N     N_R   0.944140 0.442540 0.661350 -0.130550
N28   N     N_R   0.444140 0.057460 0.661350 -0.132151
N29   N     N_R   0.555860 0.942540 0.338650 -0.133390
N30   N     N_R   0.555860 0.057460 0.338650 -0.138354
N31   N     N_R   0.444140 0.942540 0.661350 -0.135269
N32   N     N_R   0.934730 0.442170 0.449920 -0.080157
Ni1   Ni    Ni4+2 0.004540 0.500000 0.604760 0.275104
Ni2   Ni    Ni4+2 0.995460 0.500000 0.395240 0.269940
Ni3   Ni    Ni4+2 0.504540 1.000000 0.604760 0.270055
Ni4   Ni    Ni4+2 0.495460 1.000000 0.395240 0.262897
Ni5   Ni    Ni4+2 0.000000 0.600690 0.500000 0.249074
Ni6   Ni    Ni4+2 0.000000 0.399310 0.500000 0.267839
Ni7   Ni    Ni4+2 0.500000 0.100690 0.500000 0.264290
Ni8   Ni    Ni4+2 0.500000 0.899310 0.500000 0.281434
O1    O     O_2   0.316133 0.806809 0.299575 -0.611296
O2    O     O_R   0.792171 0.213832 0.291050 -0.778082
O3    O     O_2   0.288382 0.634656 0.543304 -0.614928
O4    O     O_R   0.382257 0.679778 0.446557 -0.750474
O5    O     O_2   0.289525 0.366228 0.541204 -0.614982
O6    O     O_R   0.383092 0.320459 0.444860 -0.752930
O7    O     O_2   0.702277 0.625943 0.473602 -0.616360
O8    O     O_R   0.611448 0.677099 0.565148 -0.753964
O9    O     O_R   0.289981 0.710314 0.296611 -0.778677
O10   O     O_2   0.797952 0.125787 0.525949 -0.616813
O11   O     O_R   0.888700 0.177067 0.434487 -0.756513
O12   O     O_2   0.686554 0.809899 0.696096 -0.610834
O13   O     O_R   0.707728 0.713621 0.708960 -0.776564
O14   O     O_2   0.315842 0.192659 0.299909 -0.611098
O15   O     O_R   0.290138 0.289138 0.295954 -0.778960
O16   O     O_2   0.813263 0.310081 0.304135 -0.610500

loop_
_geom_bond_atom_site_label_1
_geom_bond_atom_site_label_2
_ccdc_geom_bond_type
C78   C87   T    
C50   C63   A    
C83   N31   A    
C56   N25   A    
N19   Ni5   S    
C18   C21   D    
C8    C26   T    
C104  O13   S    
H14   O2    S    
C14   C24   S    
C1    N1    A    
C37   N6    A    
C62   C76   S    
C57   H8    S    
C40   H23   S    
C95   C98   T    
C17   F9    S    
N1    N21   A    
N24   N30   A    
C21   C31   S    
C28   F10   S    
N22   N31   A    
C37   H21   S    
H11   O13   S    
C9    C69   S    
N18   Ni6   S    
C38   N7    A    
N26   Ni7   S    
C52   H3    S    
C45   F5    S    
C36   N5    A    
C20   C102  S    
C16   C22   D    
C83   F15   S    
C49   H24   S    
C3    O14   D    
C22   C104  S    
C40   N8    A    
C56   H7    S    
C4    O2    S    
C80   C89   T    
N3    N10   A    
C39   N27   A    
C28   N23   A    
C35   H19   S    
C66   C83   A    
C19   C103  S    
N2    N11   A    
C35   C70   A    
C43   C68   A    
C41   C70   A    
C3    O15   S    
C56   C64   A    
C51   N19   A    
C103  O10   D    
C72   N30   A    
C91   C100  S    
N14   Ni7   S    
C93   C99   T    
N16   Ni7   S    
C50   F12   S    
C88   C97   S    
C36   C71   A    
N32   Ni2   S    
H13   O15   S    
C96   C101  T    
C44   N13   A    
C38   H22   S    
C7    O7    D    
C18   C25   S    
C103  O11   S    
C55   N24   A    
C54   N22   A    
C43   N11   A    
C59   C78   S    
C79   C88   T    
C55   C65   A    
C57   C63   A    
C41   N9    A    
C47   N16   A    
C44   F4    S    
C16   C26   S    
C6    C18   S    
C54   H5    S    
N8    N14   A    
C60   C77   S    
C102  O1    D    
N18   N27   A    
C61   F13   S    
C14   C20   D    
C13   C30   T    
N22   Ni8   S    
C47   C73   A    
H10   O11   S    
C86   C95   S    
N31   Ni3   S    
C48   N17   A    
N29   Ni4   S    
C34   H18   S    
N5    Ni4   S    
C68   C94   S    
C82   C91   T    
N2    Ni1   S    
H16   O6    S    
N7    N15   A    
N8    Ni4   S    
C61   C64   A    
C15   C19   D    
N25   Ni8   S    
C52   C59   A    
C24   C94   T    
H17   O8    S    
C32   N32   A    
C34   N3    A    
N3    Ni1   S    
N7    Ni3   S    
C85   C93   S    
C55   H6    S    
C11   C27   T    
N19   N23   A    
N24   Ni7   S    
C87   C96   S    
C6    O6    S    
C104  O12   D    
C61   N29   A    
C43   F3    S    
C39   F11   S    
C42   F2    S    
C34   C69   A    
C64   C82   S    
C5    C14   S    
C28   C60   A    
N6    N16   A    
C92   C101  S    
C17   C59   A    
C32   C67   A    
C81   C90   T    
C58   C79   S    
N28   Ni3   S    
C53   N21   A    
C7    C16   S    
C48   F8    S    
N9    Ni5   S    
C77   C86   T    
C2    C67   S    
N12   Ni2   S    
C46   F6    S    
C12   C31   T    
N15   Ni8   S    
C7    O8    S    
C3    C21   S    
N5    N17   A    
N13   Ni6   S    
C5    O3    D    
C48   C71   A    
N1    Ni1   S    
C19   C29   S    
C102  O9    S    
N30   Ni4   S    
C90   C99   S    
C46   C74   A    
C97   C100  T    
C33   H12   S    
C57   N26   A    
C38   C74   A    
C52   N20   A    
C39   C62   A    
C37   C73   A    
N4    Ni2   S    
C49   C62   A    
C22   C30   S    
C42   N10   A    
C32   H1    S    
C45   N14   A    
C53   H4    S    
C9    C25   T    
H9    O9    S    
C53   C58   A    
N11   Ni5   S    
C54   C66   A    
C20   C27   S    
C65   C72   A    
C66   C80   S    
C89   C98   S    
C8    C70   S    
C40   C75   A    
C63   C84   S    
C45   C75   A    
N21   Ni5   S    
C4    C15   S    
C49   N18   A    
C1    C58   A    
C42   C69   A    
C10   C29   T    
N26   N28   A    
N17   Ni8   S    
C47   F7    S    
C46   N15   A    
N10   Ni6   S    
C6    O5    D    
C15   C23   S    
C10   C73   S    
C11   C71   S    
C35   N4    A    
C36   H20   S    
C41   F16   S    
N20   Ni6   S    
C33   N2    A    
N13   N32   A    
C4    O16   D    
N23   Ni2   S    
C13   C74   S    
N12   N20   A    
N4    N9    A    
C12   C75   S    
C72   F14   S    
C2    C23   T    
C51   H2    S    
N25   N29   A    
C65   C81   S    
N27   Ni1   S    
C44   C67   A    
C50   N28   A    
C51   C60   A    
C84   C92   T    
C5    O4    S    
C17   N12   A    
C76   C85   T    
C33   C68   A    
C1    F1    S    
N6    Ni3   S    
H15   O4    S    
