data_mof_unit_51176.cif
_audit_creation_date              2013-03-05T15:41:26-0500
_audit_creation_method            fapswitch 2.2
_symmetry_space_group_name_H-M    P1
_symmetry_Int_Tables_number       1
_space_group_crystal_system       triclinic
_cell_length_a                    11.700982
_cell_length_b                    18.642918
_cell_length_c                    10.089015
_cell_angle_alpha                 89.998539
_cell_angle_beta                  110.939975
_cell_angle_gamma                 90.002196
_cell_volume                      2055.46971998

loop_
_atom_site_label
_atom_site_type_symbol
_atom_site_description
_atom_site_fract_x
_atom_site_fract_y
_atom_site_fract_z
_atom_type_partial_charge
O1    O     O_R   0.267710 0.668200 0.902110 -0.450416
O2    O     O_R   0.732290 0.331800 0.097890 -0.450480
O3    O     O_R   0.732290 0.168200 0.097890 -0.450373
O4    O     O_R   0.267710 0.831800 0.902110 -0.450385
O5    O     O_R   0.099480 0.674460 0.038850 -0.505876
O6    O     O_R   0.900520 0.325540 0.961150 -0.505866
O7    O     O_R   0.900520 0.174460 0.961150 -0.505871
O8    O     O_R   0.099480 0.825540 0.038850 -0.505839
C1    C     C_R   0.075266 0.645782 0.140783 0.550675
C2    C     C_R   0.924735 0.354217 0.859219 0.550720
C3    C     C_R   0.924739 0.145785 0.859220 0.550694
C4    C     C_R   0.075268 0.854217 0.140782 0.550743
O9    O     O_R   0.116720 0.669210 0.267660 -0.472908
O10   O     O_R   0.883280 0.330790 0.732340 -0.472789
O11   O     O_R   0.883280 0.169210 0.732340 -0.472946
O12   O     O_R   0.116720 0.830790 0.267660 -0.472912
O13   O     O_R   0.366710 0.675440 0.427590 -0.446731
O14   O     O_R   0.633290 0.324560 0.572410 -0.446624
O15   O     O_R   0.633290 0.175440 0.572410 -0.446774
O16   O     O_R   0.366710 0.824560 0.427590 -0.446728
C5    C     C_R   0.469898 0.646667 0.441879 0.570037
C6    C     C_R   0.530098 0.353324 0.558089 0.570047
C7    C     C_R   0.530089 0.146673 0.558110 0.570037
C8    C     C_R   0.469910 0.853325 0.441898 0.570106
O17   O     O_R   0.534870 0.669390 0.371760 -0.518002
O18   O     O_R   0.465130 0.330610 0.628240 -0.517886
O19   O     O_R   0.465130 0.169390 0.628240 -0.518038
O20   O     O_R   0.534870 0.830610 0.371760 -0.517941
O21   O     O_R   0.453080 0.674480 0.075160 -0.442592
O22   O     O_R   0.546920 0.325520 0.924840 -0.442511
O23   O     O_R   0.546920 0.174480 0.924840 -0.442602
O24   O     O_R   0.453080 0.825520 0.075160 -0.442526
C9    C     C_R   0.374742 0.644859 0.965882 0.642556
C10   C     C_R   0.625236 0.355128 0.034147 0.642480
C11   C     C_R   0.625259 0.144859 0.034116 0.642590
C12   C     C_R   0.374758 0.855133 0.965865 0.642553
Cr1   Cr    Cr6+3 0.187610 0.750000 0.979860 1.137277
Cr2   Cr    Cr6+3 0.812390 0.250000 0.020140 1.137271
Cr3   Cr    Cr6+3 0.245810 0.750000 0.341640 1.190677
Cr4   Cr    Cr6+3 0.754190 0.250000 0.658360 1.190750
Cr5   Cr    Cr6+3 0.485760 0.750000 0.219910 1.138160
Cr6   Cr    Cr6+3 0.514240 0.250000 0.780090 1.138169
O25   O     O_3   0.306390 0.750000 0.180470 -0.338404
O26   O     O_3   0.693610 0.250000 0.819530 -0.338390
C13   C     C_R   0.500102 0.424694 0.487899 0.031977
C14   C     C_R   0.499898 0.575276 0.511977 0.032117
C15   C     C_R   0.499927 0.924705 0.512037 0.032048
C16   C     C_R   0.500062 0.075288 0.487997 0.032116
C17   C     C_R   0.289893 0.422808 0.485111 -0.106638
C18   C     C_R   0.710100 0.577193 0.514833 -0.106627
C19   C     C_R   0.710096 0.922868 0.514664 -0.106550
C20   C     C_R   0.289891 0.077140 0.485318 -0.106564
C21   C     C_R   0.201350 0.452868 0.528952 -0.061773
C22   C     C_R   0.798676 0.547167 0.471026 -0.061850
C23   C     C_R   0.798620 0.952974 0.470838 -0.061940
C24   C     C_R   0.201338 0.047048 0.529102 -0.062052
C25   C     C_R   0.214043 0.522661 0.579977 0.244717
C26   C     C_R   0.786047 0.477377 0.420018 0.244646
C27   C     C_R   0.785895 0.022779 0.419874 0.244466
C28   C     C_R   0.214032 0.977244 0.580063 0.244403
C29   C     C_R   0.314964 0.564739 0.581954 0.221152
C30   C     C_R   0.685173 0.435253 0.418054 0.220908
C31   C     C_R   0.684939 0.064815 0.417907 0.221189
C32   C     C_R   0.314975 0.935187 0.582047 0.221055
C33   C     C_R   0.404601 0.534609 0.531870 -0.043267
C34   C     C_R   0.595426 0.465365 0.468015 -0.043322
C35   C     C_R   0.595339 0.034646 0.468011 -0.043245
C36   C     C_R   0.404631 0.965348 0.532009 -0.043285
C37   C     C_R   0.397545 0.460724 0.498962 -0.035411
C38   C     C_R   0.602451 0.539256 0.500908 -0.035332
C39   C     C_R   0.602438 0.960757 0.500884 -0.035397
C40   C     C_R   0.397550 0.039241 0.499143 -0.035342
H1    H     H_    0.125743 0.420011 0.530207 0.218670
H2    H     H_    0.874272 0.580046 0.469803 0.218641
H3    H     H_    0.874248 0.920148 0.469560 0.218663
H4    H     H_    0.125709 0.079885 0.530351 0.218647
H5    H     H_    0.276440 0.368173 0.445933 0.167153
H6    H     H_    0.723524 0.631824 0.554039 0.167191
H7    H     H_    0.723595 0.868231 0.553827 0.167224
H8    H     H_    0.276416 0.131778 0.446156 0.167238
C41   C     C_2   0.394079 0.928115 0.935009 -0.013805
C42   C     C_2   0.606024 0.071855 0.064890 -0.013828
C43   C     C_2   0.605891 0.428100 0.065051 -0.013816
C44   C     C_2   0.393982 0.571856 0.935099 -0.013785
C45   C     C_2   0.500384 0.960788 0.994629 0.173036
C46   C     C_2   0.499706 0.039175 0.005445 0.173085
C47   C     C_2   0.499592 0.460777 0.005383 0.172990
C48   C     C_2   0.500287 0.539168 0.994594 0.173086
H9    H     H_    0.688595 0.041571 0.116916 0.159980
H10   H     H_    0.311560 0.958408 0.882783 0.159960
H11   H     H_    0.311416 0.541576 0.883014 0.160022
H12   H     H_    0.688404 0.458393 0.117335 0.160047
H13   H     H_    0.928280 0.055132 0.057677 0.198644
H14   H     H_    0.071851 0.944893 0.942391 0.198693
H15   H     H_    0.071912 0.555089 0.942488 0.198590
H16   H     H_    0.928114 0.444901 0.057538 0.198712
C49   C     C_2   0.013159 0.922839 0.113638 -0.073352
C50   C     C_2   0.986877 0.077171 0.886369 -0.073312
C51   C     C_2   0.986873 0.422832 0.886379 -0.073376
C52   C     C_2   0.013133 0.577167 0.113628 -0.073332
C53   C     C_2   0.023685 0.963843 0.010107 -0.135761
C54   C     C_2   0.976414 0.036178 0.989938 -0.135794
C55   C     C_2   0.976340 0.463837 0.989890 -0.135775
C56   C     C_2   0.023679 0.536156 0.010128 -0.135815
H17   H     H_    0.029269 0.057061 0.813898 0.182543
H18   H     H_    0.970734 0.942945 0.186087 0.182493
H19   H     H_    0.970636 0.557084 0.186008 0.182744
H20   H     H_    0.029358 0.442922 0.813990 0.182648
Cl1   Cl    Cl    0.104956 0.553617 0.649304 -0.620689
Cl2   Cl    Cl    0.895142 0.446494 0.350625 -0.620873
Cl3   Cl    Cl    0.895006 0.053806 0.350640 -0.620796
Cl4   Cl    Cl    0.104912 0.946257 0.649327 -0.620847
N1    N     N_R   0.330645 0.634835 0.645749 0.087612
O27   O     O_R   0.439612 0.659730 0.715994 -0.308212
O28   O     O_R   0.237341 0.677808 0.616599 -0.206009
N2    N     N_R   0.669792 0.365089 0.354548 0.087756
O29   O     O_R   0.763273 0.322204 0.384173 -0.206123
O30   O     O_R   0.560934 0.340034 0.284268 -0.308202
N3    N     N_R   0.669183 0.134914 0.354119 0.087599
O31   O     O_R   0.560193 0.159769 0.283877 -0.308186
O32   O     O_R   0.762440 0.177924 0.383254 -0.205873
N4    N     N_R   0.330605 0.865064 0.645739 0.087628
O33   O     O_R   0.237263 0.822102 0.616456 -0.205986
O34   O     O_R   0.439553 0.840136 0.715950 -0.308274
Cl5   Cl    Cl    0.360165 0.089145 0.948723 -0.571093
Cl6   Cl    Cl    0.639918 0.910806 0.051636 -0.571256
Cl7   Cl    Cl    0.639841 0.589132 0.051406 -0.571098
Cl8   Cl    Cl    0.360044 0.410797 0.948275 -0.571364

loop_
_geom_bond_atom_site_label_1
_geom_bond_atom_site_label_2
_geom_bond_distance
_ccdc_geom_bond_type
C26   C30   1.411913 A    
C43   C47   1.321144 D    
C47   C48   1.465713 S    
O4    C12   1.263319 A    
C53   C54   1.444122 S    
C24   H4    1.079824 S    
O23   Cr6   1.965184 S    
O5    Cr1   1.959437 S    
C51   C55   1.335009 D    
O1    C9    1.263269 A    
C45   C46   1.465659 S    
O7    C3    1.277494 A    
C51   H20   1.086409 S    
C18   C22   1.382146 A    
C50   H17   1.086483 S    
C19   C39   1.407129 A    
C3    C50   1.448318 S    
C28   Cl4   1.757841 S    
C32   C36   1.431810 A    
C5    C14   1.489059 S    
C48   Cl7   1.787053 S    
C23   C27   1.387576 A    
C17   C21   1.382275 A    
O21   C9    1.279971 A    
O20   Cr5   2.075211 S    
C52   C56   1.335031 D    
N2    O29   1.300516 A    
O13   Cr3   1.951560 S    
C1    O9    1.273110 A    
O14   Cr4   1.951558 S    
C22   H2    1.079838 S    
C3    O11   1.273105 A    
C25   Cl1   1.757769 S    
C4    O12   1.273108 A    
O3    Cr2   2.084391 S    
N2    O30   1.302990 A    
C27   Cl3   1.757787 S    
O24   Cr5   1.965182 S    
O6    Cr2   1.959436 S    
C44   H11   1.079477 S    
C7    O19   1.281464 A    
C19   C23   1.382296 A    
O8    C4    1.277484 A    
C23   H3    1.079797 S    
O2    C10   1.263348 A    
C17   C37   1.407122 A    
C46   Cl5   1.787036 S    
Cr5   O25   1.991576 S    
C45   Cl6   1.787058 S    
Cr6   O26   1.991576 S    
C16   C40   1.413995 A    
C18   H6    1.083526 S    
C47   Cl8   1.787130 S    
C11   C42   1.431522 S    
Cr2   O26   2.004346 S    
O15   Cr4   1.951514 S    
N3    O32   1.300281 A    
C31   C35   1.431701 A    
C14   C38   1.413929 A    
O8    Cr1   1.959515 S    
O22   C10   1.279940 A    
C13   C37   1.414041 A    
C8    O20   1.281523 A    
C30   C34   1.431911 A    
H14   C53   1.088319 S    
C14   C33   1.420683 A    
C2    O10   1.273120 A    
O17   Cr5   2.075188 S    
O16   Cr3   1.951513 S    
C21   C25   1.387593 A    
Cr3   O25   1.992574 S    
C50   C54   1.335025 D    
O13   C5    1.281388 A    
C24   C28   1.387553 A    
Cr1   O25   2.004346 S    
O15   C7    1.281430 A    
O5    C1    1.277477 A    
C20   C40   1.407135 A    
C31   N3    1.439153 S    
O2    Cr2   2.084472 S    
O3    C11   1.263241 A    
C12   C41   1.431599 S    
C36   C40   1.412396 A    
C49   C53   1.335087 D    
C42   H9    1.079480 S    
C15   C39   1.414049 A    
C4    C49   1.448303 S    
C41   H10   1.079469 S    
C1    C52   1.448284 S    
C29   N1    1.439176 S    
O23   C11   1.279969 A    
C10   C43   1.431649 S    
C49   H18   1.086545 S    
N4    O34   1.302856 A    
O24   C12   1.279943 A    
C15   C36   1.420831 A    
C55   C56   1.444077 S    
H15   C56   1.088145 S    
O18   Cr6   2.075187 S    
N1    O27   1.302849 A    
C22   C26   1.387502 A    
C33   C37   1.412366 A    
C5    O17   1.281514 A    
C52   H19   1.086381 S    
C7    C16   1.489047 S    
O21   Cr5   1.965216 S    
C26   Cl2   1.757849 S    
C8    C15   1.489050 S    
C21   H1    1.079817 S    
C44   C48   1.321077 D    
H13   C54   1.088243 S    
O6    C2    1.277464 A    
N3    O31   1.302814 A    
C25   C29   1.411847 A    
O1    Cr1   2.084472 S    
C27   C31   1.411837 A    
C28   C32   1.411883 A    
O14   C6    1.281286 A    
C18   C38   1.407121 A    
C42   C46   1.321041 D    
O19   Cr6   2.075213 S    
C34   C38   1.412460 A    
C32   N4    1.439218 S    
O7    Cr2   1.959516 S    
C17   H5    1.083514 S    
C35   C39   1.412345 A    
C16   C35   1.420692 A    
C2    C51   1.448297 S    
C9    C44   1.431581 S    
C19   H7    1.083509 S    
O11   Cr4   2.073993 S    
O9    Cr3   2.073936 S    
C30   N2    1.439286 S    
O12   Cr3   2.073991 S    
O10   Cr4   2.073935 S    
C29   C33   1.431719 A    
Cr4   O26   1.992575 S    
C6    C13   1.489078 S    
O4    Cr1   2.084389 S    
C43   H12   1.079491 S    
C6    O18   1.281657 A    
H16   C55   1.088171 S    
C13   C34   1.420950 A    
O22   Cr6   1.965215 S    
N4    O33   1.300377 A    
C20   H8    1.083521 S    
O16   C8    1.281385 A    
C41   C45   1.321080 D    
C20   C24   1.382234 A    
N1    O28   1.300310 A    
