data_mof_unit_38956.cif
_audit_creation_date              2012-12-11T14:29:45-0500
_audit_creation_method            fapswitch 2.2
_symmetry_space_group_name_H-M    P1
_symmetry_Int_Tables_number       1
_space_group_crystal_system       triclinic
_cell_length_a                    6.940273
_cell_length_b                    14.740101
_cell_length_c                    16.240212
_cell_angle_alpha                 90.487167
_cell_angle_beta                  90.04181
_cell_angle_gamma                 89.964762
_cell_volume                      1661.3181606

loop_
_atom_site_label
_atom_site_type_symbol
_atom_type_description
_atom_site_fract_x
_atom_site_fract_y
_atom_site_fract_z
_atom_type_partial_charge
O1    O     O_R   0.494400 0.416610 0.413880 -0.542367
O2    O     O_R   0.823920 0.406790 0.585520 -0.542778
O3    O     O_R   0.994250 0.583390 0.586120 -0.536602
C1    C     C_R   0.654943 0.385933 0.614052 0.720401
O4    O     O_R   0.824110 0.405730 0.414490 -0.541070
O5    O     O_R   0.994440 0.582310 0.413870 -0.538058
C2    C     C_R   0.654874 0.383745 0.386282 0.745613
O6    O     O_R   0.494210 0.417690 0.586130 -0.537660
O7    O     O_3   0.660810 0.557940 0.500000 -0.370537
V1    V     V_3+5 0.935650 0.489250 0.500000 1.417600
O8    O     O_R   0.324160 0.593210 0.414480 -0.548121
C3    C     C_R   0.155390 0.614939 0.386311 0.734529
O9    O     O_R   0.323970 0.594270 0.585510 -0.540160
C4    C     C_R   0.155085 0.615893 0.614145 0.695451
V2    V     V_3+5 0.435660 0.510750 0.500000 1.417061
O10   O     O_3   0.160630 0.442060 0.500000 -0.371592
H1    H     H_    0.371792 0.914364 0.519308 0.117452
C5    C     C_R   0.019739 0.566423 0.776799 -0.207834
C6    C     C_R   0.954204 0.538943 0.854298 0.180664
C7    C     C_R   0.945612 0.603174 0.918346 -0.111508
C8    C     C_R   0.000303 0.692727 0.905069 -0.191300
C9    C     C_R   0.064097 0.721763 0.827005 0.073199
C10   C     C_R   0.075125 0.657177 0.761503 0.052041
C11   C     C_R   0.120486 0.813070 0.814176 -0.174679
C12   C     C_R   0.189636 0.839436 0.735687 0.054498
C13   C     C_R   0.201628 0.774728 0.670129 0.071170
C14   C     C_R   0.144388 0.683501 0.682880 -0.172411
C15   C     C_R   0.244069 0.930343 0.720405 -0.133507
C16   C     C_R   0.310332 0.956516 0.643244 -0.104467
C17   C     C_R   0.321705 0.893497 0.579350 -0.132897
C18   C     C_R   0.267134 0.803778 0.592130 -0.133057
H2    H     H_    0.028172 0.515202 0.728802 0.111581
H3    H     H_    0.897013 0.585174 0.979274 0.125849
H4    H     H_    0.992978 0.738672 0.957251 0.116045
H5    H     H_    0.234721 0.982508 0.767461 0.138453
H6    H     H_    0.351675 0.026298 0.632839 0.152542
H7    H     H_    0.275563 0.757960 0.539904 0.105874
C19   C     C_2   0.985516 0.709053 0.282347 -0.128836
C20   C     C_2   0.150232 0.682623 0.319419 -0.312790
H8    H     H_    0.849673 0.680512 0.302813 0.136429
H9    H     H_    0.287696 0.710503 0.300976 0.127345
C21   C     C_2   0.973248 0.776494 0.214350 -0.138621
C22   C     C_2   0.126409 0.814457 0.177066 -0.309234
H10   H     H_    0.829300 0.794867 0.194161 0.134720
H11   H     H_    0.271504 0.796653 0.195377 0.129856
C23   C     C_2   0.775056 0.210502 0.783064 -0.234071
C24   C     C_2   0.611064 0.172266 0.811107 0.443114
H12   H     H_    0.910746 0.194200 0.812861 0.126020
C25   C     C_2   0.787397 0.272228 0.711023 -0.111598
C26   C     C_2   0.639471 0.322821 0.683642 -0.281839
H13   H     H_    0.927795 0.279113 0.682263 0.150690
H14   H     H_    0.501243 0.321395 0.714355 0.207513
C27   C     C_2   0.779330 0.209618 0.213450 -0.129288
C28   C     C_2   0.614125 0.182129 0.177162 -0.309635
H15   H     H_    0.915236 0.181206 0.192382 0.136953
H16   H     H_    0.476554 0.209955 0.196010 0.127331
C29   C     C_2   0.791733 0.278105 0.281396 -0.135073
C30   C     C_2   0.638338 0.315552 0.319440 -0.307129
H17   H     H_    0.935672 0.297613 0.300938 0.135012
H18   H     H_    0.493266 0.296733 0.301779 0.128973
O11   O     O_R   0.770210 0.079270 0.910680 -0.560997
O12   O     O_R   0.440150 0.091160 0.082270 -0.546458
O13   O     O_R   0.269970 0.914530 0.082860 -0.543543
C31   C     C_R   0.608845 0.113376 0.110390 0.737952
O14   O     O_R   0.440480 0.090100 0.911240 -0.515012
O15   O     O_R   0.270310 0.913460 0.910610 -0.536799
C32   C     C_R   0.608703 0.110490 0.882224 0.645548
O16   O     O_R   0.769870 0.080340 0.082930 -0.539387
O17   O     O_3   0.603660 0.938980 0.996790 -0.370747
V3    V     V_3+5 0.328750 0.007610 0.996740 1.442665
O18   O     O_R   0.940600 0.902510 0.911180 -0.538443
C33   C     C_R   0.109556 0.880792 0.882726 0.694957
O19   O     O_R   0.940270 0.903570 0.082200 -0.543640
C34   C     C_R   0.109607 0.881833 0.110316 0.731582
V4    V     V_3+5 0.828770 0.986010 0.996670 1.415186
O20   O     O_3   0.103730 0.054750 0.996710 -0.370342
F1    F     F_    0.440545 0.184617 0.771449 -0.711072
C35   C     C_3   0.894587 0.440621 0.864312 -0.358480
C36   C     C_3   0.837233 0.412635 0.951369 -0.762416
H19   H     H_    0.958556 0.424052 0.994876 0.225814
H20   H     H_    0.708165 0.451083 0.972115 0.224676
H21   H     H_    0.800965 0.339240 0.951451 0.216382
H22   H     H_    0.770392 0.427246 0.822860 0.188005
H23   H     H_    0.015747 0.396353 0.844119 0.189309

loop_
_geom_bond_atom_site_label_1
_geom_bond_atom_site_label_2
_ccdc_geom_bond_type
O18   V4    S    
O19   C34   A    
C6    C7    A    
C1    O6    A    
C20   H9    S    
C27   C28   D    
O11   V4    S    
O16   V4    S    
C23   C25   S    
C13   C14   A    
C31   O16   A    
C15   C16   A    
C19   C21   S    
O5    C3    A    
C17   C18   A    
C29   H17   S    
C30   H18   S    
O14   V3    S    
O12   V3    S    
C5    C6    A    
O12   C31   A    
O8    V2    S    
C35   H22   S    
O15   C33   A    
C15   H5    S    
O14   C32   A    
C26   H14   S    
O1    V2    S    
C10   C14   A    
C4    C14   S    
O7    V1    S    
C2    C30   S    
C22   C34   S    
C13   C18   A    
C8    C9    A    
H1    C17   S    
O19   V4    S    
C21   H10   S    
C24   C32   S    
C23   H12   S    
C27   H15   S    
C19   C20   D    
C28   H16   S    
C5    C10   A    
C11   C12   A    
C36   H20   S    
C27   C29   S    
C35   C36   S    
C8    H4    S    
C25   H13   S    
C12   C13   A    
C18   H7    S    
C1    C26   S    
C12   C15   A    
C6    C35   S    
O2    C1    A    
V4    O20   S    
C16   C17   A    
O11   C32   A    
C16   H6    S    
O13   V3    S    
C22   H11   S    
O3    C4    A    
C7    H3    S    
O6    V2    S    
O9    V2    S    
V3    O20   S    
C9    C11   A    
C5    H2    S    
C21   C22   D    
C24   F1    S    
O2    V1    S    
C11   C33   S    
O4    C2    A    
C23   C24   D    
O1    C2    A    
O5    V1    S    
C36   H21   S    
O8    C3    A    
O13   C34   A    
C3    C20   S    
O7    V2    S    
O4    V1    S    
O3    V1    S    
V1    O10   S    
C19   H8    S    
C29   C30   D    
O15   V3    S    
C28   C31   S    
O17   V4    S    
O17   V3    S    
C36   H19   S    
C35   H23   S    
O18   C33   A    
C7    C8    A    
C25   C26   D    
C9    C10   A    
O9    C4    A    
V2    O10   S    
