data_mof_unit_19453.cif
_audit_creation_date              2013-03-05T17:00:14-0500
_audit_creation_method            fapswitch 2.2
_symmetry_space_group_name_H-M    P1
_symmetry_Int_Tables_number       1
_space_group_crystal_system       triclinic
_cell_length_a                    10.67755
_cell_length_b                    16.184216
_cell_length_c                    16.742582
_cell_angle_alpha                 89.268049
_cell_angle_beta                  91.862112
_cell_angle_gamma                 91.70826
_cell_volume                      2890.23349843

loop_
_atom_site_label
_atom_site_type_symbol
_atom_site_description
_atom_site_fract_x
_atom_site_fract_y
_atom_site_fract_z
_atom_type_partial_charge
O1    O     O_R   0.494530 0.422540 0.612660 -0.590859
O2    O     O_R   0.504350 0.561840 0.618900 -0.585937
C1    C     C_R   0.496245 0.490060 0.652996 0.893572
O3    O     O_R   0.678320 0.430330 0.496880 -0.628763
O4    O     O_R   0.688140 0.569640 0.503120 -0.547989
C2    C     C_R   0.738799 0.499613 0.489053 0.929486
Zn1   Zn    Zn3+2 0.493440 0.406980 0.495830 1.040077
Zn2   Zn    Zn3+2 0.506560 0.593020 0.504170 1.077845
O5    O     O_R   0.495650 0.438160 0.381100 -0.516368
O6    O     O_R   0.505470 0.577460 0.387340 -0.583028
O7    O     O_R   0.311860 0.430360 0.496880 -0.631896
O8    O     O_R   0.321680 0.569670 0.503120 -0.583991
C3    C     C_R   0.502546 0.510465 0.346139 0.971507
C4    C     C_R   0.259712 0.499941 0.506366 0.861072
C5    C     C_R   0.880436 0.342742 0.459605 0.256412
C6    C     C_R   0.929990 0.270087 0.494434 0.405644
C7    C     C_R   0.037293 0.277338 0.545377 -0.380968
H1    H     H_    0.074104 0.224246 0.576961 0.162448
C8    C     C_R   0.101538 0.353158 0.553343 -0.229108
H2    H     H_    0.186463 0.355539 0.590462 0.185472
C9    C     C_R   0.054836 0.424800 0.515425 0.048566
C10   C     C_R   0.934139 0.421339 0.481265 -0.116790
C11   C     C_R   0.871406 0.497140 0.471962 -0.148772
C12   C     C_R   0.940383 0.572196 0.465138 0.310235
H3    H     H_    0.121013 0.629590 0.477226 0.230676
C13   C     C_R   0.066925 0.572652 0.484346 -0.280909
C14   C     C_R   0.124860 0.499868 0.508556 -0.136795
C15   C     C_R   0.473284 0.486389 0.737963 -0.096737
C16   C     C_R   0.498606 0.556479 0.783908 -0.195753
C17   C     C_R   0.465601 0.557061 0.862668 -0.244583
C18   C     C_R   0.406732 0.486936 0.897436 0.257984
C19   C     C_R   0.381267 0.415281 0.852468 0.491111
C20   C     C_R   0.413605 0.416460 0.771319 -0.374830
C21   C     C_R   0.380948 0.468294 0.137947 -0.344021
C22   C     C_R   0.429254 0.453509 0.214273 0.409293
C23   C     C_R   0.407890 0.543287 0.098536 0.122469
N1    N     N_2   0.388521 0.482364 0.980479 -0.145170
N2    N     N_2   0.397200 0.550444 0.014469 -0.135536
C24   C     C_R   0.486631 0.518586 0.258498 -0.345242
H4    H     H_    0.332190 0.417890 0.106972 0.204342
H5    H     H_    0.390009 0.364952 0.732724 0.191327
C25   C     C_R   0.515347 0.594389 0.218691 0.113984
C26   C     C_R   0.472414 0.607017 0.139545 0.372092
H6    H     H_    0.489294 0.612046 0.896814 0.195128
H7    H     H_    0.543310 0.611397 0.758913 0.216974
N3    N     N_R   0.515300 0.716920 0.509720 -0.186298
C27   C     C_R   0.419169 0.760810 0.475098 0.443657
C28   C     C_R   0.417104 0.848074 0.482792 0.303961
C29   C     C_R   0.526072 0.891347 0.511943 0.098141
C30   C     C_R   0.624381 0.845278 0.543026 -0.375600
C31   C     C_R   0.616780 0.758560 0.544911 0.370768
C32   C     C_R   0.528448 0.149306 0.550506 0.110262
C33   C     C_R   0.534099 0.236900 0.552521 0.407762
C34   C     C_R   0.477703 0.108676 0.481557 -0.016696
N4    N     N_2   0.538351 0.979456 0.518269 -0.080606
N5    N     N_2   0.467387 0.020268 0.473292 -0.037448
N6    N     N_R   0.484690 0.283070 0.490290 -0.169917
H8    H     H_    0.705615 0.877535 0.569479 0.236630
C35   C     C_R   0.423073 0.244781 0.427550 0.427605
C36   C     C_R   0.425912 0.157645 0.419681 0.086715
N7    N     N_R   0.885313 0.645924 0.432515 0.229803
O9    O     O_R   0.937937 0.718159 0.445758 -0.405821
O10   O     O_R   0.796050 0.640032 0.378152 -0.312434
N8    N     N_R   0.605734 0.652548 0.251963 0.276663
O11   O     O_R   0.715036 0.659608 0.219980 -0.295585
O12   O     O_R   0.569847 0.711885 0.296693 -0.409643
O13   O     O_3   0.509609 0.677675 0.098356 -0.588182
C37   C     C_3   0.419477 0.738327 0.108560 0.082419
H9    H     H_    0.412739 0.753580 0.172959 0.161746
H10   H     H_    0.325788 0.716486 0.084515 0.133731
C38   C     C_3   0.458890 0.816740 0.063065 -0.289967
H11   H     H_    0.553708 0.838041 0.084925 0.252365
H12   H     H_    0.463284 0.802915 0.998354 0.226451
C39   C     C_3   0.366859 0.885708 0.074255 -0.919780
H13   H     H_    0.271121 0.865711 0.053144 0.266806
H14   H     H_    0.396659 0.941131 0.039156 0.273622
H15   H     H_    0.364880 0.902718 0.138264 0.281200
O14   O     O_3   0.568897 0.275075 0.623545 -0.611334
C40   C     C_3   0.700694 0.279502 0.633126 0.175820
H16   H     H_    0.739699 0.326245 0.591618 0.157272
H17   H     H_    0.744501 0.219489 0.622196 0.191212
C41   C     C_3   0.735814 0.306030 0.718341 -0.340736
H18   H     H_    0.692427 0.365957 0.730571 0.231503
H19   H     H_    0.699144 0.258929 0.761198 0.246644
C42   C     C_3   0.877707 0.315765 0.730841 -0.952633
H20   H     H_    0.915589 0.364465 0.690146 0.275394
H21   H     H_    0.923220 0.256481 0.719207 0.274104
H22   H     H_    0.900461 0.333969 0.793475 0.273886
N9    N     N_R   0.565367 0.103629 0.620962 0.235806
O15   O     O_R   0.499199 0.107199 0.684605 -0.404616
O16   O     O_R   0.675058 0.070618 0.626067 -0.409606
N10   N     N_R   0.715620 0.715779 0.586357 0.247776
O17   O     O_R   0.688526 0.662339 0.641992 -0.402272
O18   O     O_R   0.829335 0.746869 0.586102 -0.377990
O19   O     O_3   0.361530 0.292502 0.370591 -0.550513
C43   C     C_3   0.230137 0.276782 0.370524 0.140955
H23   H     H_    0.186537 0.327088 0.402943 0.163679
H24   H     H_    0.201678 0.217380 0.400043 0.100469
C44   C     C_3   0.177440 0.277832 0.284337 -0.289588
H25   H     H_    0.185368 0.341690 0.259476 0.240886
H26   H     H_    0.232109 0.236890 0.246895 0.274417
C45   C     C_3   0.040247 0.248988 0.279368 -0.904897
H27   H     H_    0.029475 0.184480 0.302069 0.273890
H28   H     H_    0.005348 0.251221 0.216205 0.270556
H29   H     H_    0.983243 0.290151 0.314789 0.288795
N11   N     N_R   0.786529 0.336642 0.395653 0.212529
O20   O     O_R   0.781449 0.393758 0.340295 -0.450977
O21   O     O_R   0.713793 0.271180 0.387791 -0.406050
O22   O     O_3   0.308062 0.888669 0.462168 -0.594608
C46   C     C_3   0.248687 0.913034 0.532365 0.091745
H30   H     H_    0.191651 0.967498 0.516664 0.174595
H31   H     H_    0.315949 0.933752 0.580947 0.151773
C47   C     C_3   0.161794 0.843690 0.563594 -0.361691
H32   H     H_    0.089528 0.827653 0.516801 0.283420
H33   H     H_    0.216493 0.787802 0.577872 0.234516
C48   C     C_3   0.097659 0.869839 0.639019 -0.863691
H34   H     H_    0.168751 0.885043 0.686911 0.256012
H35   H     H_    0.036106 0.818371 0.660592 0.310156
H36   H     H_    0.039706 0.924653 0.626563 0.257242
N12   N     N_R   0.375725 0.119113 0.348353 0.237462
O23   O     O_R   0.293518 0.058341 0.352533 -0.385084
O24   O     O_R   0.416638 0.142270 0.279055 -0.407145
O25   O     O_3   0.316858 0.718794 0.440668 -0.627814
C49   C     C_3   0.306610 0.735951 0.357454 0.134673
H37   H     H_    0.338970 0.681537 0.325105 0.165424
H38   H     H_    0.362808 0.791298 0.337459 0.174254
C50   C     C_3   0.169276 0.748258 0.333077 -0.301022
H39   H     H_    0.114433 0.690563 0.345795 0.246722
H40   H     H_    0.132005 0.799412 0.368069 0.279066
C51   C     C_3   0.153236 0.768592 0.244207 -0.914912
H41   H     H_    0.207191 0.826076 0.229086 0.269520
H42   H     H_    0.052612 0.778024 0.229087 0.304322
H43   H     H_    0.185632 0.716759 0.208083 0.240340
O26   O     O_3   0.862581 0.195850 0.483889 -0.613876
C52   C     C_3   0.939035 0.126468 0.479692 0.084330
H44   H     H_    0.962192 0.103478 0.541143 0.152363
H45   H     H_    0.026873 0.140894 0.447597 0.127488
C53   C     C_3   0.865083 0.058772 0.434049 -0.280998
H46   H     H_    0.775061 0.045261 0.463781 0.262766
H47   H     H_    0.843376 0.080998 0.372174 0.239832
C54   C     C_3   0.937812 0.979328 0.430438 -0.903805
H48   H     H_    0.028978 0.991175 0.401629 0.286867
H49   H     H_    0.882526 0.932646 0.395019 0.297291
H50   H     H_    0.954316 0.953980 0.491584 0.266438
O27   O     O_3   0.424272 0.373598 0.243341 -0.601102
C55   C     C_3   0.534130 0.332719 0.222704 0.245606
H51   H     H_    0.555408 0.287678 0.271261 0.252304
H52   H     H_    0.618564 0.374783 0.218658 0.153177
C56   C     C_3   0.513158 0.285092 0.144590 -0.430328
H53   H     H_    0.424354 0.247674 0.146800 0.264306
H54   H     H_    0.505957 0.329144 0.093402 0.224387
C57   C     C_3   0.621368 0.228037 0.130553 -0.843218
H55   H     H_    0.710948 0.264464 0.127306 0.259464
H56   H     H_    0.604255 0.195122 0.073265 0.262160
H57   H     H_    0.629353 0.181467 0.179632 0.295085
O28   O     O_3   0.320198 0.349071 0.891124 -0.650030
C58   C     C_3   0.323696 0.272276 0.851869 0.101073
H58   H     H_    0.323244 0.223029 0.898703 0.168705
H59   H     H_    0.412191 0.263707 0.819952 0.156518
C59   C     C_3   0.205597 0.258802 0.798266 -0.381126
H60   H     H_    0.123115 0.249585 0.836573 0.235759
H61   H     H_    0.188717 0.313951 0.759695 0.225784
C60   C     C_3   0.216365 0.183566 0.745267 -0.892403
H62   H     H_    0.290144 0.195411 0.700949 0.291958
H63   H     H_    0.125798 0.171204 0.712588 0.246370
H64   H     H_    0.239544 0.128086 0.781945 0.281191

loop_
_geom_bond_atom_site_label_1
_geom_bond_atom_site_label_2
_geom_bond_distance
_ccdc_geom_bond_type
C52   C53   1.529199 S    
N4    N5    1.248007 D    
C12   N7    1.439521 S    
C46   H31   1.115548 S    
C22   C24   1.408848 A    
O19   C43   1.418316 S    
C6    O26   1.392250 S    
O27   C55   1.418275 S    
O25   C49   1.418503 S    
C34   C36   1.405361 A    
C42   H20   1.110964 S    
N12   O23   1.301346 A    
Zn1   O7    1.987126 S    
C13   C14   1.396238 A    
C58   H58   1.110944 S    
C39   H14   1.110314 S    
C21   H4    1.083219 S    
C5    N11   1.445203 S    
C15   C16   1.393582 A    
C8    C9    1.411067 A    
C12   C13   1.378520 A    
C55   H51   1.107541 S    
O2    C1    1.289644 A    
C56   H54   1.109981 S    
C17   C18   1.409381 A    
O7    C4    1.284949 A    
N6    C35   1.366618 A    
N11   O20   1.301641 A    
C5    C6    1.414994 A    
C43   C44   1.531758 S    
C48   H34   1.110872 S    
C45   H29   1.106213 S    
C52   H45   1.113283 S    
C21   C22   1.383118 A    
C22   O27   1.376160 S    
N7    O10   1.298597 A    
O5    C3    1.302902 A    
C46   H30   1.110255 S    
C38   C39   1.526217 S    
C19   O28   1.400129 S    
C54   H48   1.110861 S    
C5    C10   1.425889 A    
C60   H62   1.110524 S    
C32   C34   1.419881 A    
C6    C7    1.408885 A    
C39   H15   1.110897 S    
C43   H24   1.114013 S    
C11   C12   1.406984 A    
C4    C14   1.441515 S    
N9    O16   1.301596 A    
C16   C17   1.376172 A    
C47   C48   1.526387 S    
C28   O22   1.385702 S    
C9    C14   1.412849 A    
C35   C36   1.419364 A    
C58   H59   1.113619 S    
C9    C10   1.392749 A    
C17   H6    1.083000 S    
C32   N9    1.434660 S    
N7    O9    1.300369 A    
C35   O19   1.381467 S    
O3    Zn1   1.998373 S    
N12   O24   1.299810 A    
C7    H1    1.080488 S    
C24   C25   1.418873 A    
C55   H52   1.116692 S    
C42   H21   1.110588 S    
C34   N5    1.439862 S    
C39   H13   1.111017 S    
O13   C37   1.410754 S    
C30   H8    1.083968 S    
C59   C60   1.525068 S    
C52   H44   1.112330 S    
C60   H64   1.110801 S    
O3    C2    1.284543 A    
C56   C57   1.526318 S    
C38   H12   1.111841 S    
C33   N6    1.374826 A    
O14   C40   1.410981 S    
C37   H9    1.114245 S    
H3    C13   1.080213 S    
C29   N4    1.433040 S    
N3    C31   1.378591 A    
C53   C54   1.524593 S    
C18   N1    1.410846 S    
C16   H7    1.082176 S    
O1    C1    1.291276 A    
C59   H61   1.110614 S    
C51   H42   1.110350 S    
C50   H40   1.110945 S    
N1    N2    1.246173 D    
C31   N10   1.434723 S    
O4    Zn2   1.987125 S    
C55   C56   1.533353 S    
C27   O25   1.383067 S    
C27   C28   1.420684 A    
C57   H57   1.110852 S    
Zn2   O8    1.998372 S    
C43   H23   1.106591 S    
N10   O18   1.300508 A    
C30   C31   1.403398 A    
C45   H28   1.110290 S    
C46   C47   1.532365 S    
C53   H47   1.111810 S    
C49   C50   1.527404 S    
C26   O13   1.382582 S    
C28   C29   1.416230 A    
C44   H26   1.109153 S    
C57   H56   1.110396 S    
C15   C20   1.400988 A    
C41   H18   1.111411 S    
C58   C59   1.535635 S    
C41   H19   1.111640 S    
C54   H50   1.108721 S    
C51   H43   1.110420 S    
C25   C26   1.402510 A    
C50   H39   1.109310 S    
C25   N8    1.432495 S    
C32   C33   1.417913 A    
C49   H38   1.117067 S    
C47   H32   1.109281 S    
C42   H22   1.110202 S    
Zn1   O5    1.980514 S    
N3    C27   1.374206 A    
C1    C15   1.451541 S    
C60   H63   1.109674 S    
O1    Zn1   1.974983 S    
C18   C19   1.405630 A    
O2    Zn2   1.980516 S    
O8    C4    1.292492 A    
O6    C3    1.291564 A    
C40   C41   1.527021 S    
C48   H36   1.110416 S    
O26   C52   1.411606 S    
C41   C42   1.526454 S    
C40   H17   1.110316 S    
C44   H25   1.111137 S    
C20   H5    1.080102 S    
C19   C20   1.412420 A    
C8    H2    1.082539 S    
C54   H49   1.110423 S    
C51   H41   1.110412 S    
C50   C51   1.525059 S    
C38   H11   1.111814 S    
C56   H53   1.111157 S    
N8    O11   1.301131 A    
O4    C2    1.297746 A    
N11   O21   1.300307 A    
C37   C38   1.527122 S    
C2    C11   1.455440 S    
C23   N2    1.411973 S    
N10   O17   1.296682 A    
C7    C8    1.393620 A    
C48   H35   1.109656 S    
C36   N12   1.435169 S    
C21   C23   1.400814 A    
C45   H27   1.110486 S    
C59   H60   1.111601 S    
Zn2   N3    2.007812 S    
C3    C24   1.476298 S    
C53   H46   1.111458 S    
C33   O14   1.382096 S    
C40   H16   1.102411 S    
C44   C45   1.524140 S    
O28   C58   1.415370 S    
C57   H55   1.111006 S    
Zn2   O6    1.974982 S    
C29   C30   1.389180 A    
C37   H10   1.115406 S    
C10   C11   1.419599 A    
C23   C26   1.398180 A    
N9    O15   1.300315 A    
O22   C46   1.419110 S    
Zn1   N6    2.007965 S    
N8    O12   1.299552 A    
C49   H37   1.109384 S    
C47   H33   1.110541 S    
