data_mof_unit_52939.cif
_audit_creation_date              2012-12-10T17:36:23-0500
_audit_creation_method            fapswitch 2.2
_symmetry_space_group_name_H-M    P1
_symmetry_Int_Tables_number       1
_space_group_crystal_system       triclinic
_cell_length_a                    12.380867
_cell_length_b                    13.185703
_cell_length_c                    15.857911
_cell_angle_alpha                 77.216334
_cell_angle_beta                  102.032541
_cell_angle_gamma                 116.740798
_cell_volume                      2236.93634029

loop_
_atom_site_label
_atom_site_type_symbol
_atom_type_description
_atom_site_fract_x
_atom_site_fract_y
_atom_site_fract_z
_atom_type_partial_charge
C1    C     C_R   0.854639 0.286764 0.504319 0.780801
C2    C     C_3   0.910505 0.378747 0.056519 -0.436095
C3    C     C_3   0.993197 0.500152 0.081542 0.256627
C4    C     C_3   0.124478 0.536255 0.062563 -0.389145
C5    C     C_3   0.125746 0.538307 0.964825 -0.531029
C6    C     C_1   0.994545 0.499905 0.174092 -0.076853
C7    C     C_1   0.998206 0.499094 0.824418 -0.052200
C8    C     C_1   0.000129 0.499186 0.749213 -0.155898
C9    C     C_R   0.268900 0.023021 0.384998 -0.157774
C10   C     C_R   0.226891 0.835200 0.468510 -0.040367
C11   C     C_R   0.815653 0.081315 0.539115 -0.179991
C12   C     C_R   0.000189 0.499634 0.659603 0.835232
C13   C     C_R   0.737274 0.965873 0.553136 -0.159970
C14   C     C_R   0.612530 0.930860 0.531233 -0.159170
C15   C     C_R   0.564231 0.010962 0.489211 0.073228
C16   C     C_R   0.646486 0.126802 0.466446 -0.000046
C17   C     C_R   0.437238 0.978577 0.466102 -0.002902
C18   C     C_R   0.394837 0.056589 0.409666 0.057033
C19   C     C_R   0.478417 0.165934 0.377382 0.444727
C20   C     C_R   0.602935 0.200027 0.405772 -0.296163
C21   C     C_R   0.350915 0.870066 0.497377 -0.229121
C22   C     C_R   0.185605 0.912751 0.413659 -0.224091
C23   C     C_R   0.144964 0.713571 0.487297 0.785421
C24   C     C_R   0.771469 0.163961 0.501330 -0.083299
C25   C     C_R   0.354043 0.332377 0.639019 -0.306201
C26   C     C_R   0.759451 0.646490 0.383609 0.077895
C27   C     C_R   0.663713 0.679437 0.358133 -0.266870
C28   C     C_R   0.560661 0.624621 0.401724 -0.178284
C29   C     C_R   0.552222 0.535691 0.471792 -0.021975
C30   C     C_R   0.653700 0.505843 0.495980 0.193666
C31   C     C_R   0.447786 0.475321 0.518795 -0.116390
C32   C     C_R   0.449805 0.388377 0.589081 0.030569
C33   C     C_R   0.548061 0.358281 0.610516 0.437411
C34   C     C_R   0.999391 0.500136 0.340244 0.817448
C35   C     C_R   0.648538 0.418378 0.565662 -0.256185
C36   C     C_R   0.340853 0.496509 0.499629 0.024518
C37   C     C_R   0.254929 0.359519 0.620558 0.156561
C38   C     C_3   0.917488 0.375499 0.960326 0.390321
C39   C     C_3   0.945110 0.586611 0.925728 -0.124034
C40   C     C_3   0.943834 0.585652 0.024206 -0.424568
C41   C     C_1   0.997044 0.499877 0.250137 -0.183479
C42   C     C_3   0.994156 0.499184 0.915985 0.223581
Cu1   Cu    Cu3+1 0.098280 0.475420 0.519630 0.937421
Cu2   Cu    Cu3+1 0.901720 0.524580 0.480370 0.920798
H1    H     H_    0.814890 0.353907 0.066310 0.182797
H2    H     H_    0.967861 0.323009 0.960900 0.055008
H3    H     H_    0.939654 0.314488 0.100193 0.131398
H4    H     H_    0.185630 0.622824 0.080979 0.176893
H5    H     H_    0.089587 0.887027 0.390507 0.148681
H6    H     H_    0.234428 0.081043 0.342060 0.176723
H7    H     H_    0.377838 0.810229 0.544333 0.143147
H8    H     H_    0.911238 0.105890 0.557783 0.152975
H9    H     H_    0.557116 0.839784 0.543735 0.124110
H10   H     H_    0.773314 0.903286 0.582672 0.131498
H11   H     H_    0.665353 0.281534 0.375116 0.189501
H12   H     H_    0.356738 0.268207 0.694652 0.194125
H13   H     H_    0.331705 0.559518 0.445893 0.128668
H14   H     H_    0.838849 0.689643 0.349250 0.122580
H15   H     H_    0.489306 0.653482 0.379531 0.134985
H16   H     H_    0.669436 0.747753 0.304343 0.141937
H17   H     H_    0.721117 0.393328 0.588599 0.226807
H18   H     H_    0.014894 0.673615 0.903357 0.116946
H19   H     H_    0.851787 0.563950 0.039551 0.155996
H20   H     H_    0.002463 0.673408 0.041317 0.159616
H21   H     H_    0.167076 0.481409 0.958305 0.168158
H22   H     H_    0.184988 0.626560 0.935814 0.186047
H23   H     H_    0.160978 0.475071 0.102547 0.174153
N1    N     N_R   0.246300 0.438200 0.549400 -0.190963
N2    N     N_R   0.754300 0.561180 0.451130 -0.193813
O1    O     O_R   0.972520 0.318130 0.524690 -0.569188
O2    O     O_R   0.806530 0.359650 0.491530 -0.611112
O3    O     O_R   0.083030 0.479240 0.637150 -0.576773
O4    O     O_R   0.917040 0.520750 0.603990 -0.583902
O5    O     O_R   0.193470 0.640350 0.508470 -0.590860
O6    O     O_R   0.027480 0.681870 0.475310 -0.588046
O7    O     O_R   0.082960 0.479250 0.396010 -0.579567
O8    O     O_R   0.916970 0.520760 0.362850 -0.587851
O9    O     O_3   0.438450 0.234316 0.311409 -0.589071
C43   C     C_3   0.457152 0.333898 0.342337 -0.319607
H24   H     H_    0.554995 0.394849 0.346697 0.184867
H25   H     H_    0.422018 0.313237 0.406119 0.157714
H26   H     H_    0.406128 0.377432 0.294992 0.189942
O10   O     O_3   0.799256 0.329209 0.913376 -0.559826
C44   C     C_3   0.751610 0.208545 0.922537 -0.319982
H27   H     H_    0.752699 0.169275 0.992276 0.142289
H28   H     H_    0.802466 0.182402 0.888099 0.157914
H29   H     H_    0.655422 0.175097 0.891830 0.210038
C45   C     C_R   0.164859 0.300452 0.682990 0.175732
C46   C     C_R   0.178854 0.349239 0.757136 -0.125935
C47   C     C_R   0.105451 0.286261 0.823486 -0.146620
C48   C     C_R   0.021214 0.172707 0.818150 -0.112462
C49   C     C_R   0.013408 0.120885 0.747895 -0.143956
C50   C     C_R   0.087779 0.183683 0.682078 -0.176639
H30   H     H_    0.246774 0.435905 0.763510 0.117576
H31   H     H_    0.115511 0.324794 0.879718 0.113250
H32   H     H_    0.965085 0.123772 0.869835 0.111185
H33   H     H_    0.952436 0.031279 0.745678 0.127819
H34   H     H_    0.089640 0.140532 0.632130 0.112169
O11   O     O_3   0.550064 0.274854 0.680737 -0.567211
C51   C     C_3   0.532485 0.175797 0.649204 -0.329900
H35   H     H_    0.614327 0.189853 0.621520 0.173790
H36   H     H_    0.449993 0.147548 0.600099 0.158568
H37   H     H_    0.518576 0.104923 0.704620 0.185934
C52   C     C_R   0.825788 0.575510 0.867613 0.155216
C53   C     C_R   0.710030 0.498912 0.892880 -0.035311
C54   C     C_R   0.603709 0.491233 0.837233 -0.124670
C55   C     C_R   0.610974 0.559762 0.755917 -0.106389
C56   C     C_R   0.724578 0.635476 0.729632 -0.122435
C57   C     C_R   0.831158 0.643686 0.785018 -0.166796
H38   H     H_    0.700864 0.444025 0.955106 0.136724
H39   H     H_    0.515440 0.431956 0.857216 0.125024
H40   H     H_    0.528554 0.554088 0.713217 0.129526
H41   H     H_    0.730108 0.687912 0.666243 0.125887
H42   H     H_    0.918251 0.702841 0.762982 0.113814

loop_
_geom_bond_atom_site_label_1
_geom_bond_atom_site_label_2
_ccdc_geom_bond_type
C53   H38   S    
Cu1   O3    S    
C38   O10   S    
C19   O9    S    
C55   H40   S    
C37   C45   S    
C19   C20   A    
C25   H12   S    
C5    C42   S    
C3    C6    S    
C39   C52   S    
C10   C22   A    
C26   C27   A    
C1    O2    A    
C40   H19   S    
C30   C35   A    
C28   C29   A    
C44   H28   S    
C38   C42   S    
C27   H16   S    
C34   O8    A    
C52   C57   A    
C9    C22   A    
C54   C55   A    
C15   C16   A    
C37   N1    A    
C11   C24   A    
C56   C57   A    
Cu2   O2    S    
C18   C19   A    
C7    C42   S    
C46   H30   S    
C49   C50   A    
C11   H8    S    
C25   C37   A    
C48   H32   S    
C31   C32   A    
Cu1   N1    S    
C6    C41   T    
C55   C56   A    
C44   H29   S    
C16   C20   A    
C25   C32   A    
C12   O3    A    
C2    H1    S    
C12   O4    A    
C34   C41   S    
C20   H11   S    
C52   C53   A    
C49   H33   S    
C39   C42   S    
C54   H39   S    
C10   C21   A    
C7    C8    T    
C44   H27   S    
C5    H21   S    
C36   H13   S    
C48   C49   A    
C43   H25   S    
O9    C43   S    
C5    H22   S    
C51   H37   S    
C17   C21   A    
C33   O11   S    
C56   H41   S    
Cu2   O6    S    
Cu1   Cu2   S    
C29   C30   A    
C4    H23   S    
C2    C38   S    
O10   C44   S    
C8    C12   S    
C51   H36   S    
C17   C18   A    
Cu2   N2    S    
C35   H17   S    
C26   H14   S    
C57   H42   S    
C22   H5    S    
C3    C40   S    
Cu1   O1    S    
C2    H3    S    
C23   O5    A    
C3    C4    S    
C21   H7    S    
C30   N2    A    
C13   H10   S    
C4    H4    S    
C28   H15   S    
Cu1   O7    S    
C15   C17   A    
C39   H18   S    
C45   C50   A    
Cu2   O8    S    
C31   C36   A    
C9    H6    S    
C23   O6    A    
C4    C5    S    
C47   H31   S    
C43   H26   S    
C36   N1    A    
C10   C23   S    
C53   C54   A    
C1    O1    A    
C40   H20   S    
O11   C51   S    
C32   C33   A    
C2    C3    S    
C29   C31   A    
C11   C13   A    
C47   C48   A    
Cu1   O5    S    
C51   H35   S    
C33   C35   A    
Cu2   O4    S    
C38   H2    S    
C43   H24   S    
C39   C40   S    
C9    C18   A    
C14   H9    S    
C45   C46   A    
C1    C24   S    
C16   C24   A    
C27   C28   A    
C26   N2    A    
C14   C15   A    
C46   C47   A    
C13   C14   A    
C50   H34   S    
C34   O7    A    
