data_mof_unit_66978.cif
_audit_creation_date              2013-03-05T15:58:12-0500
_audit_creation_method            fapswitch 2.2
_symmetry_space_group_name_H-M    P1
_symmetry_Int_Tables_number       1
_space_group_crystal_system       triclinic
_cell_length_a                    8.546914
_cell_length_b                    13.002045
_cell_length_c                    14.399004
_cell_angle_alpha                 93.83254
_cell_angle_beta                  91.029743
_cell_angle_gamma                 98.755684
_cell_volume                      1577.29657989

loop_
_atom_site_label
_atom_site_type_symbol
_atom_site_description
_atom_site_fract_x
_atom_site_fract_y
_atom_site_fract_z
_atom_type_partial_charge
P1    P     P_3+3 0.054400 0.427280 0.286870 0.585490
O1    O     O_2   0.887370 0.460630 0.272300 -0.395860
O2    O     O_3   0.129410 0.451380 0.388510 -0.291786
O3    O     O_3   0.670210 0.653170 0.329170 -0.360987
O4    O     O_2   0.740122 0.604996 0.155263 -0.377920
O5    O     O_3   0.073320 0.303296 0.231207 -0.614219
O6    O     O_3   0.668706 0.790687 0.191511 -0.490202
H1    H     H_    0.582654 0.828657 0.320172 0.003358
C1    C     C_3   0.615116 0.959867 0.241051 0.085452
H2    H     H_    0.736229 0.980961 0.271178 0.111624
P2    P     P_3+3 0.668300 0.742890 0.573060 0.477696
P3    P     P_3+3 0.143288 0.838797 0.372775 0.508225
O7    O     O_2   0.845380 0.761330 0.544970 -0.335810
O8    O     O_3   0.088930 0.704860 0.376040 -0.422893
O9    O     O_2   0.007289 0.887660 0.419403 -0.322165
O10   O     O_3   0.691435 0.764879 0.693480 -0.569438
O11   O     O_3   0.133851 0.865731 0.254108 -0.502232
C2    C     C_3   0.044178 0.778691 0.204451 0.247039
H3    H     H_    0.926646 0.763846 0.234710 0.163688
H4    H     H_    0.100889 0.709546 0.211248 0.007200
C3    C     C_3   0.026026 0.787689 0.098627 0.367275
H5    H     H_    0.951984 0.714703 0.069258 0.060956
C4    C     C_3   0.283827 0.765802 0.706625 0.778942
H6    H     H_    0.339983 0.723278 0.649988 -0.013707
C5    C     C_3   0.398941 0.796247 0.789274 -0.771895
H7    H     H_    0.434797 0.725879 0.817469 0.235012
H8    H     H_    0.504924 0.846613 0.768513 0.233319
H9    H     H_    0.344624 0.840985 0.844628 0.313423
Ba1   Ba    Ba6+2 0.855630 0.555280 0.454520 1.688294
C6    C     C_3   0.010122 0.208325 0.267651 0.735772
C7    C     C_3   0.035127 0.117889 0.197145 -0.059338
H10   H     H_    0.002382 0.135323 0.125511 0.194200
H11   H     H_    0.959634 0.045351 0.213966 0.176452
C8    C     C_3   0.744082 0.680457 0.732522 0.314789
H12   H     H_    0.840148 0.652957 0.691724 0.131791
H13   H     H_    0.643271 0.616067 0.736586 0.098385
C9    C     C_3   0.808660 0.717116 0.830328 -0.672736
H14   H     H_    0.917947 0.774298 0.826543 0.310288
H15   H     H_    0.835919 0.650855 0.868807 0.199624
H16   H     H_    0.720993 0.755923 0.869479 0.303812
P4    P     P_3+3 0.135310 0.572810 0.713130 0.480965
O12   O     O_2   0.302330 0.539400 0.727760 -0.396348
O13   O     O_3   0.060300 0.548700 0.611500 -0.359995
O14   O     O_3   0.519500 0.346920 0.670840 -0.376610
O15   O     O_3   0.149304 0.706849 0.740083 -0.597812
P5    P     P_3+3 0.055023 0.157068 0.619284 0.646084
O16   O     O_3   0.614310 0.373510 0.452640 -0.297182
O17   O     O_3   0.100780 0.295230 0.623970 -0.268647
O18   O     O_2   0.180785 0.115801 0.557458 -0.280457
O19   O     O_3   0.107471 0.119409 0.728361 -0.465911
Ba2   Ba    Ba6+2 0.334200 0.444810 0.545490 1.730564
P6    P     P_3+3 0.619817 0.659590 0.211960 0.514961
C10   C     C_3   0.568455 0.844109 0.246174 0.266903
H17   H     H_    0.442649 0.821637 0.223239 0.098574
H18   H     H_    0.535151 0.002198 0.282369 0.110518
O20   O     O_3   0.575400 0.626570 0.547370 -0.394930
C11   C     C_3   0.516356 0.312580 0.255782 0.558033
H19   H     H_    0.642733 0.342635 0.254030 0.133082
C12   C     C_3   0.453347 0.289905 0.155880 -0.147216
H20   H     H_    0.323026 0.279828 0.154058 0.236409
H21   H     H_    0.494747 0.218979 0.124426 0.253007
P7    P     P_3+3 0.520841 0.240651 0.424122 0.574376
O21   O     O_2   0.344320 0.238700 0.455090 -0.270056
O22   O     O_3   0.484335 0.220080 0.303447 -0.540425
C13   C     C_3   0.978470 0.119132 0.787245 0.127924
H22   H     H_    0.915918 0.187013 0.778630 0.028411
H23   H     H_    0.893956 0.045926 0.771667 0.095452
C14   C     C_3   0.038260 0.125464 0.889342 0.374347
H24   H     H_    0.934210 0.111029 0.934040 0.075241
P8    P     P_3+3 0.547764 0.357009 0.791600 0.593792
C15   C     C_3   0.539486 0.162781 0.759581 0.334647
H25   H     H_    0.664051 0.189564 0.741400 -0.054410
O23   O     O_2   0.429987 0.424835 0.833883 -0.265250
O24   O     O_3   0.482189 0.231949 0.825270 -0.429881
H26   H     H_    0.463962 0.153775 0.694907 0.122660
H27   H     H_    0.583246 0.007632 0.741295 0.069122
C16   C     C_3   0.533530 0.055993 0.796307 -0.091221
H28   H     H_    0.409198 0.022410 0.808238 0.210021
C17   C     C_R   0.985144 0.443829 0.057790 -0.000506
C18   C     C_R   0.159661 0.515749 0.198625 0.311654
C19   C     C_R   0.293533 0.586668 0.229753 -0.508930
C20   C     C_R   0.412928 0.618265 0.168319 0.143508
C21   C     C_R   0.378868 0.611873 0.072449 0.325657
C22   C     C_R   0.232872 0.556886 0.036827 -0.093812
C23   C     C_R   0.124376 0.503989 0.098777 -0.083158
H29   H     H_    0.316875 0.604055 0.303692 0.190359
C24   C     C_R   0.054265 0.500139 0.900354 -0.019074
C25   C     C_R   0.948581 0.443579 0.960700 0.081833
C26   C     C_R   0.010899 0.501960 0.803002 0.264794
C27   C     C_R   0.856720 0.459601 0.774289 -0.473453
C28   C     C_R   0.753008 0.404862 0.833124 0.235640
C29   C     C_R   0.804163 0.389589 0.923212 -0.191204
C30   C     C_R   0.197281 0.552969 0.939752 0.064125
H30   H     H_    0.729877 0.337389 0.964431 0.211002
H31   H     H_    0.813904 0.474070 0.706434 0.169695
H32   H     H_    0.900827 0.400333 0.101202 0.165433
H33   H     H_    0.279224 0.595669 0.895135 0.165544
C31   C     C_R   0.753313 0.172610 0.538708 0.040085
C32   C     C_R   0.424999 0.814332 0.471573 -0.464805
C33   C     C_R   0.402798 0.991206 0.436942 -0.146214
C34   C     C_R   0.338972 0.885423 0.432533 0.268850
C35   C     C_R   0.574848 0.846728 0.515621 0.265328
C36   C     C_R   0.640352 0.956251 0.520202 -0.000533
C37   C     C_R   0.552101 0.028910 0.479559 -0.107076
C38   C     C_R   0.613128 0.138077 0.485412 0.138540
C39   C     C_R   0.849272 0.103369 0.570820 0.134894
C40   C     C_R   0.790706 0.995796 0.563070 -0.260856
H34   H     H_    0.335905 0.043499 0.404712 0.220550
H35   H     H_    0.862633 0.944563 0.592453 0.230405
H36   H     H_    0.373977 0.732685 0.468105 0.154450
Br1   Br    Br    0.794478 0.194270 0.271325 -0.612879
N1    N     N_R   0.068085 0.194613 0.360865 0.236384
O25   O     O_R   0.047354 0.262930 0.427507 -0.315887
O26   O     O_R   0.075029 0.100234 0.383360 -0.397485
Br2   Br    Br    0.241320 0.077565 0.196125 -0.347320
Br3   Br    Br    0.435644 0.426762 0.312903 -0.420660
Br4   Br    Br    0.522892 0.399945 0.078401 -0.465767
Br5   Br    Br    0.599222 0.003090 0.116149 -0.195978
N2    N     N_R   0.175717 0.797947 0.051873 0.228850
O27   O     O_R   0.292606 0.866494 0.085046 -0.256206
O28   O     O_R   0.173470 0.768323 0.963934 -0.409955
N3    N     N_R   0.124124 0.229415 0.917456 0.241519
O29   O     O_R   0.155804 0.256214 0.005083 -0.381644
O30   O     O_R   0.162222 0.297612 0.856536 -0.346127
N4    N     N_R   0.138505 0.045697 0.903871 0.262832
O31   O     O_R   0.263765 0.066188 0.958662 -0.242808
O32   O     O_R   0.092064 0.950007 0.871406 -0.339637
N5    N     N_R   0.628153 0.057633 0.881701 0.257330
O33   O     O_R   0.634254 0.134058 0.945418 -0.327210
O34   O     O_R   0.682455 0.973285 0.901469 -0.327369
N6    N     N_R   0.496996 0.655998 0.010982 0.239605
O35   O     O_R   0.535950 0.756579 0.011073 -0.289002
O36   O     O_R   0.566161 0.595632 0.955044 -0.409305
Br6   Br    Br    0.805491 0.315663 0.579589 -0.426459
Br7   Br    Br    0.917834 0.898159 0.063786 -0.299237
N7    N     N_R   0.236834 0.859827 0.670983 0.220176
O37   O     O_R   0.089220 0.873612 0.670701 -0.341302
O38   O     O_R   0.341953 0.932178 0.641474 -0.496839

loop_
_geom_bond_atom_site_label_1
_geom_bond_atom_site_label_2
_geom_bond_distance
_ccdc_geom_bond_type
P4    C26   1.887990 S    
C24   C25   1.422372 A    
C4    O15   1.393750 S    
C2    C3    1.542872 S    
C40   H35   1.074093 S    
P4    O12   1.568777 D    
P8    C28   1.844490 S    
C15   C16   1.512512 S    
N5    O33   1.300954 A    
O16   P7    1.806687 S    
N1    O26   1.299567 A    
C19   C20   1.394989 A    
C11   H19   1.092627 S    
C27   H31   1.075466 S    
P7    C38   1.905844 S    
C10   H17   1.108736 S    
C5    H9    1.105745 S    
P5    O18   1.543341 D    
C9    H14   1.106362 S    
C31   C38   1.408260 A    
C4    N7    1.464649 S    
O3    P6    1.744847 S    
O1    Ba1   2.857955 S    
O7    Ba1   2.913836 S    
O6    P6    1.738212 S    
C8    H12   1.107125 S    
C9    H16   1.107281 S    
C6    C7    1.543921 S    
C11   C12   1.520953 S    
C39   C40   1.408282 A    
C8    C9    1.522295 S    
C24   C30   1.398257 A    
C33   C37   1.409419 A    
P1    O1    1.568411 D    
O2    Ba1   3.012393 S    
C37   C38   1.432089 A    
P7    O22   1.755307 S    
O10   C8    1.395403 S    
O17   Ba2   2.869337 S    
C25   C29   1.403319 A    
C14   H24   1.107352 S    
C13   H23   1.111025 S    
P3    O11   1.769850 S    
P8    O24   1.740943 S    
C4    H6    1.111626 S    
C7    H11   1.102445 S    
O4    P6    1.550009 D    
O14   P8    1.744652 S    
C1    H18   1.099714 S    
C1    H2    1.102926 S    
C2    H4    1.093380 S    
O3    Ba1   2.864877 S    
O12   Ba2   2.858492 S    
C12   H20   1.101167 S    
C12   Br4   1.903488 S    
C3    H5    1.110739 S    
Ba1   O13   2.847079 S    
C1    Br5   1.928291 S    
P4    O13   1.579401 S    
C18   C23   1.456823 A    
C7    Br2   1.913651 S    
C17   C25   1.426705 A    
C11   Br3   1.877596 S    
N2    O28   1.297602 A    
P5    O17   1.775801 S    
C33   H34   1.074944 S    
C12   H21   1.109059 S    
P1    O5    1.782846 S    
Ba2   O21   2.914057 S    
H27   C16   1.109161 S    
N7    O38   1.297117 A    
C14   N3    1.464029 S    
C28   C29   1.397762 A    
O2    Ba2   2.847677 S    
C2    H3    1.097323 S    
O16   Ba2   3.000582 S    
C5    H7    1.107418 S    
C16   H28   1.106678 S    
C32   H36   1.082035 S    
C6    N1    1.453846 S    
P1    O2    1.579522 S    
Ba2   O20   2.888212 S    
C21   N6    1.433694 S    
P7    O21   1.577889 D    
P2    O10   1.741129 S    
C21   C22   1.409837 A    
P3    O9    1.549636 D    
C13   C14   1.540489 S    
P8    O23   1.543444 D    
C29   H30   1.073417 S    
O11   C2    1.409776 S    
C22   C23   1.430452 A    
P6    C20   1.853642 S    
C16   N5    1.456669 S    
O14   Ba2   2.864251 S    
O5    C6    1.409133 S    
Ba1   O16   2.888908 S    
C20   C21   1.400042 A    
C24   C26   1.446137 A    
N4    O31   1.301638 A    
C1    C10   1.504302 S    
O6    C10   1.403037 S    
O8    Ba1   2.868722 S    
N3    O30   1.299267 A    
N6    O35   1.299350 A    
C30   H33   1.075611 S    
C17   C23   1.416305 A    
C11   O22   1.417501 S    
Ba1   Ba2   4.728310 S    
P5    O19   1.746939 S    
C32   C34   1.404452 A    
C7    H10   1.110775 S    
C19   H29   1.082052 S    
P3    O8    1.736704 S    
C18   C19   1.401943 A    
N6    O36   1.299262 A    
N5    O34   1.300432 A    
H1    C10   1.105343 S    
C15   O24   1.407207 S    
N2    O27   1.294384 A    
Ba1   O20   3.001405 S    
C17   H32   1.081335 S    
C5    H8    1.092719 S    
N1    O25   1.296634 A    
C31   Br6   1.896462 S    
C31   C39   1.401342 A    
C6    Br1   1.826315 S    
N3    O29   1.298817 A    
P3    C34   1.864138 S    
C9    H15   1.106235 S    
C15   H26   1.112832 S    
P2    O7    1.560839 D    
O13   Ba2   3.013196 S    
C27   C28   1.387613 A    
P5    C39   1.893108 S    
C33   C34   1.397144 A    
C3    Br7   1.911500 S    
P2    C35   1.897002 S    
C8    H13   1.111518 S    
C22   C30   1.421069 A    
C4    C5    1.522280 S    
C35   C36   1.445340 A    
O19   C13   1.402617 S    
C15   H25   1.110224 S    
C32   C35   1.410984 A    
P2    Ba1   3.486801 S    
C3    N2    1.448751 S    
C13   H22   1.111798 S    
C36   C37   1.441835 A    
N4    O32   1.299713 A    
P1    C18   1.915324 S    
P4    O15   1.745465 S    
N7    O37   1.301013 A    
C36   C40   1.422907 A    
P1    Ba1   3.457513 S    
C26   C27   1.392758 A    
C14   N4    1.465125 S    
P4    Ba2   3.458008 S    
P2    O20   1.613597 S    
