data_mof_unit_60999.cif
_audit_creation_date              2012-12-10T17:05:11-0500
_audit_creation_method            fapswitch 2.2
_symmetry_space_group_name_H-M    P1
_symmetry_Int_Tables_number       1
_space_group_crystal_system       triclinic
_cell_length_a                    38.663267
_cell_length_b                    21.807395
_cell_length_c                    21.816415
_cell_angle_alpha                 90.000691
_cell_angle_beta                  124.244712
_cell_angle_gamma                 89.999614
_cell_volume                      15205.5813308

loop_
_atom_site_label
_atom_site_type_symbol
_atom_type_description
_atom_site_fract_x
_atom_site_fract_y
_atom_site_fract_z
_atom_type_partial_charge
C1    C     C_R   0.000222 0.000066 0.618822 0.778409
C2    C     C_R   0.999778 0.000065 0.381178 0.778319
C3    C     C_R   0.500222 0.500066 0.618822 0.778416
C4    C     C_R   0.499778 0.500065 0.381178 0.778407
C5    C     C_3   0.708666 0.000212 0.208228 0.071874
C6    C     C_3   0.291334 0.000206 0.791772 0.071892
C7    C     C_3   0.208667 0.500212 0.208228 0.071881
C8    C     C_3   0.791333 0.500212 0.791771 0.071880
C9    C     C_3   0.763857 0.980927 0.209349 0.281021
C10   C     C_3   0.236148 0.979544 0.790149 0.280996
C11   C     C_3   0.263853 0.480911 0.209349 0.281026
C12   C     C_3   0.736149 0.480827 0.790622 0.281014
C13   C     C_3   0.735916 0.942895 0.225031 -0.162975
C14   C     C_3   0.264088 0.942638 0.773506 -0.163123
C15   C     C_3   0.235915 0.442888 0.225047 -0.162994
C16   C     C_3   0.764085 0.442870 0.774863 -0.162954
C17   C     C_1   0.837256 0.000043 0.337139 0.055420
C18   C     C_1   0.162744 0.000041 0.662863 0.055404
C19   C     C_1   0.337256 0.500042 0.337139 0.055382
C20   C     C_1   0.662744 0.500043 0.662861 0.055396
C21   C     C_1   0.662771 0.000152 0.162416 0.010549
C22   C     C_1   0.337229 0.000149 0.837583 0.010537
C23   C     C_1   0.162771 0.500153 0.162416 0.010551
C24   C     C_1   0.837229 0.500152 0.837584 0.010552
C25   C     C_R   0.940295 0.928241 0.626640 -0.247643
C26   C     C_R   0.059728 0.928284 0.373381 -0.247859
C27   C     C_R   0.440293 0.428246 0.626640 -0.247630
C28   C     C_R   0.559728 0.428284 0.373381 -0.247678
C29   C     C_R   0.917771 0.882373 0.633233 -0.168783
C30   C     C_R   0.082277 0.882446 0.366803 -0.168910
C31   C     C_R   0.417769 0.382378 0.633235 -0.168882
C32   C     C_R   0.582277 0.382447 0.366804 -0.168848
C33   C     C_R   0.926841 0.866320 0.702363 0.383874
C34   C     C_R   0.073209 0.866387 0.297676 0.383780
C35   C     C_R   0.426848 0.366318 0.702369 0.383715
C36   C     C_R   0.573209 0.366387 0.297676 0.383796
C37   C     C_R   0.955148 0.902871 0.765136 0.298758
C38   C     C_R   0.044877 0.902901 0.234887 0.298833
C39   C     C_R   0.455156 0.402867 0.765143 0.298926
C40   C     C_R   0.544877 0.402902 0.234888 0.298838
C41   C     C_R   0.976027 0.953534 0.757434 0.007716
C42   C     C_R   0.023984 0.953551 0.242577 0.007680
C43   C     C_R   0.476029 0.453535 0.757436 0.007688
C44   C     C_R   0.523984 0.453551 0.242577 0.007691
C45   C     C_R   0.919904 0.999999 0.419860 0.793349
C46   C     C_R   0.080096 0.999999 0.580140 0.793277
C47   C     C_R   0.419904 0.499999 0.419860 0.793375
C48   C     C_R   0.580096 0.499999 0.580140 0.793373
C49   C     C_R   0.972105 0.960752 0.689470 0.009499
C50   C     C_R   0.027906 0.960771 0.310540 0.009463
C51   C     C_R   0.472104 0.460755 0.689470 0.009470
C52   C     C_R   0.527906 0.460771 0.310541 0.009476
C53   C     C_R   0.000246 0.997668 0.814396 -0.136909
C54   C     C_R   0.999752 0.997668 0.185603 -0.136940
C55   C     C_R   0.500247 0.497669 0.814397 -0.136897
C56   C     C_R   0.499752 0.497668 0.185603 -0.136897
C57   C     C_R   0.024433 0.042192 0.806908 -0.040170
C58   C     C_R   0.975550 0.042175 0.193080 -0.040162
C59   C     C_R   0.524437 0.542190 0.806911 -0.040158
C60   C     C_R   0.475550 0.542175 0.193080 -0.040143
C61   C     C_R   0.027504 0.039081 0.745660 0.071713
C62   C     C_R   0.972481 0.039061 0.254330 0.071626
C63   C     C_R   0.527508 0.539078 0.745663 0.071655
C64   C     C_R   0.472481 0.539061 0.254330 0.071633
C65   C     C_R   0.999910 0.000166 0.685540 -0.118385
C66   C     C_R   0.000088 0.000164 0.314460 -0.118422
C67   C     C_R   0.499910 0.500166 0.685540 -0.118415
C68   C     C_R   0.500088 0.500164 0.314460 -0.118391
C69   C     C_R   0.046021 0.089833 0.859559 -0.151258
C70   C     C_R   0.953947 0.089804 0.140419 -0.151256
C71   C     C_R   0.546029 0.589828 0.859565 -0.151254
C72   C     C_R   0.453948 0.589804 0.140419 -0.151227
C73   C     C_R   0.073896 0.128346 0.856736 0.474280
C74   C     C_R   0.926060 0.128295 0.143232 0.474330
C75   C     C_R   0.573907 0.628334 0.856745 0.474342
C76   C     C_R   0.426060 0.628295 0.143232 0.474352
C77   C     C_R   0.080730 0.119668 0.800814 -0.221496
C78   C     C_R   0.919229 0.119610 0.199157 -0.221138
C79   C     C_R   0.580741 0.619654 0.800822 -0.221168
C80   C     C_R   0.419229 0.619610 0.199158 -0.221095
C81   C     C_R   0.057906 0.075715 0.746054 -0.174642
C82   C     C_R   0.942069 0.075674 0.253931 -0.174495
C83   C     C_R   0.557912 0.575706 0.746058 -0.174499
C84   C     C_R   0.442069 0.575674 0.253931 -0.174494
C85   C     C_R   0.500000 0.118709 0.000000 0.770450
C86   C     C_R   1.000000 0.618709 0.000000 0.770443
C87   C     C_3   0.735795 0.019666 0.290287 -0.165064
C88   C     C_3   0.264201 0.021055 0.710223 -0.164865
C89   C     C_3   0.235798 0.519682 0.290287 -0.165066
C90   C     C_3   0.764200 0.519767 0.709740 -0.165035
C91   C     C_R   0.580109 0.000057 0.080000 0.796934
C92   C     C_R   0.419891 0.000056 0.920000 0.796947
C93   C     C_R   0.080109 0.500057 0.080000 0.796915
C94   C     C_R   0.919891 0.500057 0.920000 0.796917
C95   C     C_R   0.500000 0.881472 1.000000 0.775841
C96   C     C_R   1.000000 0.381472 1.000000 0.775802
C97   C     C_R   1.000000 0.118822 0.000000 0.756885
C98   C     C_R   0.500000 0.618822 1.000000 0.756840
C99   C     C_R   0.000033 0.998799 0.881082 0.871362
C100  C     C_R   0.999967 0.998802 0.118918 0.871314
C101  C     C_R   0.500033 0.498802 0.881082 0.871342
C102  C     C_R   0.499967 0.498801 0.118918 0.871272
C103  C     C_R   0.000000 0.881072 0.000001 0.891197
C104  C     C_R   0.500000 0.381072 0.000001 0.891161
C105  C     C_R   0.560647 0.186923 0.989507 -0.137797
C106  C     C_R   0.439355 0.186926 0.010499 -0.137825
C107  C     C_R   0.060646 0.686923 0.989503 -0.137786
C108  C     C_R   0.939355 0.686926 0.010501 -0.137787
C109  C     C_R   0.585927 0.218075 0.972935 0.469675
C110  C     C_R   0.414075 0.218079 0.027073 0.469803
C111  C     C_R   0.085925 0.718076 0.972928 0.469705
C112  C     C_R   0.914076 0.718079 0.027075 0.469689
C113  C     C_R   0.079898 0.780999 0.958190 -0.242112
C114  C     C_R   0.920103 0.781004 0.041814 -0.242158
C115  C     C_R   0.579901 0.280999 0.958197 -0.242180
C116  C     C_R   0.420102 0.281004 0.041812 -0.242112
C117  C     C_R   0.050679 0.812565 0.964303 -0.156300
C118  C     C_R   0.949323 0.812568 0.035701 -0.156267
C119  C     C_R   0.550681 0.312564 0.964309 -0.156319
C120  C     C_R   0.449323 0.312567 0.035700 -0.156266
C121  C     C_R   0.026474 0.782045 0.985289 0.063183
C122  C     C_R   0.973527 0.782046 0.014715 0.063169
C123  C     C_R   0.526475 0.282045 0.985291 0.063151
C124  C     C_R   0.473527 0.282046 0.014714 0.063178
C125  C     C_3   0.763823 0.962440 0.307769 -0.243929
C126  C     C_3   0.236176 0.963576 0.691283 -0.243906
C127  C     C_3   0.263826 0.462449 0.307782 -0.243942
C128  C     C_3   0.736173 0.462516 0.692157 -0.243879
C129  C     C_R   0.529010 0.217654 0.991693 -0.013561
C130  C     C_R   0.470991 0.217655 0.008312 -0.013588
C131  C     C_R   0.029009 0.717654 0.991691 -0.013557
C132  C     C_R   0.970991 0.717655 0.008313 -0.013560
C133  C     C_R   0.000000 0.814159 0.000001 -0.148336
C134  C     C_R   0.500001 0.314159 0.000002 -0.148375
C135  C     C_R   0.500000 0.185593 0.000002 -0.127968
C136  C     C_R   0.000000 0.685593 0.000001 -0.127949
C137  C     C_R   0.441427 0.812619 0.866720 -0.132970
C138  C     C_R   0.558574 0.812622 0.133278 -0.133005
C139  C     C_R   0.941427 0.312619 0.866719 -0.133003
C140  C     C_R   0.058574 0.312622 0.133278 -0.132967
C141  C     C_R   0.417787 0.780886 0.799895 -0.128909
C142  C     C_R   0.582214 0.780890 0.200103 -0.128915
C143  C     C_R   0.917787 0.280886 0.799894 -0.128901
C144  C     C_R   0.082215 0.280890 0.200103 -0.128981
C145  C     C_R   0.924010 0.218479 0.797621 -0.123003
C146  C     C_R   0.075993 0.218483 0.202378 -0.123165
C147  C     C_R   0.424009 0.718479 0.797621 -0.122971
C148  C     C_R   0.575992 0.718483 0.202378 -0.123031
C149  C     C_R   0.952162 0.186966 0.862835 -0.133085
C150  C     C_R   0.047840 0.186969 0.137164 -0.133087
C151  C     C_R   0.452162 0.686966 0.862835 -0.133077
C152  C     C_R   0.547839 0.686969 0.137164 -0.133103
C153  C     C_R   0.974898 0.217726 0.932138 0.081172
C154  C     C_R   0.025103 0.217728 0.067861 0.081173
C155  C     C_R   0.474898 0.717726 0.932138 0.081174
C156  C     C_R   0.525103 0.717728 0.067861 0.081170
C157  C     C_R   0.472152 0.782196 0.933134 0.077525
C158  C     C_R   0.527849 0.782197 0.066865 0.077507
C159  C     C_R   0.972152 0.282196 0.933133 0.077512
C160  C     C_R   0.027850 0.282197 0.066864 0.077508
C161  C     C_R   0.000000 0.185679 1.000000 -0.163542
C162  C     C_R   0.500000 0.685679 1.000000 -0.163513
C163  C     C_1   0.874986 0.000005 0.374914 -0.127341
C164  C     C_1   0.125014 0.000005 0.625088 -0.127322
C165  C     C_1   0.374986 0.500005 0.374914 -0.127369
C166  C     C_1   0.625014 0.500005 0.625086 -0.127360
C167  C     C_R   0.500000 0.814415 0.999999 -0.176660
C168  C     C_R   0.000000 0.314415 0.999999 -0.176672
C169  C     C_1   0.625035 0.000102 0.124789 -0.146122
C170  C     C_1   0.374965 0.000099 0.875211 -0.146138
C171  C     C_1   0.125035 0.500102 0.124789 -0.146111
C172  C     C_1   0.874965 0.500102 0.875211 -0.146114
C173  C     C_3   0.763734 0.056746 0.273796 0.279319
C174  C     C_3   0.236263 0.056990 0.727650 0.279351
C175  C     C_3   0.263735 0.556753 0.273781 0.279313
C176  C     C_3   0.736265 0.556771 0.726307 0.279303
C177  C     C_3   0.791335 0.000122 0.291106 0.054367
C178  C     C_3   0.208665 0.000119 0.708896 0.054326
C179  C     C_3   0.291334 0.500122 0.291106 0.054354
C180  C     C_3   0.708666 0.500122 0.708894 0.054340
C181  C     C_3   0.735953 0.038029 0.191179 -0.192319
C182  C     C_3   0.264048 0.036879 0.809774 -0.192340
C183  C     C_3   0.235950 0.538020 0.191166 -0.192256
C184  C     C_3   0.764051 0.537952 0.808894 -0.192301
Cu1   Cu    Cu3+1 0.000000 0.061800 0.500000 0.995956
Cu2   Cu    Cu3+1 0.500000 0.561800 0.500000 0.996000
Cu3   Cu    Cu3+1 0.000000 0.938210 0.500000 0.992576
Cu4   Cu    Cu3+1 0.500000 0.438210 0.500000 0.992269
Cu5   Cu    Cu3+1 0.500000 0.000140 0.061760 0.996167
Cu6   Cu    Cu3+1 0.500000 0.000140 0.938240 0.996110
Cu7   Cu    Cu3+1 0.000000 0.500140 0.061760 0.996181
Cu8   Cu    Cu3+1 0.000000 0.500140 0.938240 0.996264
Cu9   Cu    Cu3+1 0.041440 0.999980 0.041400 0.992947
Cu10  Cu    Cu3+1 0.958560 0.999980 0.958600 0.993102
Cu11  Cu    Cu3+1 0.541440 0.499980 0.041400 0.993107
Cu12  Cu    Cu3+1 0.458560 0.499980 0.958600 0.993274
H1    H     H_    0.775613 0.931422 0.355983 0.170613
H2    H     H_    0.224385 0.933494 0.642286 0.170568
H3    H     H_    0.275618 0.431437 0.356011 0.170546
H4    H     H_    0.724379 0.431559 0.643878 0.170584
H5    H     H_    0.041468 0.098369 0.903354 0.159197
H6    H     H_    0.958498 0.098348 0.096623 0.159232
H7    H     H_    0.541477 0.598365 0.903360 0.159197
H8    H     H_    0.458498 0.598348 0.096623 0.159233
H9    H     H_    0.064756 0.070837 0.704654 0.171726
H10   H     H_    0.935225 0.070791 0.295338 0.171679
H11   H     H_    0.564761 0.570826 0.704656 0.171685
H12   H     H_    0.435225 0.570791 0.295338 0.171669
H13   H     H_    0.566600 0.138498 0.001270 0.167026
H14   H     H_    0.433402 0.138501 0.998736 0.167020
H15   H     H_    0.066599 0.638499 0.001267 0.167025
H16   H     H_    0.933402 0.638501 0.998737 0.167022
H17   H     H_    0.098239 0.805924 0.942991 0.153179
H18   H     H_    0.901763 0.805929 0.057013 0.153094
H19   H     H_    0.598243 0.305923 0.943000 0.153095
H20   H     H_    0.401761 0.305929 0.057011 0.153118
H21   H     H_    0.047243 0.860938 0.951586 0.192452
H22   H     H_    0.952759 0.860941 0.048419 0.192438
H23   H     H_    0.547247 0.360937 0.951592 0.192468
H24   H     H_    0.452759 0.360941 0.048418 0.192435
H25   H     H_    0.605066 0.805017 0.250460 0.145122
H26   H     H_    0.394936 0.805012 0.749537 0.145117
H27   H     H_    0.105067 0.305017 0.250460 0.145036
H28   H     H_    0.894936 0.305012 0.749537 0.145137
H29   H     H_    0.723862 0.036005 0.323292 0.170531
H30   H     H_    0.276132 0.038536 0.677643 0.170542
H31   H     H_    0.223867 0.536032 0.323296 0.170514
H32   H     H_    0.776131 0.536184 0.676754 0.170523
H33   H     H_    0.434838 0.860909 0.865340 0.147169
H34   H     H_    0.565163 0.860912 0.134658 0.147163
H35   H     H_    0.934839 0.360909 0.865339 0.147168
H36   H     H_    0.065163 0.360912 0.134657 0.147154
H37   H     H_    0.906471 0.194156 0.745330 0.146287
H38   H     H_    0.093532 0.194162 0.254669 0.146096
H39   H     H_    0.406470 0.694156 0.745330 0.146288
H40   H     H_    0.593531 0.694162 0.254669 0.146272
H41   H     H_    0.955946 0.138520 0.857829 0.138559
H42   H     H_    0.044055 0.138524 0.142171 0.138536
H43   H     H_    0.455946 0.638521 0.857829 0.138549
H44   H     H_    0.544054 0.638524 0.142171 0.138560
H45   H     H_    0.724077 0.895901 0.204203 0.170150
H46   H     H_    0.275927 0.895424 0.793131 0.170050
H47   H     H_    0.224079 0.395882 0.204235 0.170103
H48   H     H_    0.775921 0.395846 0.795601 0.170117
H49   H     H_    0.724300 0.069107 0.143053 0.190724
H50   H     H_    0.275702 0.067019 0.858683 0.190685
H51   H     H_    0.224294 0.569092 0.143025 0.190757
H52   H     H_    0.775708 0.568969 0.857085 0.190716
H53   H     H_    0.103233 0.147592 0.798794 0.153857
H54   H     H_    0.896718 0.147517 0.201172 0.153718
H55   H     H_    0.603246 0.647573 0.798804 0.153716
H56   H     H_    0.396718 0.647518 0.201172 0.153752
H57   H     H_    0.932541 0.937522 0.571572 0.172980
H58   H     H_    0.067476 0.937567 0.428444 0.172951
H59   H     H_    0.432537 0.437530 0.571572 0.172976
H60   H     H_    0.567476 0.437567 0.428444 0.172967
H61   H     H_    0.894733 0.856557 0.584564 0.181938
H62   H     H_    0.105329 0.856653 0.415480 0.182007
H63   H     H_    0.394730 0.356563 0.584567 0.181882
H64   H     H_    0.605330 0.356654 0.415481 0.181936
O1    O     O_R   0.000000 0.052190 0.590160 -0.586417
O2    O     O_R   0.000000 0.052190 0.409840 -0.586525
O3    O     O_R   0.500000 0.552190 0.590160 -0.586442
O4    O     O_R   0.500000 0.552190 0.409840 -0.586442
O5    O     O_R   0.035000 0.999980 0.944780 -0.597256
O6    O     O_R   0.965000 0.999980 0.055220 -0.597210
O7    O     O_R   0.535000 0.499980 0.944780 -0.597233
O8    O     O_R   0.465000 0.499980 0.055220 -0.597210
O9    O     O_R   0.965010 0.000000 0.874800 -0.565238
O10   O     O_R   0.034990 0.000000 0.125200 -0.565282
O11   O     O_R   0.465010 0.500000 0.874800 -0.565171
O12   O     O_R   0.534990 0.500000 0.125200 -0.565246
O13   O     O_R   0.034990 0.909820 0.034880 -0.582342
O14   O     O_R   0.965010 0.909820 0.965120 -0.582334
O15   O     O_R   0.534990 0.409820 0.034880 -0.582333
O16   O     O_R   0.465010 0.409820 0.965120 -0.582274
O17   O     O_R   0.000010 0.947820 0.590100 -0.575275
O18   O     O_R   0.999990 0.947820 0.409900 -0.575285
O19   O     O_R   0.500010 0.447820 0.590100 -0.575341
O20   O     O_R   0.499990 0.447820 0.409900 -0.575335
O21   O     O_R   0.939540 0.052180 0.439540 -0.570523
O22   O     O_R   0.060460 0.052180 0.560460 -0.570636
O23   O     O_R   0.439540 0.552180 0.439540 -0.570525
O24   O     O_R   0.560460 0.552180 0.560460 -0.570537
O25   O     O_R   0.939550 0.947820 0.439470 -0.578777
O26   O     O_R   0.060450 0.947820 0.560530 -0.578508
O27   O     O_R   0.439550 0.447820 0.439470 -0.578787
O28   O     O_R   0.560450 0.447820 0.560530 -0.578754
O29   O     O_R   0.500000 0.090290 0.052120 -0.580188
O30   O     O_R   0.500000 0.090290 0.947880 -0.580211
O31   O     O_R   0.000000 0.590290 0.052120 -0.580186
O32   O     O_R   0.000000 0.590290 0.947880 -0.580166
O33   O     O_R   0.560470 0.000120 0.112600 -0.583360
O34   O     O_R   0.439530 0.000120 0.887400 -0.583404
O35   O     O_R   0.060470 0.500120 0.112600 -0.583368
O36   O     O_R   0.939530 0.500120 0.887400 -0.583350
O37   O     O_R   0.560470 0.000020 0.008230 -0.566597
O38   O     O_R   0.439530 0.000020 0.991770 -0.566593
O39   O     O_R   0.060470 0.500020 0.008230 -0.566574
O40   O     O_R   0.939530 0.500020 0.991770 -0.566602
O41   O     O_R   0.500000 0.909980 0.052170 -0.581764
O42   O     O_R   0.500000 0.909980 0.947830 -0.581794
O43   O     O_R   0.000000 0.409980 0.052170 -0.581791
O44   O     O_R   0.000000 0.409980 0.947830 -0.581771
O45   O     O_R   0.035010 0.090130 0.035030 -0.587754
O46   O     O_R   0.964990 0.090130 0.964970 -0.587725
O47   O     O_R   0.535010 0.590130 0.035030 -0.587741
O48   O     O_R   0.464990 0.590130 0.964970 -0.587708
O49   O     O_3   0.907832 0.814367 0.706383 -0.718743
H65   H     H_    0.926403 0.795678 0.756045 0.336055
O50   O     O_3   0.092246 0.814464 0.293671 -0.718746
H66   H     H_    0.073649 0.795706 0.244055 0.336034
O51   O     O_3   0.407846 0.314361 0.706395 -0.718929
H67   H     H_    0.426464 0.295611 0.756007 0.335946
O52   O     O_3   0.592247 0.314465 0.293672 -0.718751
H68   H     H_    0.573651 0.295709 0.244055 0.336027
O53   O     O_3   0.964321 0.887512 0.833993 -0.765767
H69   H     H_    0.938710 0.870926 0.827921 0.338162
O54   O     O_3   0.035695 0.887518 0.166029 -0.765741
H70   H     H_    0.061304 0.870931 0.172096 0.338215
O55   O     O_3   0.464335 0.387505 0.834006 -0.765774
H71   H     H_    0.438750 0.370809 0.827939 0.338207
O56   O     O_3   0.535695 0.387518 0.166030 -0.765751
H72   H     H_    0.561305 0.370935 0.172097 0.338231
O57   O     O_3   0.094450 0.173167 0.910158 -0.715546
H73   H     H_    0.112960 0.196362 0.900436 0.331031
O58   O     O_3   0.905490 0.173102 0.089798 -0.715485
H74   H     H_    0.886972 0.196282 0.099515 0.331021
O59   O     O_3   0.594466 0.673151 0.910170 -0.715503
H75   H     H_    0.612978 0.696342 0.900450 0.331012
O60   O     O_3   0.405490 0.673103 0.089799 -0.715347
H76   H     H_    0.386973 0.696283 0.099515 0.331115
O61   O     O_3   0.384281 0.185524 0.029513 -0.712123
H77   H     H_    0.369098 0.214068 0.041909 0.333385
O62   O     O_3   0.615721 0.185518 0.970496 -0.712200
H78   H     H_    0.630904 0.214060 0.958099 0.333353
O63   O     O_3   0.884282 0.685524 0.029516 -0.712190
H79   H     H_    0.869100 0.714068 0.041913 0.333352
O64   O     O_3   0.115719 0.685519 0.970488 -0.712092
H80   H     H_    0.130901 0.714062 0.958090 0.333480
Br1   Br    Br    0.784235 0.952884 0.150955 -0.471329
Br2   Br    Br    0.215778 0.949500 0.847816 -0.471116
Br3   Br    Br    0.284228 0.452852 0.150951 -0.471183
Br4   Br    Br    0.715775 0.452649 0.848982 -0.471309
Br5   Br    Br    0.783859 0.139048 0.309166 -0.468620
Br6   Br    Br    0.216137 0.139662 0.694392 -0.468552
Br7   Br    Br    0.283855 0.639073 0.309120 -0.468581
Br8   Br    Br    0.716146 0.639118 0.691099 -0.468602

loop_
_geom_bond_atom_site_label_1
_geom_bond_atom_site_label_2
_ccdc_geom_bond_type
C146  H38   S    
C55   C59   A    
C154  C161  A    
C116  H20   S    
C112  O63   S    
O63   H79   S    
C48   O24   A    
O61   H77   S    
C53   C99   S    
Cu7   O31   S    
C97   O46   A    
C90   H32   S    
C89   H31   S    
C110  O61   S    
C26   C50   A    
C89   C127  S    
C47   C165  S    
C181  H49   S    
C60   C72   A    
C106  H14   S    
C90   C176  S    
C176  C184  S    
C149  C153  A    
C64   C84   A    
C94   C172  S    
C146  C150  A    
C11   C15   S    
C12   C16   S    
C92   C170  S    
C70   C74   A    
C149  H41   S    
C96   C168  S    
C117  H21   S    
C128  C180  S    
C96   O43   A    
C151  C155  A    
Cu1   O22   S    
C5    C13   S    
C35   O51   S    
C13   C125  S    
Cu8   O39   S    
C7    C15   S    
C75   O59   S    
C76   O60   S    
C139  C159  A    
C8    C16   S    
C15   C127  S    
C184  H52   S    
C41   C49   A    
C98   C162  S    
C158  C167  A    
Cu5   O33   S    
C155  C162  A    
C25   C29   A    
Cu10  O14   S    
C123  C134  A    
C27   C31   A    
Cu7   Cu8   S    
C46   O26   A    
C28   C32   A    
C45   O21   A    
C109  O62   S    
C62   C66   A    
C58   C70   A    
Cu2   O4    S    
Cu12  O48   S    
C29   H61   S    
C153  C161  A    
C1    O17   A    
C78   C82   A    
C3    O19   A    
Cu4   O27   S    
C138  H34   S    
C115  H19   S    
C111  C113  A    
Cu10  O9    S    
C22   C170  T    
C10   C182  S    
C11   C179  S    
C19   C179  S    
C9    C177  S    
C74   O58   S    
C175  C183  S    
Cu4   O20   S    
C17   C177  S    
C106  C130  A    
C98   O47   A    
C20   C166  T    
C103  O14   A    
C175  C179  S    
C50   C66   A    
C57   C61   A    
C119  C123  A    
Cu8   O44   S    
C59   C63   A    
C14   C126  S    
C7    C183  S    
C60   C64   A    
C156  C158  A    
C45   C163  S    
Cu7   O40   S    
C2    O2    A    
C100  O6    A    
C126  C178  S    
C160  C168  A    
C33   O49   S    
Cu2   O23   S    
C141  C147  A    
O62   H78   S    
C61   C65   A    
C5    C21   S    
O55   H71   S    
C73   C77   A    
C93   O39   A    
C139  H35   S    
C19   C165  T    
C94   O40   A    
C75   C79   A    
C73   O57   S    
C70   H6    S    
C29   C33   A    
C48   O28   A    
C114  H18   S    
Cu10  O6    S    
C30   C34   A    
C174  C182  S    
C112  C114  A    
C45   O25   A    
Cu6   O30   S    
C85   O30   A    
C104  C134  S    
C6    C182  S    
C64   C68   A    
Cu1   Cu3   S    
C6    C88   S    
Cu12  O11   S    
C38   O54   S    
C118  C122  A    
C138  C158  A    
C9    C13   S    
C14   H46   S    
C139  C143  A    
C88   H30   S    
C1    C65   S    
C104  O16   A    
C4    O4    A    
C126  H2    S    
Cu7   O35   S    
O56   H72   S    
O57   H73   S    
Cu9   O45   S    
C108  H16   S    
C27   C51   A    
Cu3   O17   S    
C15   H47   S    
C91   C169  S    
C152  C156  A    
C32   H64   S    
C131  C136  A    
C10   C14   S    
C143  H28   S    
C4    C68   S    
C25   H57   S    
Cu5   O38   S    
C116  C120  A    
C147  C151  A    
C6    C14   S    
C173  Br5   S    
C84   H12   S    
C132  C136  A    
C95   O41   A    
C23   C171  T    
C51   C67   A    
C41   C53   A    
C47   O23   A    
C42   C50   A    
C113  C117  A    
C16   H48   S    
C43   C55   A    
C12   C180  S    
Cu9   Cu10  S    
C115  C119  A    
Cu11  O15   S    
C46   O22   A    
Cu5   O29   S    
Cu12  O8    S    
C82   H10   S    
C105  C109  A    
C86   O31   A    
Cu6   O34   S    
C30   H62   S    
C107  C111  A    
C76   C80   A    
C2    C66   S    
C127  H3    S    
C2    O18   A    
C26   C30   A    
C97   O45   A    
C124  C134  A    
C127  C179  S    
C56   C102  S    
C61   C81   A    
C140  C160  A    
C175  Br7   S    
C151  H43   S    
C21   C169  T    
C8    C24   S    
C95   C167  S    
C37   C41   A    
C24   C172  T    
C108  C132  A    
C9    C181  S    
C5    C87   S    
C40   C44   A    
Cu5   O41   S    
C18   C178  S    
C80   H56   S    
C96   O44   A    
Cu1   O21   S    
C147  H39   S    
C58   C62   A    
C174  Br6   S    
C145  H37   S    
C155  C157  A    
C130  C135  A    
C80   C84   A    
C157  C167  A    
C100  O10   A    
C101  O11   A    
C102  O12   A    
C110  C116  A    
C182  H50   S    
C54   C58   A    
Cu3   O26   S    
Cu1   O2    S    
C107  H15   S    
C6    C22   S    
C92   O34   A    
C105  H13   S    
C93   O35   A    
C176  Br8   S    
C94   O36   A    
C144  H27   S    
C17   C163  T    
C18   C164  T    
Cu4   O28   S    
C118  H22   S    
C37   O53   S    
C69   C73   A    
Cu11  O7    S    
C174  C178  S    
C142  H25   S    
Cu12  O16   S    
C72   H8    S    
C62   C82   A    
C173  C181  S    
O52   H68   S    
Cu8   O36   S    
C5    C181  S    
C87   C173  S    
C98   O48   A    
C148  C152  A    
C103  O13   A    
C137  H33   S    
C138  C142  A    
C53   C57   A    
Cu11  Cu12  S    
C99   O9    A    
C33   C37   A    
C108  C112  A    
C63   C83   A    
C35   C39   A    
O60   H76   S    
C128  H4    S    
C44   C56   A    
O64   H80   S    
C77   C81   A    
C120  H24   S    
C183  H51   S    
Cu10  O46   S    
Cu2   O24   S    
C144  C146  A    
C140  H36   S    
C57   C69   A    
C31   C35   A    
C77   H53   S    
C89   C175  S    
Cu2   Cu4   S    
C32   C36   A    
Cu6   O37   S    
C137  C141  A    
C93   C171  S    
C9    Br1   S    
C79   H55   S    
C140  C144  A    
C11   Br3   S    
C137  C157  A    
Cu2   O3    S    
C85   O29   A    
O58   H74   S    
C47   O27   A    
C42   C54   A    
C79   C83   A    
C39   O55   S    
C43   C51   A    
O51   H67   S    
C12   C184  S    
Cu5   Cu6   S    
C25   C49   A    
O54   H70   S    
C56   C60   A    
C48   C166  S    
C74   C78   A    
C92   O38   A    
C31   H63   S    
C27   H59   S    
C145  C149  A    
C97   C161  S    
Cu4   O19   S    
Cu6   O42   S    
O50   H66   S    
C69   H5    S    
C28   C52   A    
O59   H75   S    
C113  H17   S    
C72   C76   A    
Cu1   O1    S    
C88   C174  S    
C20   C180  S    
O49   H65   S    
C71   H7    S    
C49   C65   A    
C38   C42   A    
C7    C23   S    
C91   O37   A    
Cu9   O13   S    
C7    C89   S    
C159  C168  A    
C117  C121  A    
C10   Br2   S    
C88   C126  S    
C13   H45   S    
C87   H29   S    
C83   H11   S    
C52   C68   A    
C141  H26   S    
C8    C184  S    
C101  O7    A    
C125  H1    S    
C129  C135  A    
C123  C129  A    
C119  H23   S    
Cu9   O10   S    
C54   C100  S    
C121  C131  A    
Cu11  O12   S    
C122  C132  A    
C39   C43   A    
C63   C67   A    
C86   O32   A    
C124  C130  A    
C10   C178  S    
C142  C148  A    
C36   C40   A    
C11   C183  S    
C107  C131  A    
C26   H58   S    
C109  C115  A    
C105  C129  A    
C150  H42   S    
C91   O33   A    
C148  H40   S    
C153  C159  A    
C122  C133  A    
C154  C160  A    
C176  C180  S    
C152  H44   S    
C173  C177  S    
Cu8   O32   S    
C36   O52   S    
C16   C128  S    
C104  O15   A    
C114  C118  A    
C85   C135  S    
C1    O1    A    
C86   C136  S    
C3    O3    A    
C125  C177  S    
C111  O64   S    
C8    C90   S    
C87   C125  S    
C81   H9    S    
C106  C110  A    
Cu3   O18   S    
C143  C145  A    
C99   O5    A    
C34   C38   A    
C3    C67   S    
C28   H60   S    
C40   O56   S    
Cu7   O43   S    
C55   C101  S    
Cu9   O5    S    
C78   H54   S    
C103  C133  S    
C34   O50   S    
Cu11  O47   S    
C71   C75   A    
Cu3   O25   S    
C44   C52   A    
C4    O20   A    
C95   O42   A    
O53   H69   S    
C46   C164  S    
C12   Br4   S    
C156  C162  A    
C150  C154  A    
C90   C128  S    
C102  O8    A    
C121  C133  A    
C120  C124  A    
C59   C71   A    
