data_mof_unit_21269.cif
_audit_creation_date              2013-03-05T16:19:17-0500
_audit_creation_method            fapswitch 2.2
_symmetry_space_group_name_H-M    P1
_symmetry_Int_Tables_number       1
_space_group_crystal_system       triclinic
_cell_length_a                    11.200225
_cell_length_b                    10.14479
_cell_length_c                    23.364039
_cell_angle_alpha                 90.189124
_cell_angle_beta                  90.072909
_cell_angle_gamma                 90.214472
_cell_volume                      2654.67869319

loop_
_atom_site_label
_atom_site_type_symbol
_atom_site_description
_atom_site_fract_x
_atom_site_fract_y
_atom_site_fract_z
_atom_type_partial_charge
O1    O     O_R   0.314910 0.616040 0.499990 -0.587128
O2    O     O_R   0.314910 0.383960 0.499990 -0.557745
C1    C     C_R   0.259658 0.499420 0.497986 0.947833
O3    O     O_R   0.500080 0.616070 0.416130 -0.586880
O4    O     O_R   0.500080 0.383930 0.416130 -0.554583
C2    C     C_R   0.500005 0.499702 0.390348 0.938238
Zn1   Zn    Zn3+2 0.500150 0.654960 0.499970 1.113224
Zn2   Zn    Zn3+2 0.500150 0.345040 0.499970 1.129953
O5    O     O_R   0.685320 0.616040 0.499970 -0.529781
O6    O     O_R   0.685320 0.383960 0.499970 -0.555423
O7    O     O_R   0.500150 0.616010 0.583820 -0.587645
O8    O     O_R   0.500150 0.383990 0.583820 -0.575064
C3    C     C_R   0.743231 0.500523 0.504066 0.950873
C4    C     C_R   0.498105 0.500100 0.610269 0.979807
C5    C     C_R   0.475808 0.384435 0.880962 0.586748
N1    N     N_R   0.444787 0.496754 0.852976 -0.350532
C6    C     C_R   0.405959 0.606413 0.881218 0.606354
C7    C     C_R   0.397411 0.606600 0.941489 -0.194558
C8    C     C_R   0.435242 0.492959 0.971293 -0.035516
C9    C     C_R   0.472795 0.380557 0.940604 -0.058858
C10   C     C_R   0.354511 0.716497 0.972619 0.244218
C11   C     C_R   0.355766 0.715699 0.032682 0.369036
C12   C     C_R   0.401053 0.605039 0.062682 -0.156406
C13   C     C_R   0.437433 0.491744 0.031670 -0.079590
C14   C     C_R   0.477502 0.377370 0.060882 -0.117475
C15   C     C_R   0.516527 0.266064 0.029146 0.320243
C16   C     C_R   0.510926 0.268163 0.969694 -0.134947
C17   C     C_R   0.412960 0.603087 0.122726 0.609775
N2    N     N_R   0.448841 0.491151 0.149840 -0.365352
C18   C     C_R   0.475611 0.378317 0.120935 0.578571
O9    O     O_2   0.511899 0.277809 0.850940 -0.475780
O10   O     O_2   0.377906 0.714622 0.850701 -0.437407
O11   O     O_2   0.392079 0.712035 0.154282 -0.419839
O12   O     O_2   0.498371 0.267633 0.150811 -0.423931
H1    H     H_    0.542161 0.182696 0.946205 0.236798
C19   C     C_R   0.576893 0.486496 0.234538 -0.083953
H2    H     H_    0.654437 0.479699 0.207022 0.195953
C20   C     C_R   0.591085 0.488686 0.293702 0.402625
C21   C     C_R   0.489816 0.498482 0.328718 -0.125550
C22   C     C_R   0.375643 0.503955 0.304627 -0.144646
H3    H     H_    0.297551 0.508888 0.331581 0.228397
C23   C     C_R   0.361764 0.501478 0.245615 -0.012843
H4    H     H_    0.273174 0.505524 0.227072 0.194035
C24   C     C_R   0.462435 0.493104 0.210550 0.170196
C25   C     C_R   0.371936 0.439219 0.757971 -0.066371
H5    H     H_    0.295254 0.391913 0.777442 0.209376
C26   C     C_R   0.385418 0.438675 0.698872 0.341954
C27   C     C_R   0.485174 0.499838 0.673152 -0.233769
C28   C     C_R   0.570485 0.561277 0.708857 0.372745
C29   C     C_R   0.555813 0.561670 0.767981 -0.107953
H6    H     H_    0.622414 0.607461 0.795306 0.201703
C30   C     C_R   0.456853 0.500575 0.792351 0.126211
C31   C     C_3   0.084258 0.625561 0.527740 -0.443721
C32   C     C_3   0.080209 0.391520 0.540935 -0.412791
H7    H     H_    0.117327 0.706264 0.501921 0.301996
H8    H     H_    0.124338 0.297525 0.530067 0.294915
H9    H     H_    0.132478 0.639870 0.568955 0.257678
H10   H     H_    0.112785 0.415189 0.584213 0.267032
C33   C     C_3   0.947381 0.636051 0.534308 0.404243
C34   C     C_3   0.941543 0.375761 0.541717 0.398846
H11   H     H_    0.884876 0.560820 0.415448 0.274660
H12   H     H_    0.886284 0.399885 0.422937 0.271838
C35   C     C_3   0.065031 0.488318 0.438115 0.654671
C36   C     C_3   0.124503 0.498589 0.499460 -0.242442
C37   C     C_3   0.884182 0.500624 0.507025 -0.344600
C38   C     C_3   0.926434 0.487199 0.443527 -0.381145
C39   C     C_3   0.371996 0.082390 0.501903 0.342823
C40   C     C_3   0.371339 0.919141 0.495372 0.326824
H13   H     H_    0.475841 0.074134 0.412481 0.170057
H14   H     H_    0.525496 0.877390 0.409783 0.192536
C41   C     C_3   0.547607 0.074568 0.444089 0.048089
C42   C     C_3   0.566510 0.919512 0.448188 0.020129
C43   C     C_3   0.560046 0.081113 0.549931 0.036631
C44   C     C_3   0.542400 0.926676 0.554134 0.053545
N3    N     N_3   0.499750 0.138610 0.498760 -0.249622
N4    N     N_3   0.499750 0.861390 0.498760 -0.241497
H15   H     H_    0.519342 0.124167 0.589001 0.196950
H16   H     H_    0.475056 0.915671 0.588147 0.174935
N5    N     N_R   0.305397 0.828496 0.943798 0.280966
O13   O     O_R   0.198981 0.821488 0.921582 -0.258199
O14   O     O_R   0.362331 0.940520 0.944166 -0.271409
Cl1   Cl    Cl    0.272012 0.363610 0.659634 -0.473665
Cl2   Cl    Cl    0.700985 0.631644 0.682681 -0.355057
N6    N     N_R   0.925387 0.654487 0.597320 0.244103
O15   O     O_R   0.885112 0.765418 0.617092 -0.142185
O16   O     O_R   0.985494 0.586439 0.634608 -0.304286
N7    N     N_R   0.896752 0.373663 0.601272 0.264367
O17   O     O_R   0.789584 0.413914 0.613130 -0.334148
O18   O     O_R   0.956037 0.313132 0.641357 -0.190654
N8    N     N_R   0.919272 0.760057 0.503285 0.268932
O19   O     O_R   0.920092 0.761350 0.447926 -0.248726
O20   O     O_R   0.950643 0.871395 0.527019 -0.140630
N9    N     N_R   0.923632 0.240980 0.519271 0.259396
O21   O     O_R   0.940315 0.213738 0.465691 -0.221645
O22   O     O_R   0.954030 0.146833 0.554282 -0.159298
Cl3   Cl    Cl    0.110770 0.620374 0.392356 -0.432592
Cl4   Cl    Cl    0.110619 0.348666 0.397863 -0.372038
N10   N     N_R   0.291673 0.138370 0.457953 0.255319
O23   O     O_R   0.177650 0.114938 0.461469 -0.173614
O24   O     O_R   0.328761 0.214776 0.417098 -0.315730
N11   N     N_R   0.304015 0.878933 0.442268 0.240104
O25   O     O_R   0.189183 0.864659 0.446008 -0.191119
O26   O     O_R   0.340988 0.903686 0.390732 -0.357366
Cl5   Cl    Cl    0.291134 0.853265 0.067879 -0.328827
Cl6   Cl    Cl    0.303174 0.136577 0.568268 -0.418936
Cl7   Cl    Cl    0.282220 0.851191 0.554200 -0.461872
N12   N     N_R   0.684174 0.118897 0.554439 0.268942
O27   O     O_R   0.760169 0.058131 0.522696 -0.202825
O28   O     O_R   0.721297 0.168961 0.602564 -0.246245
N13   N     N_R   0.641561 0.863208 0.581365 0.281739
O29   O     O_R   0.724295 0.816992 0.549713 -0.267247
O30   O     O_R   0.665764 0.892488 0.634432 -0.235982
N14   N     N_R   0.635025 0.150780 0.411060 0.293277
O31   O     O_R   0.625178 0.156607 0.355535 -0.276486
O32   O     O_R   0.727694 0.203871 0.434297 -0.239313
N15   N     N_R   0.688342 0.870286 0.438286 0.302384
O33   O     O_R   0.697524 0.756663 0.412726 -0.301613
O34   O     O_R   0.774980 0.952264 0.428180 -0.146688
N16   N     N_R   0.570755 0.153904 0.055762 0.260871
O35   O     O_R   0.670223 0.168954 0.083932 -0.271423
O36   O     O_R   0.537433 0.035633 0.040912 -0.276691
Cl8   Cl    Cl    0.735778 0.478233 0.322411 -0.471810

loop_
_geom_bond_atom_site_label_1
_geom_bond_atom_site_label_2
_geom_bond_distance
_ccdc_geom_bond_type
N7    O17   1.299229 A    
N9    O21   1.295051 A    
C7    C10   1.415056 A    
N12   O28   1.299445 A    
C43   C44   1.581805 S    
C31   H7    1.083026 S    
C8    C9    1.410761 A    
C42   N4    1.518687 S    
C31   C33   1.544943 S    
C32   C34   1.560842 S    
C1    C36   1.514194 S    
Zn1   O7    1.999802 S    
C15   C16   1.390612 A    
N11   O25   1.296819 A    
C44   N4    1.526783 S    
C17   N2    1.363761 A    
N6    O16   1.301826 A    
C20   C21   1.402977 A    
C31   C36   1.516067 S    
C43   N12   1.444371 S    
N9    O22   1.305427 A    
C5    N1    1.361586 A    
C11   Cl5   1.774664 S    
N15   O33   1.300901 A    
C41   N14   1.467010 S    
C7    C8    1.414823 A    
C26   Cl1   1.737490 S    
H13   C41   1.090847 S    
O5    C3    1.345167 A    
N13   O29   1.275960 A    
C39   N10   1.480400 S    
N6    O15   1.297795 A    
N1    C6    1.364399 A    
C29   C30   1.391259 A    
C12   C13   1.418039 A    
C34   N9    1.475729 S    
N16   O36   1.301094 A    
C35   C38   1.557612 S    
N11   O26   1.298788 A    
C10   C11   1.403417 A    
C43   N3    1.493712 S    
C23   C24   1.397272 A    
C40   Cl7   1.834445 S    
O3    Zn1   1.996899 S    
H11   C38   1.099963 S    
C34   N7    1.479916 S    
C6    C7    1.411546 A    
C25   C26   1.389201 A    
C5    C9    1.394606 A    
C32   H8    1.104663 S    
C18   O12   1.349045 S    
C39   C40   1.662620 S    
C13   C14   1.421924 A    
O3    C2    1.323551 A    
C21   C22   1.397871 A    
N5    O14   1.301050 A    
H12   C38   1.100864 S    
C39   Cl6   1.816906 S    
C4    C27   1.476497 S    
C25   C30   1.388361 A    
C16   H1    1.083945 S    
C14   C15   1.419464 A    
C25   H5    1.083629 S    
C35   Cl3   1.790508 S    
Zn2   N3    2.094275 S    
C35   C36   1.582669 S    
O1    C1    1.333756 A    
C33   N8    1.488454 S    
C15   N16   1.434978 S    
C44   N13   1.434967 S    
N2    C18   1.361712 A    
N8    O20   1.303503 A    
C26   C27   1.411895 A    
Zn2   O8    1.997245 S    
C2    C21   1.444306 S    
C10   N5    1.433797 S    
C29   H6    1.083548 S    
C12   C17   1.409230 A    
C40   N11   1.505446 S    
C20   Cl8   1.756833 S    
C22   H3    1.079647 S    
O8    C4    1.328651 A    
C34   C37   1.638847 S    
C37   C38   1.563470 S    
N10   O24   1.299241 A    
N7    O18   1.303976 A    
N2    C24   1.426435 S    
C28   C29   1.391325 A    
C19   C24   1.400388 A    
C39   N3    1.540300 S    
C23   H4    1.083151 S    
N12   O27   1.287263 A    
N14   O31   1.303383 A    
C32   H10   1.100000 S    
C14   C18   1.403276 A    
Zn1   O5    2.112648 S    
C19   H2    1.083472 S    
C31   H9    1.112281 S    
O1    Zn1   2.110513 S    
O2    Zn2   2.113416 S    
N1    C30   1.423711 S    
O6    C3    1.349642 A    
C17   O11   1.347907 S    
O4    Zn2   1.999453 S    
N16   O35   1.301474 A    
C5    O9    1.350731 S    
Zn1   N4    2.094496 S    
C9    C16   1.397302 A    
C40   N4    1.557037 S    
C42   N15   1.473109 S    
C33   N6    1.504166 S    
C28   Cl2   1.737046 S    
C19   C20   1.391320 A    
O2    C1    1.327727 A    
C41   C42   1.591161 S    
C35   Cl4   1.774864 S    
C33   C37   1.667540 S    
C41   N3    1.529647 S    
N8    O19   1.293571 A    
O4    C2    1.321710 A    
C32   C36   1.539185 S    
C27   C28   1.409774 A    
C22   C23   1.387447 A    
O7    C4    1.330315 A    
N15   O34   1.298014 A    
C8    C13   1.410916 A    
C3    C37   1.580110 S    
N13   O30   1.301952 A    
N5    O13   1.301009 A    
Zn2   O6    2.109744 S    
N10   O23   1.300882 A    
C44   H16   1.101981 S    
C6    O10   1.348838 S    
C43   H15   1.109872 S    
C11   C12   1.420356 A    
H14   C42   1.092577 S    
N14   O32   1.286281 A    
