data_mof_unit_10721.cif
_audit_creation_date              2012-12-11T16:31:29-0500
_audit_creation_method            fapswitch 2.2
_symmetry_space_group_name_H-M    P1
_symmetry_Int_Tables_number       1
_space_group_crystal_system       triclinic
_cell_length_a                    6.944753
_cell_length_b                    18.348319
_cell_length_c                    20.135746
_cell_angle_alpha                 68.385909
_cell_angle_beta                  90.920612
_cell_angle_gamma                 90.651985
_cell_volume                      2385.02814405

loop_
_atom_site_label
_atom_site_type_symbol
_atom_type_description
_atom_site_fract_x
_atom_site_fract_y
_atom_site_fract_z
_atom_type_partial_charge
O1    O     O_R   0.488990 0.443920 0.942160 -0.528549
O2    O     O_R   0.823840 0.406530 0.087600 -0.535272
O3    O     O_R   0.999650 0.556080 0.057840 -0.527258
C1    C     C_R   0.656046 0.385876 0.116821 0.744394
O4    O     O_R   0.818390 0.434590 0.944530 -0.525987
O5    O     O_R   0.994160 0.584350 0.913750 -0.538580
C2    C     C_R   0.648585 0.420858 0.923796 0.720806
O6    O     O_R   0.494480 0.415650 0.086250 -0.531682
O7    O     O_3   0.662600 0.549100 0.990070 -0.363196
V1    V     V_3+5 0.935320 0.490890 0.001840 1.508855
O8    O     O_R   0.324240 0.593470 0.912400 -0.540673
C3    C     C_R   0.154548 0.614842 0.884036 0.703570
O9    O     O_R   0.329690 0.565410 0.055470 -0.527589
C4    C     C_R   0.162255 0.579648 0.075798 0.743997
V2    V     V_3+5 0.435990 0.509110 0.998160 1.502766
O10   O     O_3   0.158840 0.450900 0.009930 -0.357623
C5    C     C_3   0.003940 0.672700 0.268207 -0.330921
C6    C     C_3   0.345854 0.721108 0.235572 -0.144299
C7    C     C_3   0.334186 0.774549 0.280407 -0.370611
H1    H     H_    0.070188 0.680405 0.372277 0.161156
H2    H     H_    0.045256 0.610632 0.297972 0.171315
H3    H     H_    0.447042 0.748528 0.190819 0.111664
H4    H     H_    0.401576 0.745953 0.334329 0.150884
H5    H     H_    0.418561 0.829186 0.253506 0.140676
C8    C     C_1   0.108442 0.876560 0.377026 -0.158136
C9    C     C_3   0.142032 0.712206 0.204635 0.164651
C10   C     C_3   0.005641 0.717966 0.320073 -0.353622
C11   C     C_3   0.122075 0.795722 0.288599 0.210159
C12   C     C_3   0.035217 0.843047 0.212857 -0.183925
C13   C     C_3   0.060631 0.796055 0.161650 -0.208793
C14   C     C_1   0.113106 0.839968 0.337615 -0.068593
C15   C     C_1   0.150125 0.664458 0.158414 -0.043543
C16   C     C_1   0.156228 0.625929 0.120653 -0.117718
H6    H     H_    0.915447 0.789225 0.140288 0.114045
H7    H     H_    0.877768 0.848819 0.219252 0.100505
H8    H     H_    0.854908 0.671511 0.247477 0.169485
H9    H     H_    0.854799 0.730355 0.330391 0.148928
H10   H     H_    0.130092 0.522474 0.676755 0.114307
C17   C     C_R   0.119135 0.772413 0.876929 -0.178069
C18   C     C_R   0.101206 0.848156 0.876135 -0.109048
C19   C     C_R   0.090704 0.911354 0.811607 0.207537
C20   C     C_R   0.097346 0.899143 0.747351 -0.169579
C21   C     C_R   0.115925 0.822710 0.746391 0.041620
C22   C     C_R   0.126681 0.758013 0.812531 0.071536
C23   C     C_R   0.128778 0.810746 0.680968 -0.163180
C24   C     C_R   0.156246 0.733048 0.682049 0.028885
C25   C     C_R   0.143684 0.666866 0.748233 0.021568
C26   C     C_R   0.141514 0.680515 0.813788 -0.170923
C27   C     C_R   0.197959 0.718225 0.619072 -0.050263
C28   C     C_R   0.173648 0.643579 0.617458 -0.153198
C29   C     C_R   0.139170 0.580406 0.679473 -0.159169
C30   C     C_R   0.137280 0.589719 0.745078 -0.041744
H11   H     H_    0.126332 0.725432 0.928734 0.102540
H12   H     H_    0.095378 0.857648 0.925999 0.166756
H13   H     H_    0.089845 0.950333 0.698545 0.128757
H14   H     H_    0.199140 0.632767 0.568870 0.120000
H15   H     H_    0.747541 0.464295 0.332604 0.160515
C31   C     C_R   0.601355 0.229982 0.119815 -0.134219
C32   C     C_R   0.575901 0.155049 0.118588 -0.079684
C33   C     C_R   0.564426 0.090563 0.182117 -0.075448
C34   C     C_R   0.576836 0.100584 0.247318 -0.150636
C35   C     C_R   0.603644 0.175942 0.250265 0.064625
C36   C     C_R   0.616655 0.242174 0.185297 0.062153
C37   C     C_R   0.621128 0.185452 0.316615 -0.163075
C38   C     C_R   0.656492 0.260964 0.318294 0.055627
C39   C     C_R   0.664176 0.328990 0.253503 0.024210
C40   C     C_R   0.645522 0.318671 0.186366 -0.173931
C41   C     C_R   0.684472 0.269303 0.384876 -0.131823
C42   C     C_R   0.720161 0.341811 0.389012 -0.161651
C43   C     C_R   0.722858 0.408224 0.327511 -0.089652
C44   C     C_R   0.691097 0.403814 0.260327 0.112052
H16   H     H_    0.610125 0.277959 0.068745 0.091807
H17   H     H_    0.565677 0.146998 0.068007 0.134362
H18   H     H_    0.546429 0.032380 0.180935 0.137308
H19   H     H_    0.566998 0.048510 0.295295 0.100593
H20   H     H_    0.680677 0.219657 0.434910 0.097747
H21   H     H_    0.743053 0.346693 0.440540 0.122381
O11   O     O_R   0.770890 0.084490 0.414040 -0.539785
O12   O     O_R   0.445980 0.065450 0.555510 -0.538462
O13   O     O_R   0.270670 0.915620 0.586180 -0.530303
C45   C     C_R   0.615576 0.079910 0.575884 0.720343
O14   O     O_R   0.441480 0.093500 0.412450 -0.540447
O15   O     O_R   0.266140 0.943870 0.442100 -0.523363
C46   C     C_R   0.609872 0.115837 0.384583 0.684078
O16   O     O_R   0.775410 0.056240 0.558120 -0.537459
O17   O     O_3   0.602660 0.950990 0.510100 -0.350235
V3    V     V_3+5 0.329740 0.009100 0.498130 1.471100
O18   O     O_R   0.936120 0.934420 0.444240 -0.542081
C47   C     C_R   0.103351 0.921210 0.423235 0.736926
O19   O     O_R   0.940610 0.906370 0.587310 -0.535307
C48   C     C_R   0.111653 0.879968 0.612291 0.698028
V4    V     V_3+5 0.829110 0.990690 0.501470 1.466638
O20   O     O_3   0.106080 0.049010 0.489880 -0.372706
C49   C     C_3   0.829424 0.248093 0.707863 -0.332457
C50   C     C_3   0.478398 0.277713 0.680191 -0.338608
C51   C     C_3   0.479366 0.325821 0.729795 -0.326520
H22   H     H_    0.869346 0.357815 0.726479 0.145433
H23   H     H_    0.869517 0.287401 0.652939 0.139058
H24   H     H_    0.331962 0.252717 0.679362 0.150350
H25   H     H_    0.510776 0.317358 0.624564 0.143896
H26   H     H_    0.515015 0.388138 0.697913 0.145545
H27   H     H_    0.332699 0.325087 0.751479 0.150022
C52   C     C_1   0.637762 0.375899 0.877876 -0.135551
C53   C     C_3   0.628716 0.210767 0.706188 0.251725
C54   C     C_3   0.829301 0.295785 0.757709 -0.339861
C55   C     C_3   0.628536 0.292169 0.791827 0.223006
C56   C     C_3   0.580241 0.203982 0.834491 -0.161751
C57   C     C_3   0.576509 0.157139 0.783544 -0.324960
C58   C     C_1   0.632283 0.338522 0.839094 -0.073395
C59   C     C_1   0.628509 0.164769 0.658661 -0.053846
C60   C     C_1   0.625288 0.126387 0.620652 -0.159826
H28   H     H_    0.680107 0.107931 0.803801 0.186875
H29   H     H_    0.432607 0.130237 0.782761 0.180756
H30   H     H_    0.694778 0.179051 0.875754 0.135306
H31   H     H_    0.940780 0.201656 0.726811 0.180843
H32   H     H_    0.941086 0.272081 0.800293 0.175846
C61   C     C_1   0.110071 0.924549 0.183317 0.315643
N1    N     N_1   0.167611 0.988302 0.160219 -0.346421
I1    I     I_    0.067876 0.025739 0.811366 -0.495761
C62   C     C_1   0.319182 0.768761 0.563564 0.255507
N2    N     N_1   0.423467 0.805744 0.519614 -0.321842
C63   C     C_1   0.133539 0.516844 0.805897 0.237631
N3    N     N_1   0.132633 0.457342 0.853408 -0.317288
I2    I     I_    0.674705 0.518188 0.180051 -0.409768
C64   C     C_1   0.428596 0.644358 0.279602 0.318247
N4    N     N_1   0.492747 0.584308 0.314585 -0.368986
C65   C     C_1   0.396378 0.193939 0.872929 0.327203
N5    N     N_1   0.252431 0.186089 0.903031 -0.328548
C66   C     C_1   0.179923 0.837692 0.098233 0.315276
N6    N     N_1   0.273348 0.870130 0.048868 -0.332626

loop_
_geom_bond_atom_site_label_1
_geom_bond_atom_site_label_2
_ccdc_geom_bond_type
C8    C14   T    
O15   V3    S    
C49   C54   S    
C9    C15   S    
C51   H27   S    
C19   C20   A    
C54   H32   S    
C42   H21   S    
C50   C51   S    
C6    C9    S    
C1    O6    A    
C4    C16   S    
O12   V3    S    
C23   C24   A    
C34   H19   S    
C24   C27   A    
C35   C36   A    
C5    C9    S    
C11   C12   S    
O13   V3    S    
C6    C64   S    
O5    C3    A    
C50   H24   S    
C27   C62   S    
C55   C56   S    
C49   H23   S    
V2    O10   S    
C6    C7    S    
C59   C60   T    
C37   C46   S    
C35   C37   A    
O8    V2    S    
O18   V4    S    
C41   C42   A    
C56   C57   S    
C43   C44   A    
O1    V2    S    
C5    H8    S    
H15   C43   S    
O7    V1    S    
C32   H17   S    
C3    C26   S    
H22   C54   S    
C39   C40   A    
C49   C53   S    
C32   C33   A    
C2    C52   S    
O9    C4    A    
C42   C43   A    
C30   C63   S    
O16   V4    S    
O15   C47   A    
C36   C40   A    
C13   H6    S    
C29   C30   A    
C5    C10   S    
C45   C60   S    
C44   I2    S    
C17   C18   A    
O12   C45   A    
C50   H25   S    
H10   C29   S    
O11   V4    S    
C31   C32   A    
C12   C61   S    
C5    H2    S    
C57   H28   S    
C33   C34   A    
C57   H29   S    
O2    C1    A    
C21   C22   A    
C56   H30   S    
C12   C13   S    
C20   H13   S    
O19   V4    S    
C25   C26   A    
C49   H31   S    
C38   C41   A    
C28   C29   A    
C19   I1    S    
C7    C11   S    
C21   C23   A    
C17   C22   A    
O3    C4    A    
C39   C44   A    
C18   C19   A    
C9    C13   S    
O6    V2    S    
O14   C46   A    
O9    V2    S    
C64   N4    T    
O14   V3    S    
C20   C21   A    
C65   N5    T    
O2    V1    S    
C53   C57   S    
C50   C53   S    
O17   V3    S    
O4    C2    A    
C66   N6    T    
C31   C36   A    
C51   C55   S    
C24   C25   A    
O1    C2    A    
C8    C47   S    
C11   C14   S    
O5    V1    S    
C1    C40   S    
O8    C3    A    
C25   C30   A    
H1    C10   S    
C41   H20   S    
C13   C66   S    
C54   C55   S    
C12   H7    S    
C18   H12   S    
C52   C58   T    
C37   C38   A    
O13   C48   A    
C6    H3    S    
C7    H5    S    
O7    V2    S    
C56   C65   S    
O4    V1    S    
O3    V1    S    
V1    O10   S    
C61   N1    T    
C15   C16   T    
C53   C59   S    
C31   H16   S    
O19   C48   A    
C17   H11   S    
C10   H9    S    
V3    O20   S    
C33   H18   S    
V4    O20   S    
C38   C39   A    
C34   C35   A    
C23   C48   S    
C28   H14   S    
O11   C46   A    
C7    H4    S    
O18   C47   A    
C27   C28   A    
C10   C11   S    
C62   N2    T    
O17   V4    S    
C63   N3    T    
C51   H26   S    
C45   O16   A    
C22   C26   A    
C55   C58   S    
