data_mof_unit_34884.cif
_audit_creation_date              2012-10-26T19:54:46-0400
_audit_creation_method            fapswitch 2.2
_symmetry_space_group_name_H-M    P1
_symmetry_Int_Tables_number       1
_space_group_crystal_system       triclinic
_cell_length_a                    17.742999
_cell_length_b                    16.499963
_cell_length_c                    10.795751
_cell_angle_alpha                 90.004083
_cell_angle_beta                  90.133577
_cell_angle_gamma                 89.996954
_cell_volume                      3160.54279782

loop_
_atom_site_label
_atom_site_type_symbol
_atom_type_description
_atom_site_fract_x
_atom_site_fract_y
_atom_site_fract_z
_atom_type_partial_charge
C1    C     C_R   0.355477 0.499969 0.499882 0.530930
C2    C     C_R   0.525557 0.171500 0.604255 0.190978
C3    C     C_R   0.557796 0.742766 0.554012 0.058110
C4    C     C_R   0.473623 0.257104 0.399754 0.051944
C5    C     C_R   0.442173 0.742728 0.446003 0.060867
C6    C     C_R   0.526387 0.257148 0.600277 0.055320
C7    C     C_R   0.499903 0.872959 0.500136 -0.006657
C8    C     C_R   0.499926 0.126918 0.500127 -0.007704
C9    C     C_1   0.499854 0.962737 0.500213 0.196495
C10   C     C_1   0.499861 0.037151 0.500209 0.196552
C11   C     C_R   0.499998 0.499984 0.262564 0.532668
C12   C     C_R   0.644522 0.499965 0.500101 0.530571
C13   C     C_R   0.500001 0.499988 0.737436 0.532965
C14   C     C_R   0.360765 0.497072 0.128506 -0.102139
C15   C     C_R   0.639238 0.497239 0.871499 -0.102675
C16   C     C_R   0.360746 0.501903 0.870482 -0.097993
C17   C     C_R   0.639249 0.502079 0.129523 -0.101309
C18   C     C_R   0.292354 0.497447 0.064100 -0.000818
C19   C     C_R   0.707648 0.497697 0.935909 -0.001404
C20   C     C_R   0.292340 0.501011 0.934365 -0.002470
C21   C     C_R   0.707656 0.501274 0.065644 -0.003973
C22   C     C_R   0.430463 0.500328 0.934596 0.007362
C23   C     C_R   0.885177 0.497654 0.501177 0.018365
C24   C     C_R   0.569534 0.500414 0.065406 0.006144
C25   C     C_R   0.430469 0.499095 0.064901 0.004533
C26   C     C_R   0.569531 0.499185 0.935101 0.004307
C27   C     C_R   0.499997 0.499907 0.871104 0.009226
C28   C     C_R   0.500001 0.499897 0.128897 0.008518
C29   C     C_R   0.845975 0.567149 0.542604 0.229085
C30   C     C_R   0.155322 0.428963 0.539804 0.198396
C31   C     C_R   0.154024 0.567175 0.457309 0.229635
C32   C     C_R   0.844669 0.428998 0.459843 0.199179
C33   C     C_R   0.767266 0.567831 0.539434 -0.107991
C34   C     C_R   0.114819 0.497649 0.498575 0.018259
C35   C     C_R   0.233951 0.430324 0.538135 -0.121944
C36   C     C_R   0.232733 0.567859 0.460553 -0.105749
C37   C     C_R   0.766040 0.430349 0.461604 -0.121747
C38   C     C_R   0.727124 0.499555 0.500144 -0.086069
C39   C     C_R   0.272873 0.499561 0.499771 -0.086391
C40   C     C_1   0.777395 0.504958 0.134759 0.249085
C41   C     C_1   0.222595 0.504586 0.865250 0.251540
C42   C     C_1   0.777373 0.493586 0.867362 0.251077
C43   C     C_1   0.222636 0.493272 0.132658 0.251474
C44   C     C_1   0.966143 0.497015 0.500297 0.185038
C45   C     C_1   0.033852 0.497013 0.499424 0.185119
C46   C     C_R   0.560026 0.828424 0.553654 0.131828
C47   C     C_R   0.474389 0.171464 0.395910 0.130037
C48   C     C_R   0.439843 0.828395 0.446484 0.193845
Cu1   Cu    Cu3+1 0.500000 0.580420 0.500000 0.972009
Cu2   Cu    Cu3+1 0.500000 0.419580 0.500000 0.966157
H1    H     H_    0.358828 0.494952 0.228676 0.118243
H2    H     H_    0.451897 0.290553 0.321449 0.184002
H3    H     H_    0.397205 0.708942 0.402329 0.173224
H4    H     H_    0.548159 0.290656 0.678483 0.182535
H5    H     H_    0.862886 0.757754 0.712056 0.408463
H6    H     H_    0.196076 0.247561 0.611133 0.361107
H7    H     H_    0.137139 0.757914 0.288241 0.405996
H8    H     H_    0.803886 0.247703 0.387986 0.359942
H9    H     H_    0.677645 0.929695 0.450358 0.348209
H10   H     H_    0.550545 0.070756 0.213447 0.350054
H11   H     H_    0.285570 0.973937 0.430612 0.404342
H12   H     H_    0.641179 0.495114 0.771328 0.118354
H13   H     H_    0.516341 0.026967 0.859156 0.409054
H14   H     H_    0.358793 0.503989 0.770305 0.124026
H15   H     H_    0.641199 0.504170 0.229701 0.123618
H16   H     H_    0.737085 0.621240 0.569982 0.191156
H17   H     H_    0.265142 0.377618 0.568825 0.168516
H18   H     H_    0.262915 0.621291 0.430126 0.193310
H19   H     H_    0.734844 0.377666 0.430838 0.166469
H20   H     H_    0.602824 0.709036 0.597634 0.174605
N1    N     N_R   0.500000 0.701220 0.500000 -0.283003
N2    N     N_R   0.500000 0.298780 0.500000 -0.286856
N3    N     N_1   0.833475 0.508252 0.189421 -0.192175
N4    N     N_1   0.166511 0.507789 0.810587 -0.190758
N5    N     N_1   0.833453 0.489934 0.813186 -0.192017
N6    N     N_1   0.166565 0.489572 0.186849 -0.192305
O1    O     O_R   0.391260 0.567930 0.500000 -0.508088
O2    O     O_2   0.916924 0.705340 0.491279 -0.175501
O3    O     O_3   0.833998 0.708616 0.689055 -0.477485
O4    O     O_2   0.045075 0.361800 0.676169 -0.174535
O5    O     O_2   0.080885 0.293292 0.484011 -0.180518
O6    O     O_3   0.170600 0.281654 0.673912 -0.463724
O7    O     O_2   0.039313 0.630920 0.325317 -0.221212
O8    O     O_2   0.083043 0.705326 0.508836 -0.172644
O9    O     O_3   0.166015 0.708743 0.311121 -0.476829
O10   O     O_2   0.954905 0.361972 0.323261 -0.174963
O11   O     O_2   0.919100 0.293247 0.515223 -0.177972
O12   O     O_R   0.608740 0.432070 0.500000 -0.495319
O13   O     O_3   0.829373 0.281851 0.325302 -0.469343
O14   O     O_2   0.615286 0.910190 0.745971 -0.171995
O15   O     O_2   0.702405 0.818923 0.639956 -0.234648
O16   O     O_3   0.667535 0.954543 0.532177 -0.451613
O17   O     O_2   0.364767 0.089703 0.282697 -0.169356
O18   O     O_2   0.438997 0.181192 0.153241 -0.234635
O19   O     O_3   0.500187 0.045576 0.222577 -0.458542
O20   O     O_2   0.384924 0.912163 0.255634 -0.165106
O21   O     O_2   0.298298 0.818215 0.358245 -0.248030
O22   O     O_3   0.331599 0.952629 0.471212 -0.475798
O23   O     O_R   0.608740 0.567930 0.500000 -0.510072
O24   O     O_2   0.634345 0.087692 0.716648 -0.164584
O25   O     O_2   0.562307 0.181951 0.845744 -0.253371
O26   O     O_3   0.497749 0.047552 0.778494 -0.466795
O27   O     O_R   0.391260 0.432070 0.500000 -0.493402
O28   O     O_R   0.500000 0.567910 0.319660 -0.490692
O29   O     O_R   0.500000 0.432090 0.680340 -0.504663
O30   O     O_R   0.500000 0.567910 0.680340 -0.488474
O31   O     O_R   0.500000 0.432090 0.319660 -0.506255
O32   O     O_2   0.960708 0.630811 0.674635 -0.219821
S1    S     S_3+6 0.892752 0.654389 0.599441 0.087412
S2    S     S_3+6 0.110042 0.340082 0.593494 0.099026
S3    S     S_3+6 0.107249 0.654450 0.400597 0.088515
S4    S     S_3+6 0.889942 0.340172 0.405884 0.098875
S5    S     S_3+6 0.638402 0.877443 0.621960 0.073286
S6    S     S_3+6 0.442405 0.122572 0.259732 0.073316
S7    S     S_3+6 0.361504 0.877465 0.378277 0.072419
S8    S     S_3+6 0.557522 0.122569 0.740344 0.074442

loop_
_geom_bond_atom_site_label_1
_geom_bond_atom_site_label_2
_ccdc_geom_bond_type
C47   S6    S    
C37   H19   S    
C1    O1    A    
C14   C18   A    
C3    N1    A    
H11   O22   S    
O24   S8    D    
Cu1   O28   S    
C20   C41   S    
O18   S6    D    
C40   N3    T    
C25   C28   A    
C15   C19   A    
O13   S4    S    
C42   N5    T    
C30   C35   A    
C4    H2    S    
C23   C29   A    
C5    H3    S    
C19   C21   A    
C24   C26   A    
O19   S6    S    
C29   C33   A    
O32   S1    D    
O14   S5    D    
Cu2   N2    S    
C12   O23   A    
C41   N4    T    
C2    S8    S    
Cu1   O1    S    
C22   C25   A    
Cu2   O29   S    
O20   S7    D    
C11   O28   A    
O21   S7    D    
O16   S5    S    
C1    O27   A    
C19   C42   S    
Cu2   O12   S    
H9    O16   S    
Cu2   O27   S    
C2    C6    A    
C6    H4    S    
H13   O26   S    
C33   H16   S    
C5    C48   A    
C17   C24   A    
C30   C34   A    
O8    S3    D    
C7    C46   A    
C3    H20   S    
C13   O29   A    
O3    S1    S    
C15   C26   A    
O11   S4    D    
C6    N2    A    
C17   C21   A    
C23   C44   S    
O15   S5    D    
C35   C39   A    
C37   C38   A    
Cu1   O23   S    
H5    O3    S    
C14   H1    S    
C35   H17   S    
C16   C20   A    
C12   O12   A    
C26   C27   A    
C31   C34   A    
C34   C45   S    
C32   C37   A    
C48   S7    S    
C30   S2    S    
C22   C27   A    
C11   O31   A    
Cu2   O31   S    
O7    S3    D    
O6    S2    S    
C4    N2    A    
C44   C45   T    
C9    C10   T    
C29   S1    S    
C43   N6    T    
C7    C9    S    
C16   C22   A    
C32   S4    S    
C46   S5    S    
C36   C39   A    
C2    C8    A    
C24   C28   A    
C13   O30   A    
O9    S3    S    
C36   H18   S    
H6    O6    S    
Cu1   O30   S    
C3    C46   A    
C17   H15   S    
C33   C38   A    
C23   C32   A    
C8    C47   A    
C5    N1    A    
C18   C43   S    
C7    C48   A    
O22   S7    S    
C21   C40   S    
C11   C28   S    
C15   H12   S    
H7    O9    S    
O2    S1    D    
C18   C20   A    
O17   S6    D    
C14   C25   A    
C12   C38   S    
H8    O13   S    
O26   S8    S    
C1    C39   S    
H10   O19   S    
O10   S4    D    
O5    S2    D    
C8    C10   S    
Cu1   Cu2   S    
Cu1   N1    S    
O4    S2    D    
O25   S8    D    
C31   S3    S    
C31   C36   A    
C13   C27   S    
C16   H14   S    
C4    C47   A    
