data_mof_unit_47251.cif
_audit_creation_date              2012-10-26T18:32:19-0400
_audit_creation_method            fapswitch 2.2
_symmetry_space_group_name_H-M    P1
_symmetry_Int_Tables_number       1
_space_group_crystal_system       triclinic
_cell_length_a                    12.327509
_cell_length_b                    13.176339
_cell_length_c                    15.869355
_cell_angle_alpha                 77.962748
_cell_angle_beta                  101.040304
_cell_angle_gamma                 116.553221
_cell_volume                      2240.81509322

loop_
_atom_site_label
_atom_site_type_symbol
_atom_type_description
_atom_site_fract_x
_atom_site_fract_y
_atom_site_fract_z
_atom_type_partial_charge
C1    C     C_R   0.854863 0.286575 0.507486 0.528232
C2    C     C_R   0.228009 0.834457 0.469851 -0.002485
C3    C     C_R   0.815118 0.085472 0.564395 -0.132879
C4    C     C_R   0.999428 0.499748 0.659527 0.546510
C5    C     C_R   0.736227 0.970749 0.581746 -0.141128
C6    C     C_R   0.612969 0.932971 0.551499 -0.122234
C7    C     C_R   0.566351 0.009428 0.499796 0.031657
C8    C     C_R   0.649904 0.123623 0.473883 0.023494
C9    C     C_R   0.439809 0.976031 0.472096 0.027843
C10   C     C_R   0.400301 0.053007 0.412930 0.050767
C11   C     C_R   0.485618 0.159876 0.380434 -0.140688
C12   C     C_3   0.042650 0.407615 0.071898 -0.183724
C13   C     C_R   0.608620 0.194027 0.409276 -0.123751
C14   C     C_R   0.350905 0.868492 0.501877 -0.136618
C15   C     C_R   0.189914 0.911831 0.412967 -0.137650
C16   C     C_R   0.145071 0.713371 0.487497 0.544619
C17   C     C_R   0.772889 0.163550 0.512560 -0.003047
C18   C     C_R   0.345747 0.328189 0.637184 -0.149947
C19   C     C_R   0.760229 0.645822 0.384017 0.049723
C20   C     C_R   0.664103 0.677779 0.358749 -0.162219
C21   C     C_R   0.560334 0.622744 0.402348 -0.137302
C22   C     C_R   0.551588 0.534630 0.472342 -0.005895
C23   C     C_3   0.000944 0.498436 0.083398 0.035165
C24   C     C_R   0.652849 0.505173 0.496136 0.180170
C25   C     C_R   0.446966 0.475089 0.519746 -0.013246
C26   C     C_R   0.446146 0.387879 0.589543 0.036152
C27   C     C_R   0.545666 0.360893 0.611810 -0.173601
C28   C     C_R   0.000429 0.500052 0.340465 0.545921
C29   C     C_R   0.646760 0.418502 0.566463 -0.095056
C30   C     C_R   0.342307 0.497898 0.501390 0.040820
C31   C     C_R   0.246136 0.354913 0.615916 0.043694
C32   C     C_3   0.031600 0.401147 0.973735 0.184686
C33   C     C_3   0.870193 0.474504 0.936433 -0.262261
C34   C     C_3   0.089979 0.617352 0.042147 -0.224483
C35   C     C_3   0.870704 0.470612 0.035060 -0.234098
C36   C     C_1   0.001007 0.499461 0.250974 -0.038860
C37   C     C_3   0.999165 0.498994 0.916942 0.066180
C38   C     C_3   0.240695 0.479300 0.948976 0.005027
C39   C     C_3   0.340550 0.438750 0.957572 -0.376580
C40   C     C_3   0.085929 0.619134 0.943770 -0.223264
C41   C     C_1   0.001147 0.498948 0.175507 -0.076253
C42   C     C_1   0.998145 0.499324 0.824601 -0.048229
C43   C     C_1   0.998346 0.499568 0.749039 -0.031327
C44   C     C_R   0.275748 0.021040 0.385089 -0.131803
Cu1   Cu    Cu3+1 0.098280 0.475420 0.519630 0.929444
Cu2   Cu    Cu3+1 0.901720 0.524580 0.480370 0.912562
H1    H     H_    0.984105 0.322221 0.105372 0.090498
H2    H     H_    0.670710 0.275216 0.378203 0.150959
H3    H     H_    0.168235 0.309221 0.652390 0.124688
H4    H     H_    0.545792 0.294583 0.665352 0.107071
H5    H     H_    0.344448 0.261413 0.690619 0.090051
H6    H     H_    0.334835 0.562501 0.449534 0.119541
H7    H     H_    0.840470 0.689050 0.349849 0.123985
H8    H     H_    0.670043 0.745440 0.305192 0.099041
H9    H     H_    0.718474 0.392228 0.589446 0.183806
H10   H     H_    0.842061 0.542072 0.899243 0.123994
H11   H     H_    0.800974 0.391631 0.915594 0.101911
H12   H     H_    0.137150 0.428347 0.103587 0.126529
H13   H     H_    0.805791 0.384041 0.062266 0.114506
H14   H     H_    0.838330 0.533382 0.044775 0.124269
H15   H     H_    0.179276 0.651273 0.925866 0.093170
H16   H     H_    0.051882 0.683139 0.907517 0.115193
H17   H     H_    0.184626 0.637861 0.073958 0.106887
H18   H     H_    0.261361 0.529083 0.002973 0.115446
H19   H     H_    0.244039 0.535242 0.885709 0.144830
H20   H     H_    0.325331 0.390637 0.903437 0.160750
H21   H     H_    0.430910 0.513653 0.955562 0.087415
H22   H     H_    0.340426 0.382120 0.020163 0.151552
H23   H     H_    0.065037 0.685002 0.052336 0.120085
H24   H     H_    0.909014 0.113556 0.593491 0.128000
H25   H     H_    0.949331 0.320081 0.962723 0.132459
H26   H     H_    0.488772 0.651024 0.380032 0.098952
H27   H     H_    0.094894 0.886441 0.387348 0.121013
H28   H     H_    0.457209 0.217472 0.332306 0.106713
H29   H     H_    0.245182 0.079398 0.339788 0.106769
H30   H     H_    0.374626 0.808278 0.549502 0.117816
H31   H     H_    0.557463 0.842866 0.568189 0.103976
H32   H     H_    0.770129 0.911130 0.621249 0.118320
N1    N     N_R   0.246300 0.438200 0.549400 -0.233682
N2    N     N_R   0.754300 0.561180 0.451130 -0.235058
O1    O     O_R   0.972520 0.318130 0.524690 -0.501468
O2    O     O_R   0.806530 0.359650 0.491530 -0.527963
O3    O     O_R   0.083030 0.479240 0.637150 -0.490762
O4    O     O_R   0.917040 0.520750 0.603990 -0.514241
O5    O     O_R   0.193470 0.640350 0.508470 -0.509216
O6    O     O_R   0.027480 0.681870 0.475310 -0.503373
O7    O     O_R   0.082960 0.479250 0.396010 -0.495944
O8    O     O_R   0.916970 0.520760 0.362850 -0.507697
O9    O     O_3   0.126626 0.383004 0.949831 -0.564828

loop_
_geom_bond_atom_site_label_1
_geom_bond_atom_site_label_2
_ccdc_geom_bond_type
C8    C13   A    
C27   C29   A    
C39   H22   S    
C19   C20   A    
C18   C26   A    
C7    C8    A    
Cu1   Cu2   S    
C38   O9    S    
C26   C27   A    
C34   C40   S    
Cu1   O7    S    
C15   C44   A    
C37   C40   S    
C5    C6    A    
C1    O1    A    
C40   H16   S    
C35   H13   S    
C37   C42   S    
C24   C29   A    
Cu2   O2    S    
C24   N2    A    
C22   C25   A    
C4    O4    A    
C28   O8    A    
C2    C16   S    
C9    C10   A    
C38   H18   S    
C27   H4    S    
C12   H12   S    
C19   H7    S    
C33   H10   S    
C21   C22   A    
C12   C32   S    
C16   O6    A    
C36   C41   T    
Cu1   O3    S    
C31   H3    S    
C12   H1    S    
C18   H5    S    
C32   H25   S    
Cu2   O8    S    
C21   H26   S    
C10   C44   A    
C3    H24   S    
C20   H8    S    
C6    H31   S    
C29   H9    S    
C1    O2    A    
C33   C37   S    
C40   H15   S    
C35   H14   S    
C14   H30   S    
C44   H29   S    
Cu1   O5    S    
C9    C14   A    
C32   O9    S    
C12   C23   S    
C38   H19   S    
C23   C34   S    
C28   O7    A    
Cu1   N1    S    
C32   C37   S    
C2    C15   A    
C34   H23   S    
Cu2   O4    S    
C30   N1    A    
C15   H27   S    
C23   C35   S    
C16   O5    A    
C39   H20   S    
C22   C24   A    
C42   C43   T    
C25   C30   A    
C7    C9    A    
C30   H6    S    
C33   H11   S    
C39   H21   S    
Cu1   O1    S    
C3    C5    A    
C11   H28   S    
C13   H2    S    
C31   N1    A    
C6    C7    A    
C4    C43   S    
C1    C17   S    
C8    C17   A    
C23   C41   S    
C25   C26   A    
Cu2   N2    S    
C11   C13   A    
C38   C39   S    
C4    O3    A    
C34   H17   S    
C33   C35   S    
C3    C17   A    
C19   N2    A    
C2    C14   A    
C10   C11   A    
C20   C21   A    
C28   C36   S    
C18   C31   A    
C5    H32   S    
Cu2   O6    S    
