data_mof_unit_48372.cif
_audit_creation_date              2012-12-10T20:29:31-0500
_audit_creation_method            fapswitch 2.2
_symmetry_space_group_name_H-M    P1
_symmetry_Int_Tables_number       1
_space_group_crystal_system       triclinic
_cell_length_a                    18.859677
_cell_length_b                    18.644064
_cell_length_c                    19.04258
_cell_angle_alpha                 109.757948
_cell_angle_beta                  110.294081
_cell_angle_gamma                 109.353524
_cell_volume                      5090.07560027

loop_
_atom_site_label
_atom_site_type_symbol
_atom_type_description
_atom_site_fract_x
_atom_site_fract_y
_atom_site_fract_z
_atom_type_partial_charge
C1    C     C_R   0.379443 0.499783 0.380085 0.923338
C2    C     C_R   0.789779 0.202670 0.751933 0.502661
C3    C     C_R   0.024182 0.751740 0.329435 -0.082832
C4    C     C_R   0.999814 0.763184 0.046845 -0.051367
C5    C     C_R   0.880804 0.858758 0.826554 -0.054146
C6    C     C_R   0.959108 0.739364 0.958006 -0.023576
C7    C     C_R   0.868547 0.705553 0.910304 -0.181031
C8    C     C_R   0.817355 0.688311 0.946744 -0.111381
C9    C     C_R   0.853734 0.699061 0.029533 0.445995
C10   C     C_R   0.946080 0.737056 0.081241 -0.110967
C11   C     C_R   0.282688 0.228738 0.856615 -0.304945
C12   C     C_R   0.195792 0.210193 0.824772 -0.034193
C13   C     C_R   0.713526 0.205636 0.741664 -0.178327
C14   C     C_R   0.169003 0.259299 0.790051 -0.109066
C15   C     C_R   0.230741 0.326168 0.787726 0.435492
C16   C     C_R   0.318271 0.346047 0.823200 0.530649
C17   C     C_2   0.841703 0.910412 0.941589 0.558278
C18   C     C_2   0.721578 0.580869 0.293058 0.437975
C19   C     C_2   0.468902 0.672208 0.308229 0.511418
C20   C     C_2   0.218008 0.329496 0.243894 0.439900
C21   C     C_2   0.024350 0.350793 0.213266 0.562041
C22   C     C_2   0.371022 0.482807 0.693850 0.682679
C23   C     C_2   0.397784 0.230378 0.499137 0.425792
C24   C     C_R   0.681265 0.242451 0.694593 -0.015562
C25   C     C_2   0.365688 0.194723 0.666449 0.437108
C26   C     C_2   0.397333 0.054530 0.668205 0.467068
C27   C     C_2   0.310427 0.886336 0.505994 0.408180
C28   C     C_2   0.181160 0.010540 0.335587 0.434353
C29   C     C_2   0.188892 0.839299 0.640997 0.416077
C30   C     C_2   0.887368 0.588124 0.291743 0.480293
C31   C     C_2   0.077458 0.645842 0.291504 0.582526
C32   C     C_2   0.975498 0.901384 0.892570 0.581533
C33   C     C_2   0.097293 0.819568 0.102647 0.407481
C34   C     C_2   0.009098 0.743421 0.912367 0.385493
C35   C     C_R   0.821613 0.827853 0.576857 -0.175815
C36   C     C_2   0.133703 0.138617 0.827521 0.492401
C37   C     C_2   0.604648 0.251090 0.688323 0.471914
C38   C     C_2   0.841864 0.302375 0.618866 0.418232
C39   C     C_2   0.645336 0.813598 0.181882 0.418959
C40   C     C_R   0.722945 0.272446 0.653816 -0.224813
C41   C     C_R   0.799693 0.270797 0.663655 -0.090468
C42   C     C_R   0.835391 0.239206 0.716474 -0.030770
C43   C     C_R   0.810322 0.812927 0.495998 -0.066959
C44   C     C_R   0.732743 0.740457 0.417911 0.186284
C45   C     C_R   0.671626 0.680171 0.423804 -0.129176
C46   C     C_R   0.820265 0.871918 0.849624 -0.234768
C47   C     C_R   0.686187 0.691420 0.504687 -0.098881
C48   C     C_R   0.759409 0.768913 0.582940 0.006064
C49   C     C_R   0.689854 0.775002 0.298685 0.429670
C50   C     C_R   0.667389 0.756220 0.212492 -0.224313
C51   C     C_R   0.665274 0.681593 0.156195 0.529349
C52   C     C_R   0.622460 0.621592 0.503578 0.819594
C53   C     C_R   0.682311 0.626347 0.184884 -0.262979
C54   C     C_R   0.706938 0.645393 0.270124 -0.212255
C55   C     C_R   0.714052 0.722327 0.328947 0.007494
C56   C     C_R   0.448144 0.794350 0.530465 -0.239446
C57   C     C_R   0.344490 0.296677 0.857133 0.293233
C58   C     C_R   0.385780 0.706280 0.466163 0.541256
C59   C     C_R   0.392453 0.665700 0.392629 -0.185696
C60   C     C_R   0.462084 0.715215 0.385295 -0.177068
C61   C     C_R   0.523840 0.805068 0.450505 0.458370
C62   C     C_R   0.515872 0.845064 0.522849 0.312979
C63   C     C_R   0.259271 0.573019 0.248418 -0.121158
C64   C     C_R   0.620876 0.500991 0.619764 0.993444
C65   C     C_R   0.185125 0.492740 0.179982 -0.056421
C66   C     C_R   0.169838 0.412673 0.178699 0.033732
C67   C     C_R   0.233847 0.414179 0.245546 -0.044200
C68   C     C_R   0.079757 0.313290 0.834432 0.400354
C69   C     C_R   0.309718 0.496736 0.314152 -0.121327
C70   C     C_R   0.319873 0.576425 0.317578 -0.048893
C71   C     C_R   0.017477 0.297037 0.130429 -0.043159
C72   C     C_R   0.941959 0.212411 0.068809 0.178721
C73   C     C_R   0.929459 0.163363 0.985621 0.398604
C74   C     C_R   0.994799 0.196413 0.967417 0.557315
C75   C     C_R   0.072499 0.277903 0.031137 -0.472869
C76   C     C_R   0.378944 0.379565 0.499113 1.044282
C77   C     C_R   0.084378 0.328562 0.112022 -0.045104
C78   C     C_R   0.305853 0.567596 0.644825 0.434838
C79   C     C_R   0.999381 0.310600 0.816353 -0.158876
C80   C     C_R   0.308325 0.488518 0.624859 -0.111594
C81   C     C_R   0.251005 0.414282 0.538148 -0.208936
C82   C     C_R   0.187634 0.418478 0.474289 0.387512
C83   C     C_R   0.182758 0.496368 0.497762 0.453410
C84   C     C_R   0.243199 0.570249 0.580804 -0.306089
C85   C     C_R   0.185904 0.262381 0.515389 0.413718
C86   C     C_R   0.188197 0.185004 0.501571 -0.037332
C87   C     C_R   0.258081 0.174976 0.498519 0.012944
C88   C     C_R   0.738873 0.850483 0.783724 0.391636
C89   C     C_R   0.321985 0.239706 0.498501 -0.042091
C90   C     C_R   0.921038 0.244560 0.736276 0.024134
C91   C     C_R   0.315387 0.314342 0.503378 -0.153086
C92   C     C_R   0.250754 0.329058 0.517747 -0.128797
C93   C     C_R   0.322910 0.110570 0.582097 -0.061336
C94   C     C_R   0.340547 0.042496 0.583161 -0.158568
C95   C     C_R   0.303044 0.963324 0.504053 -0.078478
C96   C     C_R   0.253046 0.955696 0.423739 0.371744
C97   C     C_R   0.233331 0.021824 0.422027 -0.126932
C98   C     C_R   0.268103 0.099399 0.501047 -0.018722
C99   C     C_R   0.786246 0.541914 0.629672 -0.139716
C100  C     C_R   0.720389 0.820308 0.697986 0.506565
C101  C     C_R   0.924164 0.184051 0.672842 -0.208103
C102  C     C_R   0.860461 0.548811 0.626000 -0.138368
C103  C     C_R   0.915826 0.529118 0.676972 0.565213
C104  C     C_R   0.898410 0.507677 0.734924 -0.075202
C105  C     C_R   0.826310 0.506094 0.743724 -0.016907
C106  C     C_R   0.766370 0.516634 0.685736 -0.011622
C107  C     C_R   0.687866 0.501548 0.685101 -0.234861
C108  C     C_R   0.669381 0.480748 0.742981 0.396529
C109  C     C_R   0.733363 0.481114 0.807856 0.280043
C110  C     C_R   0.811856 0.493672 0.808159 -0.249849
C111  C     C_R   0.998874 0.877995 0.379800 0.924025
C112  C     C_R   0.003641 0.188036 0.688564 -0.187058
C113  C     C_R   0.774279 0.794176 0.672393 -0.236359
C114  C     C_R   0.878994 0.877038 0.496491 0.854282
C115  C     C_R   0.002147 0.122020 0.620567 0.916947
C116  C     C_R   0.120423 0.117981 0.498725 0.990066
C117  C     C_R   0.998404 0.378944 0.879319 0.822291
C118  C     C_R   0.119842 0.496027 0.116120 0.943006
C119  C     C_R   0.999989 0.620994 0.118577 0.949855
C120  C     C_R   0.879322 0.497386 0.877633 0.860928
C121  C     C_R   0.107440 0.777162 0.553986 -0.122088
C122  C     C_R   0.099848 0.793064 0.485640 -0.056274
C123  C     C_R   0.082001 0.251771 0.770068 -0.055717
C124  C     C_R   0.025517 0.735730 0.401746 -0.143963
C125  C     C_R   0.853602 0.810944 0.737742 0.306027
C126  C     C_R   0.960509 0.655140 0.383269 -0.142591
C127  C     C_R   0.968101 0.636873 0.450971 0.562074
C128  C     C_R   0.039382 0.699909 0.537330 0.259476
C129  C     C_R   0.035875 0.696864 0.268966 -0.073744
C130  C     C_R   0.007434 0.690990 0.187575 -0.097107
C131  C     C_R   0.984562 0.750683 0.171180 -0.070247
C132  C     C_R   0.986687 0.815618 0.237364 0.413235
C133  C     C_R   0.002257 0.813252 0.314381 -0.144541
H1    H     H_    0.678131 0.568386 0.140049 0.193306
H2    H     H_    0.836512 0.690390 0.843530 0.184949
H3    H     H_    0.747341 0.661215 0.908043 0.198852
H4    H     H_    0.302983 0.190605 0.882164 0.209032
H5    H     H_    0.878915 0.887107 0.635950 0.186964
H6    H     H_    0.864047 0.133316 0.610961 0.182108
H7    H     H_    0.680033 0.180114 0.771303 0.188260
H8    H     H_    0.696504 0.299154 0.615915 0.193089
H9    H     H_    0.612665 0.622948 0.364456 0.135635
H10   H     H_    0.820891 0.955915 0.966449 0.069093
H11   H     H_    0.664847 0.714123 0.069358 0.381755
H12   H     H_    0.442712 0.824042 0.586588 0.181728
H13   H     H_    0.696190 0.514720 0.241472 0.117944
H14   H     H_    0.560719 0.950576 0.631626 0.375770
H15   H     H_    0.277841 0.602199 0.428344 0.379497
H16   H     H_    0.440296 0.600960 0.272810 0.032808
H17   H     H_    0.631690 0.912226 0.493657 0.384055
H18   H     H_    0.179819 0.267609 0.182144 0.092739
H19   H     H_    0.683048 0.858891 0.852962 0.320894
H20   H     H_    0.983805 0.319385 0.234733 0.137094
H21   H     H_    0.852753 0.114472 0.060367 0.351636
H22   H     H_    0.804217 0.082727 0.928253 0.340371
H23   H     H_    0.267822 0.634329 0.250366 0.199643
H24   H     H_    0.027574 0.184386 0.880501 0.311431
H25   H     H_    0.353176 0.690381 0.730450 0.342458
H26   H     H_    0.368835 0.420582 0.680570 0.091173
H27   H     H_    0.141818 0.299826 0.379339 0.384016
H28   H     H_    0.069811 0.442636 0.394202 0.387263
H29   H     H_    0.651745 0.813144 0.589559 0.339504
H30   H     H_    0.134387 0.332695 0.554496 0.354357
H31   H     H_    0.388107 0.165743 0.461728 0.057855
H32   H     H_    0.422228 0.211856 0.724232 0.132348
H33   H     H_    0.385463 0.076753 0.721256 0.096456
H34   H     H_    0.124189 0.301921 0.017884 0.181649
H35   H     H_    0.355417 0.893830 0.565318 0.131032
H36   H     H_    0.270499 0.871039 0.350694 0.381180
H37   H     H_    0.177409 0.966224 0.278639 0.157764
H38   H     H_    0.581816 0.442681 0.775758 0.400922
H39   H     H_    0.875755 0.739144 0.655921 0.360389
H40   H     H_    0.989068 0.543845 0.626319 0.364764
H41   H     H_    0.772756 0.514192 0.928298 0.355544
H42   H     H_    0.071890 0.740908 0.658254 0.351878
H43   H     H_    0.206100 0.819716 0.689082 0.098344
H44   H     H_    0.866892 0.608467 0.244835 0.017982
H45   H     H_    0.239332 0.629861 0.596329 0.198036
H46   H     H_    0.922906 0.547999 0.480693 0.360857
H47   H     H_    0.074706 0.627692 0.339258 0.102421
H48   H     H_    0.976731 0.884032 0.179351 0.370720
H49   H     H_    0.017087 0.880525 0.875060 0.134640
H50   H     H_    0.133278 0.862927 0.085929 0.048481
H51   H     H_    0.078362 0.765298 0.945983 0.060174
H52   H     H_    0.825409 0.667992 0.108706 0.326494
H53   H     H_    0.437545 0.274662 0.910331 0.349747
H54   H     H_    0.063699 0.112221 0.790382 0.087311
H55   H     H_    0.144649 0.348063 0.719419 0.341065
H56   H     H_    0.744983 0.556896 0.588380 0.142145
H57   H     H_    0.435675 0.422143 0.849747 0.399451
H58   H     H_    0.144611 0.399262 0.959681 0.323809
H59   H     H_    0.782475 0.143336 0.817885 0.347913
H60   H     H_    0.579003 0.277123 0.649425 0.108086
H61   H     H_    0.906703 0.312697 0.634271 0.093470
H62   H     H_    0.650620 0.861119 0.321926 0.359603
H63   H     H_    0.682000 0.884805 0.225424 0.062659
H64   H     H_    0.873631 0.567945 0.582242 0.163463
H65   H     H_    0.940782 0.489634 0.770430 0.152989
H66   H     H_    0.152689 0.850578 0.497398 0.211852
O1    O     O_R   0.408360 0.551710 0.460090 -0.612935
O2    O     O_R   0.948270 0.356620 0.908410 -0.607054
O3    O     O_R   0.143330 0.551680 0.091590 -0.618884
O4    O     O_R   0.408390 0.448280 0.356670 -0.614529
O5    O     O_R   0.039890 0.448260 0.091620 -0.584572
O6    O     O_R   0.051700 0.643310 0.091570 -0.558167
O7    O     O_R   0.948260 0.539890 0.091600 -0.631572
O8    O     O_R   0.960080 0.551670 0.908360 -0.644058
O9    O     O_R   0.856640 0.448250 0.908390 -0.597457
O10   O     O_R   0.591600 0.643340 0.551710 -0.610867
O11   O     O_R   0.591630 0.539900 0.448290 -0.620756
O12   O     O_R   0.948280 0.908380 0.356650 -0.572761
O13   O     O_R   0.591610 0.551720 0.643330 -0.597196
O14   O     O_R   0.591640 0.448290 0.539910 -0.605853
O15   O     O_R   0.408370 0.460100 0.551710 -0.644794
O16   O     O_R   0.408400 0.356660 0.448290 -0.570164
O17   O     O_R   0.051730 0.908360 0.460070 -0.639901
O18   O     O_2   0.880213 0.889414 0.989712 -0.543116
O19   O     O_3   0.646540 0.659616 0.072504 -0.648088
O20   O     O_2   0.763880 0.600622 0.368516 -0.537922
O21   O     O_3   0.575644 0.933190 0.585852 -0.736952
O22   O     O_3   0.318670 0.663856 0.477435 -0.720534
O23   O     O_R   0.960110 0.908350 0.551690 -0.618362
O24   O     O_2   0.504061 0.715110 0.281739 -0.496352
O25   O     O_3   0.592010 0.851432 0.442507 -0.679349
O26   O     O_2   0.244105 0.327247 0.310927 -0.579008
O27   O     O_3   0.676990 0.862767 0.800866 -0.692619
O28   O     O_2   0.072738 0.431007 0.257021 -0.548060
O29   O     O_3   0.881679 0.179820 0.091496 -0.764684
O30   O     O_3   0.853380 0.084318 0.919560 -0.723896
O31   O     O_3   0.980171 0.147926 0.885769 -0.671595
O32   O     O_3   0.363631 0.641018 0.727742 -0.661524
O33   O     O_2   0.426752 0.547404 0.766295 -0.437277
O34   O     O_R   0.856660 0.908370 0.448270 -0.596097
O35   O     O_3   0.128723 0.348228 0.389582 -0.758815
O36   O     O_3   0.118940 0.502870 0.441458 -0.702619
O37   O     O_3   0.648916 0.818415 0.641742 -0.683009
O38   O     O_3   0.120579 0.270656 0.529027 -0.751603
O39   O     O_2   0.472233 0.294077 0.544672 -0.577528
O40   O     O_2   0.338226 0.245907 0.673499 -0.586241
O41   O     O_2   0.460266 0.044084 0.680961 -0.563257
O42   O     O_2   0.262921 0.811709 0.442276 -0.548910
O43   O     O_3   0.222426 0.883719 0.345266 -0.701905
O44   O     O_2   0.140652 0.049096 0.326115 -0.558502
O45   O     O_R   0.051720 0.091580 0.643310 -0.647881
O46   O     O_3   0.588888 0.463093 0.735652 -0.715370
O47   O     O_3   0.909448 0.787926 0.717320 -0.735568
O48   O     O_3   0.987278 0.530111 0.671832 -0.743502
O49   O     O_3   0.718139 0.471185 0.870837 -0.713874
O50   O     O_3   0.040138 0.683799 0.603187 -0.799882
O51   O     O_2   0.238669 0.913456 0.659966 -0.615579
O52   O     O_2   0.850386 0.509333 0.266943 -0.494823
O53   O     O_3   0.903619 0.557721 0.431105 -0.661209
O54   O     O_2   0.119945 0.627651 0.260277 -0.549012
O55   O     O_3   0.970300 0.879804 0.227447 -0.699806
O56   O     O_R   0.948270 0.091600 0.539890 -0.602643
O57   O     O_2   0.010195 0.964448 0.965317 -0.543129
O58   O     O_2   0.138952 0.819066 0.167525 -0.516234
O59   O     O_2   0.972547 0.718991 0.834920 -0.559623
O60   O     O_3   0.796183 0.671345 0.056647 -0.719271
O61   O     O_3   0.430446 0.315720 0.890119 -0.747335
O62   O     O_2   0.159904 0.107166 0.870435 -0.555052
O63   O     O_3   0.209180 0.375877 0.753793 -0.690045
O64   O     O_3   0.376535 0.414893 0.823576 -0.671051
O65   O     O_3   0.157302 0.374508 0.913881 -0.742748
O66   O     O_3   0.822030 0.166033 0.797711 -0.691881
O67   O     O_R   0.143340 0.091590 0.551680 -0.631696
O68   O     O_2   0.570587 0.231194 0.727981 -0.549841
O69   O     O_2   0.804181 0.316727 0.563314 -0.542705
O70   O     O_3   0.685757 0.841912 0.354552 -0.685701
O71   O     O_2   0.584435 0.781787 0.108741 -0.481476
O72   O     O_R   0.039890 0.091610 0.448270 -0.553639
O73   O     O_R   0.051710 0.460040 0.908380 -0.606758
Zn1   Zn    Zn3+2 0.499980 0.569070 0.569050 1.073116
Zn2   Zn    Zn3+2 0.500020 0.430930 0.430950 1.048828
Zn3   Zn    Zn3+2 0.069080 0.999960 0.569030 1.011731
Zn4   Zn    Zn3+2 0.930920 0.999990 0.430930 1.063384
Zn5   Zn    Zn3+2 0.069060 0.569020 0.999970 1.042245
Zn6   Zn    Zn3+2 0.930920 0.430910 0.000010 1.036471

loop_
_geom_bond_atom_site_label_1
_geom_bond_atom_site_label_2
_ccdc_geom_bond_type
C28   C97   S    
C26   C94   S    
C105  C110  A    
C30   C126  S    
C25   C93   S    
O73   Zn5   S    
O16   Zn2   S    
C33   O58   D    
C8    H3    S    
C102  C103  A    
C41   C42   A    
C6    C7    A    
C20   C67   S    
C27   C95   S    
C95   C96   A    
C44   C55   S    
C71   C77   A    
H36   O43   S    
C74   O31   S    
C53   H1    S    
C63   C65   A    
C97   C98   A    
C101  H6    S    
H41   O49   S    
C7    C8    A    
C85   C86   A    
C30   O52   D    
C101  C112  A    
O9    Zn6   S    
O7    Zn6   S    
C93   C94   A    
C105  C106  A    
H38   O46   S    
C24   C40   A    
C32   H49   S    
C63   H23   S    
C129  C130  A    
C116  O67   A    
C43   C114  S    
C80   C81   A    
C78   C80   A    
H42   O50   S    
C113  C125  A    
C22   H26   S    
C25   O40   D    
C15   C16   A    
O15   Zn1   S    
H55   O63   S    
O23   Zn3   S    
C119  C130  S    
C108  C109  A    
C34   O59   D    
C86   C116  S    
C127  O53   S    
C37   O68   D    
C56   H12   S    
C99   C106  A    
C2    C13   A    
C38   O69   D    
C10   C131  S    
C79   C90   A    
H14   O21   S    
C103  C104  A    
O11   Zn2   S    
C4    C33   S    
C81   C92   S    
H52   O60   S    
C88   O27   S    
C47   C48   A    
C109  O49   S    
H53   O61   S    
C132  C133  A    
C29   C121  S    
C33   H50   S    
O45   Zn3   S    
C42   C90   S    
C65   C118  S    
C23   C89   S    
C34   H51   S    
C119  O6    A    
C28   O44   D    
H39   O47   S    
C122  H66   S    
C12   C36   S    
C116  O72   A    
C35   C43   A    
C9    C10   A    
C61   C62   A    
H30   O38   S    
C39   O71   D    
C132  O55   S    
C27   H35   S    
O8    Zn5   S    
C87   C98   S    
H29   O37   S    
H40   O48   S    
C68   C79   A    
C1    C69   S    
C66   C67   A    
C38   C41   S    
C59   C60   A    
C51   O19   S    
H27   O35   S    
C40   H8    S    
C52   O11   A    
C16   C57   A    
C16   O64   S    
C125  O47   S    
C118  O3    A    
H17   O25   S    
C117  O2    A    
C18   O20   D    
C27   O42   D    
C68   C123  A    
C73   O30   S    
C104  C105  A    
C58   O22   S    
H24   O31   S    
C81   C82   A    
C114  O34   A    
C46   C88   A    
C45   C47   A    
O4    Zn2   S    
C30   H44   S    
O72   Zn4   S    
C21   O28   D    
C74   C75   A    
C31   O54   D    
O12   Zn4   S    
C120  O9    A    
C13   H7    S    
C64   O14   A    
C19   O24   D    
C111  O17   A    
C121  C128  A    
C4    C6    A    
H48   O55   S    
C102  H64   S    
C110  C120  S    
C91   C92   A    
C99   H56   S    
C23   O39   D    
C86   C87   A    
C8    C9    A    
C59   C70   S    
C25   H32   S    
C78   O32   S    
O13   Zn1   S    
C2    O66   S    
C108  O46   S    
H22   O30   S    
C78   C84   A    
C103  O48   S    
C20   O26   D    
C38   H61   S    
C13   C24   A    
H21   O29   S    
C60   C61   A    
C51   C53   A    
C62   O21   S    
H57   O64   S    
H15   O22   S    
C90   C101  A    
H11   O19   S    
C26   O41   D    
O2    Zn6   S    
C39   C50   S    
C83   C84   A    
H28   O36   S    
C63   C70   A    
O5    Zn6   S    
O67   Zn3   S    
C107  C108  A    
C96   C97   A    
C32   O57   D    
C50   C51   A    
C22   O33   D    
C94   C95   A    
C119  O7    A    
C106  C107  A    
C17   C46   S    
C84   H45   S    
C75   C77   A    
C96   O43   S    
C121  C122  A    
C88   C100  A    
C112  C123  A    
H19   O27   S    
C3    C124  S    
C28   H37   S    
C40   C41   A    
C12   C14   A    
C65   C66   A    
O10   Zn1   S    
C9    O60   S    
C43   C44   A    
C45   H9    S    
C49   C50   A    
C56   C62   A    
C100  O37   S    
C1    O1    A    
C89   C91   A    
C29   H43   S    
C4    C10   A    
C127  C128  A    
H62   O70   S    
C73   C74   A    
C68   O65   S    
C117  O73   A    
C17   O18   D    
C44   C45   A    
C21   C71   S    
C64   C107  S    
C124  C126  A    
C23   H31   S    
C5    C46   A    
C24   C37   S    
C66   C77   S    
C54   C55   A    
C26   H33   S    
C14   C123  S    
O1    Zn1   S    
C3    C129  A    
C120  O8    A    
C104  H65   S    
C118  O5    A    
C100  C113  A    
C83   O36   S    
C72   C73   A    
C18   H13   S    
H25   O32   S    
C49   O70   S    
C11   C12   A    
O3    Zn5   S    
C53   C54   A    
C47   C52   S    
C111  C133  S    
C19   C60   S    
C39   H63   S    
O56   Zn4   S    
C57   O61   S    
C128  O50   S    
C20   H18   S    
C31   H47   S    
C17   H10   S    
C36   H54   S    
C29   O51   D    
C5    C32   S    
C82   O35   S    
C130  C131  A    
C58   C59   A    
C61   O25   S    
C22   C80   S    
C71   C72   A    
C35   H5    S    
C15   O63   S    
C49   C55   A    
C109  C110  A    
H58   O65   S    
H46   O53   S    
O34   Zn4   S    
C76   O16   A    
C52   O10   A    
C2    C42   A    
C126  C127  A    
C79   C117  S    
C19   H16   S    
O17   Zn3   S    
C56   C58   A    
C5    C125  A    
C85   O38   S    
H59   O66   S    
C11   H4    S    
C69   C70   A    
C111  O12   A    
C35   C48   A    
C7    H2    S    
C18   C54   S    
C76   C91   S    
C115  O45   A    
C76   O15   A    
C6    C34   S    
C99   C102  A    
C115  O56   A    
O14   Zn2   S    
C36   O62   D    
C31   C129  S    
C82   C83   A    
C72   O29   S    
O6    Zn5   S    
C85   C92   A    
C87   C89   A    
C21   H20   S    
C14   C15   A    
C64   O13   A    
C75   H34   S    
C3    C133  A    
C67   C69   A    
C11   C57   A    
C122  C124  A    
C93   C98   A    
C112  C115  S    
C131  C132  A    
C37   H60   S    
C48   C113  S    
C114  O23   A    
C1    O4    A    
