data_mof_unit_60516.cif
_audit_creation_date              2012-12-10T20:19:11-0500
_audit_creation_method            fapswitch 2.2
_symmetry_space_group_name_H-M    P1
_symmetry_Int_Tables_number       1
_space_group_crystal_system       triclinic
_cell_length_a                    41.254245
_cell_length_b                    35.491546
_cell_length_c                    21.556764
_cell_angle_alpha                 89.884523
_cell_angle_beta                  59.300039
_cell_angle_gamma                 89.878757
_cell_volume                      27139.3797133

loop_
_atom_site_label
_atom_site_type_symbol
_atom_type_description
_atom_site_fract_x
_atom_site_fract_y
_atom_site_fract_z
_atom_type_partial_charge
C1    C     C_R   0.926489 0.500049 0.573057 0.906915
C2    C     C_R   0.073528 0.500006 0.426862 0.902178
C3    C     C_R   0.426489 0.000049 0.573057 0.906915
C4    C     C_R   0.573528 0.000006 0.426862 0.902178
C5    C     C_3   0.001101 0.463423 0.208700 -0.609021
C6    C     C_3   0.000596 0.463473 0.790276 -0.494574
C7    C     C_3   0.501101 0.963424 0.208700 -0.609021
C8    C     C_3   0.500596 0.963474 0.790276 -0.494575
C9    C     C_R   0.671488 0.471995 0.869730 0.149896
C10   C     C_R   0.328677 0.471940 0.129611 0.149591
C11   C     C_R   0.171488 0.971995 0.869730 0.149895
C12   C     C_R   0.828677 0.971940 0.129611 0.149591
C13   C     C_R   0.632374 0.474484 0.906868 -0.258000
C14   C     C_R   0.367772 0.474620 0.092453 -0.257377
C15   C     C_R   0.132374 0.974484 0.906868 -0.258000
C16   C     C_R   0.867772 0.974620 0.092453 -0.257377
C17   C     C_R   0.614117 0.501128 0.887482 -0.105865
C18   C     C_R   0.385865 0.500959 0.112556 -0.105694
C19   C     C_R   0.114117 0.001128 0.887482 -0.105865
C20   C     C_R   0.885865 0.000959 0.112556 -0.105694
C21   C     C_R   0.635044 0.526852 0.830554 0.065500
C22   C     C_R   0.364768 0.526151 0.170316 0.065387
C23   C     C_R   0.135044 0.026852 0.830554 0.065500
C24   C     C_R   0.864768 0.026152 0.170316 0.065386
C25   C     C_R   0.674835 0.523453 0.790518 0.424674
C26   C     C_R   0.325015 0.522499 0.210386 0.424654
C27   C     C_R   0.174835 0.023453 0.790518 0.424674
C28   C     C_R   0.825015 0.022499 0.210386 0.424654
C29   C     C_R   0.692564 0.496563 0.811356 0.034827
C30   C     C_R   0.307457 0.495968 0.188765 0.035236
C31   C     C_R   0.192564 0.996563 0.811356 0.034827
C32   C     C_R   0.807457 0.995968 0.188765 0.035236
C33   C     C_1   0.732766 0.495123 0.772062 0.070940
C34   C     C_1   0.267272 0.494425 0.227965 0.070941
C35   C     C_1   0.232766 0.995123 0.772062 0.070940
C36   C     C_1   0.767272 0.994425 0.227965 0.070941
C37   C     C_1   0.766422 0.494915 0.738511 -0.022182
C38   C     C_1   0.233620 0.494237 0.261456 -0.021962
C39   C     C_1   0.266422 0.994915 0.738511 -0.022182
C40   C     C_1   0.733620 0.994237 0.261456 -0.021962
C41   C     C_R   0.828101 0.465976 0.700629 0.217449
C42   C     C_R   0.171924 0.465081 0.301098 0.218581
C43   C     C_R   0.328101 0.965976 0.700629 0.217449
C44   C     C_R   0.671924 0.965081 0.301098 0.218581
C45   C     C_R   0.002422 0.500113 0.376197 0.960340
C46   C     C_R   0.997955 0.499976 0.623502 0.950119
C47   C     C_R   0.502422 0.000113 0.376197 0.960340
C48   C     C_R   0.497955 0.999976 0.623502 0.950119
C49   C     C_R   0.867327 0.468254 0.659152 -0.208179
C50   C     C_R   0.132704 0.467550 0.342483 -0.212655
C51   C     C_R   0.367327 0.968254 0.659152 -0.208179
C52   C     C_R   0.632704 0.967550 0.342483 -0.212656
C53   C     C_R   0.885126 0.499835 0.615442 -0.095182
C54   C     C_R   0.114918 0.499669 0.384378 -0.092276
C55   C     C_R   0.385126 0.999835 0.615442 -0.095182
C56   C     C_R   0.614918 0.999669 0.384378 -0.092276
C57   C     C_R   0.863060 0.529857 0.613013 0.167373
C58   C     C_R   0.137041 0.530080 0.384891 0.169036
C59   C     C_R   0.363060 0.029857 0.613013 0.167373
C60   C     C_R   0.637041 0.030080 0.384891 0.169036
C61   C     C_R   0.823815 0.527260 0.654404 -0.184157
C62   C     C_R   0.176279 0.527282 0.343593 -0.184159
C63   C     C_R   0.323815 0.027260 0.654404 -0.184157
C64   C     C_R   0.676279 0.027282 0.343593 -0.184158
C65   C     C_R   0.806538 0.495795 0.697663 0.073663
C66   C     C_R   0.193512 0.495267 0.302249 0.074334
C67   C     C_R   0.306538 0.995795 0.697663 0.073664
C68   C     C_R   0.693512 0.995267 0.302249 0.074334
C69   C     C_R   0.999979 0.573443 0.000014 0.980616
C70   C     C_R   0.499979 0.073443 0.000014 0.980616
C71   C     C_R   0.000277 0.503884 0.120590 0.905874
C72   C     C_R   0.999690 0.504064 0.879467 0.899582
C73   C     C_R   0.500277 0.003884 0.120590 0.905874
C74   C     C_R   0.499690 0.004064 0.879467 0.899583
C75   C     C_R   0.000032 0.426504 0.999989 0.900622
C76   C     C_R   0.500032 0.926504 0.999989 0.900622
C77   C     C_R   0.500000 0.426784 0.000057 0.852009
C78   C     C_R   1.000000 0.926784 0.000057 0.852009
C79   C     C_R   0.573065 0.500773 0.927344 0.906368
C80   C     C_R   0.426927 0.500768 0.072663 0.905757
C81   C     C_R   0.073065 0.000773 0.927344 0.906368
C82   C     C_R   0.926927 0.000768 0.072663 0.905757
C83   C     C_3   0.965537 0.521382 0.321374 -0.108766
C84   C     C_3   0.033654 0.522968 0.679429 -0.097948
C85   C     C_3   0.465537 0.021382 0.321374 -0.108766
C86   C     C_3   0.533654 0.022968 0.679429 -0.097947
C87   C     C_R   0.499900 0.573201 0.000031 1.027816
C88   C     C_R   0.999900 0.073201 0.000031 1.027816
C89   C     C_R   0.499843 0.326584 0.944196 -0.148961
C90   C     C_R   0.500074 0.326552 0.056560 -0.148975
C91   C     C_R   0.999843 0.826584 0.944196 -0.148961
C92   C     C_R   0.000073 0.826552 0.056560 -0.148975
C93   C     C_R   0.499858 0.365744 0.943993 -0.194992
C94   C     C_R   0.500096 0.365716 0.056520 -0.194975
C95   C     C_R   0.999858 0.865744 0.943993 -0.194992
C96   C     C_R   0.000096 0.865716 0.056520 -0.194975
C97   C     C_R   0.499987 0.385588 0.000194 -0.035552
C98   C     C_R   0.999987 0.885588 0.000194 -0.035552
C99   C     C_R   0.499949 0.307171 0.000436 0.139281
C100  C     C_R   0.999949 0.807171 0.000436 0.139281
C101  C     C_1   0.499939 0.267231 0.000521 -0.054261
C102  C     C_1   0.999939 0.767231 0.000521 -0.054261
C103  C     C_1   0.999937 0.733625 0.000501 0.207883
C104  C     C_1   0.499937 0.233625 0.000501 0.207883
C105  C     C_R   0.028771 0.674388 0.941168 0.284346
C106  C     C_R   0.971104 0.674306 0.059443 0.284205
C107  C     C_R   0.528771 0.174388 0.941168 0.284346
C108  C     C_R   0.471104 0.174306 0.059443 0.284205
C109  C     C_R   0.030082 0.634662 0.942813 0.247801
C110  C     C_R   0.969786 0.634599 0.057504 0.248178
C111  C     C_R   0.530082 0.134662 0.942813 0.247801
C112  C     C_R   0.469786 0.134599 0.057504 0.248178
C113  C     C_R   0.999941 0.614882 0.000104 -0.227750
C114  C     C_R   0.499941 0.114882 0.000104 -0.227750
C115  C     C_3   0.965009 0.524209 0.250085 -0.013984
C116  C     C_3   0.034075 0.525702 0.750794 -0.012455
C117  C     C_3   0.465009 0.024209 0.250085 -0.013984
C118  C     C_3   0.534075 0.025702 0.750794 -0.012454
C119  C     C_R   0.999944 0.693508 0.000385 -0.067631
C120  C     C_R   0.499944 0.193508 0.000385 -0.067631
C121  C     C_R   0.525305 0.673348 0.014011 0.286624
C122  C     C_R   0.475629 0.673697 0.983735 0.288744
C123  C     C_R   0.025305 0.173348 0.014011 0.286624
C124  C     C_R   0.975629 0.173698 0.983735 0.288744
C125  C     C_R   0.525469 0.633554 0.013449 0.251159
C126  C     C_R   0.475738 0.633904 0.983028 0.247960
C127  C     C_R   0.025469 0.133554 0.013449 0.251159
C128  C     C_R   0.975739 0.133904 0.983028 0.247960
C129  C     C_R   0.499947 0.614302 0.999895 -0.226142
C130  C     C_R   0.999947 0.114302 0.999895 -0.226142
C131  C     C_R   0.501112 0.692681 0.997266 -0.067953
C132  C     C_R   0.001112 0.192681 0.997266 -0.067953
C133  C     C_1   0.500987 0.732802 0.997804 0.204674
C134  C     C_1   0.000987 0.232802 0.997804 0.204674
C135  C     C_1   0.000797 0.266415 0.998341 -0.028602
C136  C     C_1   0.500797 0.766415 0.998341 -0.028601
C137  C     C_R   0.034942 0.326319 0.969093 0.174691
C138  C     C_R   0.965985 0.326094 0.029330 0.177274
C139  C     C_R   0.534942 0.826319 0.969093 0.174691
C140  C     C_R   0.465985 0.826094 0.029330 0.177275
C141  C     C_R   0.034401 0.365632 0.969741 -0.197020
C142  C     C_R   0.966126 0.365423 0.029537 -0.199793
C143  C     C_R   0.534401 0.865632 0.969741 -0.197019
C144  C     C_R   0.466126 0.865423 0.029537 -0.199792
C145  C     C_R   0.000169 0.385275 0.999804 -0.136634
C146  C     C_R   0.500169 0.885275 0.999804 -0.136634
C147  C     C_3   0.038617 0.525976 0.249021 0.462793
C148  C     C_3   0.960421 0.523718 0.751513 0.471951
C149  C     C_3   0.538617 0.025976 0.249021 0.462792
C150  C     C_3   0.460421 0.023718 0.751513 0.471951
C151  C     C_R   0.000567 0.306618 0.998958 0.097579
C152  C     C_R   0.500567 0.806618 0.998958 0.097579
C153  C     C_3   0.005242 0.459877 0.276018 0.586116
C154  C     C_3   0.997383 0.459433 0.722179 0.588785
C155  C     C_3   0.505242 0.959877 0.276018 0.586116
C156  C     C_3   0.497383 0.959433 0.722179 0.588785
C157  C     C_3   0.003239 0.501401 0.306842 0.028643
C158  C     C_3   0.997139 0.500998 0.692851 0.003483
C159  C     C_3   0.503239 0.001401 0.306842 0.028643
C160  C     C_3   0.497139 0.000998 0.692851 0.003482
C161  C     C_3   0.001391 0.505314 0.187505 -0.011957
C162  C     C_3   0.998540 0.505353 0.812580 -0.051697
C163  C     C_3   0.501391 0.005314 0.187505 -0.011957
C164  C     C_3   0.498540 0.005353 0.812580 -0.051698
C165  C     C_3   0.038831 0.524155 0.175583 -0.026101
C166  C     C_3   0.960340 0.522537 0.824859 -0.024951
C167  C     C_3   0.538831 0.024155 0.175583 -0.026101
C168  C     C_3   0.460340 0.022537 0.824859 -0.024950
H1    H     H_    0.964731 0.550076 0.342274 0.191884
H2    H     H_    0.032723 0.551712 0.660277 0.193377
H3    H     H_    0.464731 0.050076 0.342274 0.191884
H4    H     H_    0.532723 0.051712 0.660277 0.193377
H5    H     H_    0.023715 0.447430 0.162150 0.177484
H6    H     H_    0.978446 0.446849 0.836420 0.162684
H7    H     H_    0.523715 0.947430 0.162150 0.177484
H8    H     H_    0.478446 0.946849 0.836420 0.162684
H9    H     H_    0.061862 0.504322 0.139916 0.182232
H10   H     H_    0.938148 0.501951 0.860381 0.180903
H11   H     H_    0.561862 0.004322 0.139916 0.182232
H12   H     H_    0.438148 0.001951 0.860381 0.180903
H13   H     H_    0.615911 0.455117 0.950972 0.173169
H14   H     H_    0.384347 0.455639 0.047761 0.173738
H15   H     H_    0.115911 0.955117 0.950972 0.173169
H16   H     H_    0.884347 0.955639 0.047761 0.173738
H17   H     H_    0.884133 0.445407 0.661566 0.169800
H18   H     H_    0.115902 0.444392 0.341429 0.168495
H19   H     H_    0.384133 0.945407 0.661566 0.169800
H20   H     H_    0.615902 0.944392 0.341429 0.168495
H21   H     H_    0.806458 0.549897 0.653092 0.167827
H22   H     H_    0.193674 0.550202 0.343470 0.167533
H23   H     H_    0.306458 0.049897 0.653092 0.167827
H24   H     H_    0.693674 0.050203 0.343470 0.167532
H25   H     H_    0.499749 0.311471 0.900650 0.142765
H26   H     H_    0.500155 0.311414 0.100194 0.142734
H27   H     H_    0.999749 0.811471 0.900650 0.142765
H28   H     H_    0.000155 0.811414 0.100194 0.142734
H29   H     H_    0.499769 0.380400 0.899970 0.161548
H30   H     H_    0.500198 0.380354 0.100450 0.161511
H31   H     H_    0.999769 0.880400 0.899970 0.161548
H32   H     H_    0.000198 0.880354 0.100450 0.161511
H33   H     H_    0.060762 0.380921 0.946850 0.168354
H34   H     H_    0.939629 0.380560 0.052717 0.167781
H35   H     H_    0.560762 0.880921 0.946850 0.168353
H36   H     H_    0.439629 0.880560 0.052717 0.167780
H37   H     H_    0.940685 0.507521 0.256148 0.204125
H38   H     H_    0.059082 0.509981 0.744134 0.205258
H39   H     H_    0.440684 0.007521 0.256148 0.204125
H40   H     H_    0.559082 0.009981 0.744134 0.205258
H41   H     H_    0.974290 0.450020 0.219477 0.195180
H42   H     H_    0.027682 0.450926 0.780192 0.214971
H43   H     H_    0.474290 0.950020 0.219477 0.195180
H44   H     H_    0.527683 0.950926 0.780192 0.214971
O1    O     O_R   0.944550 0.531270 0.555450 -0.620274
O2    O     O_R   0.055450 0.531270 0.444550 -0.618365
O3    O     O_R   0.444550 0.031270 0.555450 -0.620274
O4    O     O_R   0.555450 0.031270 0.444550 -0.618365
O5    O     O_R   0.555400 0.500060 0.892310 -0.619465
O6    O     O_R   0.444600 0.500060 0.107690 -0.619952
O7    O     O_R   0.055400 0.000060 0.892310 -0.619465
O8    O     O_R   0.944600 0.000060 0.107690 -0.619952
O9    O     O_R   0.555410 0.500090 0.996860 -0.608386
O10   O     O_R   0.444590 0.500090 0.003140 -0.609273
O11   O     O_R   0.055410 0.000090 0.996860 -0.608386
O12   O     O_R   0.944590 0.000090 0.003140 -0.609273
O13   O     O_R   0.500010 0.555520 0.947680 -0.591150
O14   O     O_R   0.499990 0.555520 0.052320 -0.588380
O15   O     O_R   0.000010 0.055520 0.947680 -0.591150
O16   O     O_R   0.999990 0.055520 0.052320 -0.588380
O17   O     O_R   0.944500 0.468660 0.555500 -0.622306
O18   O     O_R   0.055500 0.468660 0.444500 -0.631538
O19   O     O_R   0.444500 0.968660 0.555500 -0.622306
O20   O     O_R   0.555500 0.968660 0.444500 -0.631538
O21   O     O_R   0.999990 0.531270 0.407410 -0.657432
O22   O     O_R   0.000010 0.531270 0.592590 -0.647575
O23   O     O_R   0.499990 0.031270 0.407410 -0.657432
O24   O     O_R   0.500010 0.031270 0.592590 -0.647575
O25   O     O_R   0.999940 0.468660 0.407460 -0.575959
O26   O     O_R   0.000060 0.468660 0.592540 -0.634318
O27   O     O_R   0.499940 0.968660 0.407460 -0.575959
O28   O     O_R   0.500060 0.968660 0.592540 -0.634318
O29   O     O_R   0.968670 0.555400 0.031330 -0.586355
O30   O     O_R   0.031330 0.555400 0.968670 -0.586001
O31   O     O_R   0.468670 0.055400 0.031330 -0.586355
O32   O     O_R   0.531330 0.055400 0.968670 -0.586001
O33   O     O_R   0.968670 0.499940 0.123930 -0.627667
O34   O     O_R   0.031330 0.499940 0.876070 -0.626204
O35   O     O_R   0.468670 0.999940 0.123930 -0.627667
O36   O     O_R   0.531330 0.999940 0.876070 -0.626204
O37   O     O_R   0.031270 0.499990 0.061330 -0.639584
O38   O     O_R   0.968730 0.499990 0.938670 -0.638353
O39   O     O_R   0.531270 0.999990 0.061330 -0.639584
O40   O     O_R   0.468730 0.999990 0.938670 -0.638353
O41   O     O_R   0.968660 0.444490 0.031330 -0.624055
O42   O     O_R   0.031340 0.444490 0.968670 -0.623468
O43   O     O_R   0.468660 0.944490 0.031330 -0.624055
O44   O     O_R   0.531340 0.944490 0.968670 -0.623468
O45   O     O_R   0.499920 0.444610 0.947830 -0.628159
O46   O     O_R   0.500080 0.444610 0.052170 -0.628222
O47   O     O_R   0.999920 0.944610 0.947830 -0.628159
O48   O     O_R   0.000080 0.944610 0.052170 -0.628222
Zn1   Zn    Zn3+2 0.000000 0.541770 0.500000 0.926055
Zn2   Zn    Zn3+2 0.500000 0.041770 0.500000 0.926055
Zn3   Zn    Zn3+2 0.000000 0.458160 0.500000 0.974959
Zn4   Zn    Zn3+2 0.500000 0.958160 0.500000 0.974959
Zn5   Zn    Zn3+2 0.958170 0.499940 0.041830 0.965308
Zn6   Zn    Zn3+2 0.041830 0.499940 0.958170 0.967526
Zn7   Zn    Zn3+2 0.458170 0.999940 0.041830 0.965308
Zn8   Zn    Zn3+2 0.541830 0.999940 0.958170 0.967526
Zn9   Zn    Zn3+2 0.499960 0.500060 0.930220 0.987287
Zn10  Zn    Zn3+2 0.500040 0.500060 0.069780 0.990529
Zn11  Zn    Zn3+2 0.999960 0.000060 0.930220 0.987287
Zn12  Zn    Zn3+2 0.000040 0.000060 0.069780 0.990529
O49   O     O_3   0.071941 0.509426 0.239726 -0.817017
H45   H     H_    0.093885 0.522540 0.199446 0.345608
O50   O     O_3   0.928123 0.505094 0.760419 -0.812813
H46   H     H_    0.905437 0.517173 0.800937 0.344145
O51   O     O_3   0.571941 0.009426 0.239726 -0.817017
H47   H     H_    0.593885 0.022540 0.199446 0.345608
O52   O     O_3   0.428124 0.005094 0.760419 -0.812813
H48   H     H_    0.405437 0.017173 0.800937 0.344145
C169  C     C_3   0.689218 0.442587 0.893883 -0.886265
H49   H     H_    0.720414 0.442352 0.861215 0.239427
H50   H     H_    0.680886 0.447886 0.950891 0.246759
H51   H     H_    0.679086 0.414212 0.890046 0.244465
C170  C     C_3   0.311123 0.442919 0.104632 -0.885819
H52   H     H_    0.279930 0.442494 0.137396 0.239205
H53   H     H_    0.319352 0.448821 0.047834 0.246753
H54   H     H_    0.321493 0.414444 0.107507 0.244398
C171  C     C_3   0.189218 0.942587 0.893883 -0.886265
H55   H     H_    0.220414 0.942352 0.861215 0.239428
H56   H     H_    0.180886 0.947886 0.950891 0.246759
H57   H     H_    0.179086 0.914212 0.890046 0.244465
C172  C     C_3   0.811123 0.942919 0.104632 -0.885819
H58   H     H_    0.779930 0.942494 0.137396 0.239205
H59   H     H_    0.819352 0.948821 0.047834 0.246753
H60   H     H_    0.821493 0.914444 0.107507 0.244398
C173  C     C_3   0.615858 0.559109 0.815528 -0.864619
H61   H     H_    0.586248 0.563530 0.859104 0.251704
H62   H     H_    0.630625 0.585952 0.811416 0.246127
H63   H     H_    0.616334 0.553898 0.764309 0.237377
C174  C     C_3   0.383705 0.558176 0.186215 -0.857850
H64   H     H_    0.413172 0.563095 0.142458 0.251303
H65   H     H_    0.368549 0.584992 0.191661 0.246983
H66   H     H_    0.383553 0.552319 0.236969 0.236042
C175  C     C_3   0.115858 0.059109 0.815528 -0.864619
H67   H     H_    0.086247 0.063530 0.859104 0.251704
H68   H     H_    0.130625 0.085952 0.811416 0.246127
H69   H     H_    0.116334 0.053898 0.764309 0.237377
C176  C     C_3   0.883705 0.058176 0.186215 -0.857850
H70   H     H_    0.913172 0.063095 0.142458 0.251303
H71   H     H_    0.868549 0.084992 0.191661 0.246983
H72   H     H_    0.883553 0.052319 0.236969 0.236042
O53   O     O_3   0.697515 0.546351 0.732043 -0.773360
H73   H     H_    0.682429 0.558199 0.713490 0.346275
O54   O     O_3   0.302207 0.544841 0.269645 -0.773120
H74   H     H_    0.317228 0.556233 0.288661 0.345923
O55   O     O_3   0.197515 0.046351 0.732043 -0.773360
H75   H     H_    0.182429 0.058199 0.713490 0.346275
O56   O     O_3   0.802207 0.044841 0.269645 -0.773120
H76   H     H_    0.817228 0.056233 0.288661 0.345923
C177  C     C_3   0.809732 0.431984 0.747630 -0.910228
H77   H     H_    0.830905 0.411019 0.742917 0.242531
H78   H     H_    0.792748 0.440838 0.804936 0.241058
H79   H     H_    0.791034 0.418091 0.731568 0.245922
C178  C     C_3   0.190262 0.430489 0.256131 -0.909931
H80   H     H_    0.169072 0.409301 0.262098 0.241868
H81   H     H_    0.207256 0.438498 0.198323 0.240763
H82   H     H_    0.208951 0.417199 0.272995 0.246527
C179  C     C_3   0.309732 0.931985 0.747630 -0.910228
H83   H     H_    0.330905 0.911019 0.742917 0.242531
H84   H     H_    0.292748 0.940838 0.804936 0.241058
H85   H     H_    0.291034 0.918091 0.731568 0.245922
C180  C     C_3   0.690262 0.930489 0.256131 -0.909931
H86   H     H_    0.669072 0.909301 0.262098 0.241868
H87   H     H_    0.707256 0.938498 0.198323 0.240763
H88   H     H_    0.708951 0.917199 0.272995 0.246527
C181  C     C_3   0.880167 0.564316 0.566430 -0.867547
H89   H     H_    0.858349 0.582859 0.566774 0.230105
H90   H     H_    0.895404 0.581141 0.586876 0.257375
H91   H     H_    0.899818 0.555908 0.509686 0.240921
C182  C     C_3   0.120050 0.565229 0.429204 -0.865368
H92   H     H_    0.141940 0.584173 0.427309 0.229375
H93   H     H_    0.104691 0.581305 0.407925 0.257246
H94   H     H_    0.100558 0.557725 0.486545 0.241797
C183  C     C_3   0.380167 0.064316 0.566430 -0.867547
H95   H     H_    0.358349 0.082859 0.566774 0.230105
H96   H     H_    0.395404 0.081141 0.586876 0.257375
H97   H     H_    0.399818 0.055908 0.509686 0.240921
C184  C     C_3   0.620050 0.065229 0.429204 -0.865369
H98   H     H_    0.641940 0.084173 0.427309 0.229376
H99   H     H_    0.604691 0.081305 0.407925 0.257246
H100  H     H_    0.600558 0.057725 0.486545 0.241797
C185  C     C_3   0.928370 0.503704 0.381795 -0.835385
H101  H     H_    0.921228 0.477164 0.364474 0.284282
H102  H     H_    0.929394 0.498275 0.431417 0.245592
H103  H     H_    0.904715 0.523589 0.396267 0.224822
C186  C     C_3   0.071802 0.507564 0.617859 -0.844282
H104  H     H_    0.080961 0.481766 0.633753 0.291918
H105  H     H_    0.070854 0.501648 0.568349 0.241343
H106  H     H_    0.094095 0.529021 0.603767 0.226575
C187  C     C_3   0.428370 0.003704 0.381795 -0.835386
H107  H     H_    0.421228 0.977164 0.364474 0.284282
H108  H     H_    0.429394 0.998275 0.431417 0.245592
H109  H     H_    0.404715 0.023589 0.396267 0.224822
C188  C     C_3   0.571802 0.007564 0.617859 -0.844283
H110  H     H_    0.580961 0.981766 0.633753 0.291918
H111  H     H_    0.570854 0.001648 0.568349 0.241343
H112  H     H_    0.594095 0.029021 0.603767 0.226576
O57   O     O_3   0.054957 0.695265 0.882774 -0.762055
H113  H     H_    0.064746 0.679792 0.838577 0.347197
O58   O     O_3   0.944909 0.695083 0.117974 -0.761958
H114  H     H_    0.935099 0.679454 0.162058 0.347207
O59   O     O_3   0.554957 0.195265 0.882774 -0.762055
H115  H     H_    0.564746 0.179793 0.838577 0.347197
O60   O     O_3   0.444908 0.195083 0.117974 -0.761958
H116  H     H_    0.435099 0.179454 0.162058 0.347207
O61   O     O_3   0.059946 0.614646 0.888972 -0.759019
H117  H     H_    0.083040 0.630205 0.869196 0.349879
O62   O     O_3   0.939899 0.614538 0.111148 -0.759920
H118  H     H_    0.916813 0.630180 0.131008 0.349907
O63   O     O_3   0.559946 0.114646 0.888972 -0.759019
H119  H     H_    0.583040 0.130205 0.869196 0.349879
O64   O     O_3   0.439899 0.114538 0.111148 -0.759920
H120  H     H_    0.416813 0.130180 0.131008 0.349907
O65   O     O_3   0.547593 0.694104 0.032137 -0.765703
H121  H     H_    0.552629 0.678939 0.064925 0.350471
O66   O     O_3   0.450481 0.694805 0.973628 -0.765182
H122  H     H_    0.427183 0.679967 0.990104 0.348899
O67   O     O_3   0.047593 0.194104 0.032137 -0.765703
H123  H     H_    0.052629 0.178939 0.064925 0.350471
O68   O     O_3   0.950481 0.194805 0.973628 -0.765182
H124  H     H_    0.927182 0.179967 0.990104 0.348899
O69   O     O_3   0.551149 0.612747 0.022455 -0.749296
H125  H     H_    0.574381 0.627802 0.005321 0.347332
O70   O     O_3   0.452711 0.613465 0.966362 -0.748175
H126  H     H_    0.448294 0.628320 0.932427 0.350699
O71   O     O_3   0.051148 0.112747 0.022455 -0.749296
H127  H     H_    0.074381 0.127802 0.005321 0.347332
O72   O     O_3   0.952711 0.113465 0.966362 -0.748175
H128  H     H_    0.948294 0.128320 0.932427 0.350699
C189  C     C_3   0.072148 0.305814 0.936576 -0.872038
H129  H     H_    0.096302 0.325631 0.915700 0.233849
H130  H     H_    0.072660 0.287654 0.978080 0.263986
H131  H     H_    0.075969 0.287970 0.891054 0.248120
C190  C     C_3   0.928993 0.305330 0.061391 -0.876667
H132  H     H_    0.904636 0.324981 0.082787 0.233797
H133  H     H_    0.928645 0.287492 0.019470 0.265474
H134  H     H_    0.925382 0.287133 0.106453 0.246263
C191  C     C_3   0.572148 0.805814 0.936577 -0.872037
H135  H     H_    0.596302 0.825631 0.915700 0.233848
H136  H     H_    0.572660 0.787654 0.978080 0.263986
H137  H     H_    0.575969 0.787970 0.891054 0.248120
C192  C     C_3   0.428993 0.805330 0.061391 -0.876667
H138  H     H_    0.404636 0.824980 0.082786 0.233797
H139  H     H_    0.428645 0.787493 0.019470 0.265473
H140  H     H_    0.425382 0.787133 0.106453 0.246263
C193  C     C_3   0.956941 0.564723 0.235292 -0.867957
H141  H     H_    0.972824 0.586132 0.246064 0.231487
H142  H     H_    0.963363 0.568052 0.179010 0.286376
H143  H     H_    0.926564 0.571181 0.271688 0.248689
C194  C     C_3   0.040310 0.566506 0.767187 -0.863307
H144  H     H_    0.023632 0.587236 0.756756 0.230163
H145  H     H_    0.033526 0.569584 0.823729 0.283150
H146  H     H_    0.070414 0.574178 0.731371 0.249440
C195  C     C_3   0.456941 0.064723 0.235292 -0.867957
H147  H     H_    0.472824 0.086132 0.246064 0.231487
H148  H     H_    0.463363 0.068052 0.179010 0.286376
H149  H     H_    0.426564 0.071181 0.271688 0.248689
C196  C     C_3   0.540310 0.066506 0.767187 -0.863305
H150  H     H_    0.523632 0.087236 0.756756 0.230162
H151  H     H_    0.533526 0.069584 0.823729 0.283150
H152  H     H_    0.570414 0.074178 0.731371 0.249439
C197  C     C_3   0.039269 0.567546 0.273106 -0.825152
H153  H     H_    0.063804 0.583133 0.230329 0.225114
H154  H     H_    0.013918 0.584146 0.286401 0.204122
H155  H     H_    0.044548 0.568803 0.318453 0.267515
C198  C     C_3   0.957296 0.564958 0.728608 -0.827296
H156  H     H_    0.931843 0.579251 0.771818 0.224654
H157  H     H_    0.981634 0.583052 0.715932 0.204364
H158  H     H_    0.952018 0.565439 0.683203 0.267677
C199  C     C_3   0.539269 0.067546 0.273106 -0.825152
H159  H     H_    0.563804 0.083133 0.230329 0.225114
H160  H     H_    0.513918 0.084146 0.286401 0.204122
H161  H     H_    0.544549 0.068803 0.318453 0.267515
C200  C     C_3   0.457296 0.064958 0.728608 -0.827297
H162  H     H_    0.431843 0.079251 0.771818 0.224654
H163  H     H_    0.481634 0.083052 0.715933 0.204365
H164  H     H_    0.452018 0.065439 0.683203 0.267677
C201  C     C_3   0.050513 0.561414 0.131051 -0.914121
H165  H     H_    0.079810 0.568825 0.115769 0.235964
H166  H     H_    0.050892 0.559125 0.079595 0.267078
H167  H     H_    0.032012 0.585397 0.160654 0.256853
C202  C     C_3   0.947186 0.559630 0.869747 -0.906706
H168  H     H_    0.917424 0.565497 0.886045 0.234319
H169  H     H_    0.947493 0.558067 0.920613 0.267410
H170  H     H_    0.964304 0.584318 0.839986 0.255252
C203  C     C_3   0.550513 0.061414 0.131051 -0.914120
H171  H     H_    0.579810 0.068825 0.115769 0.235964
H172  H     H_    0.550892 0.059125 0.079595 0.267077
H173  H     H_    0.532012 0.085397 0.160654 0.256853
C204  C     C_3   0.447186 0.059630 0.869747 -0.906707
H174  H     H_    0.417424 0.065497 0.886045 0.234318
H175  H     H_    0.447493 0.058067 0.920613 0.267411
H176  H     H_    0.464304 0.084318 0.839986 0.255252
C205  C     C_3   0.042411 0.438162 0.254809 -0.794006
H177  H     H_    0.066399 0.447840 0.202468 0.235537
H178  H     H_    0.050441 0.440480 0.296471 0.262987
H179  H     H_    0.039108 0.407709 0.247569 0.207640
C206  C     C_3   0.961503 0.435347 0.742918 -0.862074
H180  H     H_    0.936823 0.443944 0.795288 0.249951
H181  H     H_    0.953422 0.436460 0.701215 0.260924
H182  H     H_    0.966980 0.405364 0.749559 0.228600
C207  C     C_3   0.542411 0.938162 0.254809 -0.794006
H183  H     H_    0.566399 0.947840 0.202468 0.235537
H184  H     H_    0.550442 0.940480 0.296471 0.262986
H185  H     H_    0.539108 0.907709 0.247569 0.207640
C208  C     C_3   0.461503 0.935347 0.742918 -0.862074
H186  H     H_    0.436823 0.943944 0.795288 0.249951
H187  H     H_    0.453422 0.936460 0.701215 0.260924
H188  H     H_    0.466980 0.905364 0.749559 0.228600
O73   O     O_3   0.975121 0.438109 0.328955 -0.750066
H189  H     H_    0.974928 0.413329 0.307772 0.336163
O74   O     O_3   0.029712 0.439335 0.670764 -0.772784
H190  H     H_    0.023537 0.422623 0.641411 0.363420
O75   O     O_3   0.475121 0.938109 0.328955 -0.750066
H191  H     H_    0.474928 0.913329 0.307772 0.336162
O76   O     O_3   0.529712 0.939335 0.670764 -0.772784
H192  H     H_    0.523537 0.922623 0.641411 0.363420

loop_
_geom_bond_atom_site_label_1
_geom_bond_atom_site_label_2
_ccdc_geom_bond_type
C115  C193  S    
O19   Zn4   S    
C186  H104  S    
C55   C59   A    
C173  H62   S    
C195  H147  S    
C108  C120  A    
O3    Zn2   S    
C138  C190  S    
C75   O42   A    
C181  H89   S    
C62   H22   S    
O66   H122  S    
C198  H156  S    
C117  C163  S    
C207  H185  S    
C118  C164  S    
C89   C99   A    
C4    O20   A    
O31   Zn7   S    
C154  C158  S    
C127  O71   S    
C110  O62   S    
C69   O30   A    
C174  H66   S    
C88   O15   A    
C82   O12   A    
C3    O3    A    
C19   C81   S    
C29   C33   S    
C122  O66   S    
C205  H179  S    
C148  C166  S    
C87   O13   A    
C203  H171  S    
C72   O34   A    
C76   O43   A    
C9    C13   A    
C64   H24   S    
C144  H36   S    
C11   C15   A    
O22   Zn1   S    
C12   C16   A    
C203  H173  S    
C201  H166  S    
C78   O47   A    
C91   C100  A    
C71   C161  S    
C140  C152  A    
C141  C145  A    
C167  C203  S    
O44   Zn8   S    
C166  C202  S    
C76   C146  S    
C192  H139  S    
C4    C56   S    
C61   H21   S    
C10   C170  S    
O26   Zn3   S    
C41   C49   A    
C185  H102  S    
C155  C207  S    
C47   O23   A    
C25   C29   A    
C128  O72   S    
C27   C31   A    
C164  C168  S    
C62   C66   A    
C168  C204  S    
C199  H161  S    
C6    H6    S    
C94   C97   A    
C206  H180  S    
C7    C163  S    
C17   C21   A    
C169  H51   S    
C5    C161  S    
C202  H170  S    
C19   C23   A    
C117  C195  S    
C198  H158  S    
C91   H27   S    
C10   C30   A    
O40   Zn7   S    
C83   C157  S    
C16   C20   A    
C197  H155  S    
C150  C168  S    
C50   C54   A    
C183  H97   S    
C85   C117  S    
C63   H23   S    
C123  O67   S    
C137  C189  S    
C99   C101  S    
C2    O2    A    
C186  H106  S    
C10   C14   A    
O63   H119  S    
C195  H149  S    
O29   Zn5   S    
C190  H134  S    
C71   O33   A    
O64   H120  S    
C107  C120  A    
C181  H91   S    
O21   Zn1   S    
C180  H88   S    
C12   C172  S    
O42   Zn6   S    
C27   O55   S    
O33   Zn5   S    
O38   Zn5   S    
C92   H28   S    
O60   H116  S    
C16   H16   S    
C57   C61   A    
C73   O35   A    
C138  C151  A    
O69   H125  S    
C59   C63   A    
C60   C64   A    
C207  H183  S    
C73   C163  S    
C190  H132  S    
O14   Zn10  S    
C74   C164  S    
C84   C186  S    
C108  O60   S    
C49   C53   A    
C83   H1    S    
O7    Zn11  S    
C200  H162  S    
O8    Zn12  S    
C45   O25   A    
C199  H160  S    
C125  C129  A    
C170  H53   S    
C177  H77   S    
O32   Zn8   S    
C191  H135  S    
C188  H110  S    
C71   O37   A    
C42   C178  S    
C161  C165  S    
C156  C208  S    
C143  H35   S    
C184  H98   S    
C4    O4    A    
C20   C82   S    
C123  C132  A    
C165  H9    S    
C139  C152  A    
O2    Zn1   S    
C118  H40   S    
C112  C114  A    
C189  H129  S    
C47   C159  S    
C204  H174  S    
C48   C160  S    
C69   C113  S    
C172  H58   S    
C86   H4    S    
C64   C68   A    
C84   H2    S    
C85   C187  S    
C116  C194  S    
C79   O5    A    
O72   H128  S    
C46   C158  S    
C58   C182  S    
C92   C96   A    
C124  C132  A    
C178  H81   S    
C95   H31   S    
C1    C53   S    
C150  O52   S    
C147  C165  S    
C3    C55   S    
C121  O65   S    
C175  H68   S    
C165  C201  S    
C198  H157  S    
C77   C97   S    
C149  O51   S    
C51   C55   A    
O35   Zn7   S    
C87   O14   A    
C84   C116  S    
C77   O45   A    
O51   H47   S    
C150  C200  S    
C153  C205  S    
C179  H84   S    
C156  O76   S    
O28   Zn4   S    
C193  H142  S    
C171  H55   S    
C182  H93   S    
C30   C34   S    
C155  C159  S    
C83   C115  S    
C156  C160  S    
C45   C157  S    
C83   C185  S    
C188  H112  S    
C3    O19   A    
C84   C158  S    
C107  O59   S    
O1    Zn1   S    
C115  C161  S    
C200  H164  S    
C93   H29   S    
C121  C125  A    
O75   H191  S    
C61   C65   A    
C70   O31   A    
C74   O36   A    
C123  C127  A    
O74   H190  S    
C177  H79   S    
O73   H189  S    
C7    C155  S    
C191  H137  S    
C147  O49   S    
C42   C50   A    
C47   O27   A    
C132  C134  S    
C44   C180  S    
C26   C30   A    
C194  H146  S    
C13   H13   S    
C46   O22   A    
C40   C68   S    
O45   Zn9   S    
C181  H90   S    
C50   H18   S    
C93   C97   A    
C90   C99   A    
C189  H131  S    
O47   Zn11  S    
C204  H176  S    
O15   Zn11  S    
C96   H32   S    
C105  C109  A    
O20   Zn4   S    
C18   C22   A    
C107  C111  A    
C24   C28   A    
C118  C196  S    
C75   O41   A    
C111  O63   S    
C7    H43   S    
C8    H8    S    
C134  C135  T    
C184  H100  S    
C5    H41   S    
C26   O54   S    
C13   C17   A    
C60   C184  S    
C87   C129  S    
O4    Zn2   S    
O71   H127  S    
C69   O29   A    
C88   O16   A    
O43   Zn7   S    
C205  H178  S    
O30   Zn6   S    
C89   C93   A    
C102  C103  T    
C76   O44   A    
C116  H38   S    
C2    O18   A    
C80   O10   A    
C49   H17   S    
C43   C67   A    
C201  H165  S    
O76   H192  S    
C78   O48   A    
C41   C177  S    
C52   H20   S    
O34   Zn6   S    
C155  O75   S    
O9    Zn10  S    
C73   O39   A    
C58   C62   A    
C143  C146  A    
C167  H11   S    
O24   Zn2   S    
C192  H138  S    
C106  C119  A    
O25   Zn3   S    
C195  H148  S    
C122  C131  A    
O50   H46   S    
C149  C167  S    
C185  H101  S    
O62   H118  S    
C15   C19   A    
C187  H108  S    
O6    Zn10  S    
C150  C160  S    
C180  H86   S    
C142  H34   S    
C45   O21   A    
C172  H60   S    
C75   C145  S    
C54   C58   A    
C140  C192  S    
C57   C181  S    
C196  H152  S    
C194  H145  S    
O58   H114  S    
C81   O7    A    
C171  H57   S    
C173  H61   S    
C202  H169  S    
C14   C18   A    
C21   C25   A    
C14   H14   S    
C162  C166  S    
O10   Zn9   S    
C197  H154  S    
C15   H15   S    
O52   H48   S    
C79   O9    A    
C166  H10   S    
C183  H96   S    
C154  O74   S    
C124  C128  A    
O17   Zn3   S    
O54   H74   S    
C186  H105  S    
C203  H172  S    
C142  C145  A    
C109  O61   S    
C5    H5    S    
C48   O28   A    
C90   C94   A    
C180  H87   S    
C28   O56   S    
C144  C146  A    
C2    C54   S    
C53   C57   A    
C196  H150  S    
C33   C37   T    
C56   C60   A    
C8    C164  S    
C43   C179  S    
C35   C39   T    
C170  H52   S    
C90   H26   S    
C28   C32   A    
C201  H167  S    
C86   C118  S    
C85   H3    S    
O16   Zn12  S    
O13   Zn9   S    
C6    C154  S    
C174  H65   S    
O36   Zn8   S    
C153  O73   S    
C192  H140  S    
C138  C142  A    
C21   C173  S    
C23   C175  S    
C169  H50   S    
C32   C36   S    
C185  H103  S    
O65   H121  S    
C59   C183  S    
C137  C141  A    
C207  H184  S    
C208  H187  S    
C174  H64   S    
C140  C144  A    
C148  C198  S    
C117  H39   S    
C128  C130  A    
C74   O40   A    
O70   H126  S    
C170  H54   S    
C126  C129  A    
C188  H111  S    
O11   Zn12  S    
C168  H12   S    
O12   Zn11  S    
C43   C51   A    
O53   H73   S    
C25   O53   S    
C154  C206  S    
C135  C151  S    
C111  C114  A    
C194  H144  S    
C153  C157  S    
C178  H80   S    
O46   Zn10  S    
C126  O70   S    
C51   H19   S    
O56   H76   S    
C108  C112  A    
C11   C171  S    
C82   O8    A    
C175  H67   S    
C22   C26   A    
C105  C119  A    
C85   C159  S    
C72   O38   A    
C136  C152  S    
C86   C160  S    
O39   Zn8   S    
C104  C120  S    
O48   Zn12  S    
C179  H83   S    
C147  C197  S    
C88   C130  S    
C193  H141  S    
C95   C98   A    
O68   H124  S    
C176  H70   S    
C70   C114  S    
C208  H186  S    
C116  C162  S    
C176  H72   S    
C141  H33   S    
C208  H188  S    
C190  H133  S    
C80   O6    A    
C5    C153  S    
C17   C79   S    
C200  H163  S    
C124  O68   S    
C70   O32   A    
C6    C162  S    
C96   C98   A    
C177  H78   S    
C7    H7    S    
C78   C98   S    
C133  C136  T    
C23   C27   A    
C191  H136  S    
C109  C113  A    
C106  O58   S    
C89   H25   S    
C184  H99   S    
C12   C32   A    
O55   H75   S    
C139  C143  A    
C121  C131  A    
C189  H130  S    
C204  H175  S    
C81   O11   A    
C63   C67   A    
C196  H151  S    
C20   C24   A    
C36   C40   T    
C22   C174  S    
C41   C65   A    
C173  H63   S    
O41   Zn5   S    
C169  H49   S    
C91   C95   A    
C187  H109  S    
C37   C65   S    
C94   H30   S    
O37   Zn6   S    
C122  C126  A    
C178  H82   S    
C163  C167  S    
C149  C199  S    
C175  H69   S    
C100  C102  S    
C205  H177  S    
C148  O50   S    
C9    C169  S    
C148  C158  S    
C149  C159  S    
C110  C113  A    
O61   H117  S    
C48   O24   A    
C105  O57   S    
C77   O46   A    
C115  H37   S    
C179  H85   S    
O27   Zn4   S    
C44   C68   A    
C139  C191  S    
C147  C157  S    
C193  H143  S    
C92   C100  A    
O57   H113  S    
C106  C110  A    
C182  H94   S    
C38   C66   S    
O18   Zn3   S    
C112  O64   S    
C72   C162  S    
C34   C38   T    
C39   C67   S    
C103  C119  S    
C131  C133  S    
C6    H42   S    
C9    C29   A    
O23   Zn2   S    
C187  H107  S    
C206  H181  S    
C24   C176  S    
C127  C130  A    
C172  H59   S    
C8    H44   S    
O59   H115  S    
C1    O1    A    
C44   C52   A    
C199  H159  S    
O67   H123  S    
C176  H71   S    
O5    Zn9   S    
C171  H56   S    
C31   C35   S    
C46   O26   A    
C202  H168  S    
C8    C156  S    
C206  H182  S    
C11   C31   A    
C1    O17   A    
C86   C188  S    
C18   C80   S    
C197  H153  S    
C42   C66   A    
C182  H92   S    
C137  C151  A    
C101  C104  T    
C125  O69   S    
C183  H95   S    
C52   C56   A    
O49   H45   S    
