data_mof_unit_29076.cif
_audit_creation_date              2012-12-10T17:49:39-0500
_audit_creation_method            fapswitch 2.2
_symmetry_space_group_name_H-M    P1
_symmetry_Int_Tables_number       1
_space_group_crystal_system       triclinic
_cell_length_a                    14.719522
_cell_length_b                    14.687522
_cell_length_c                    15.864096
_cell_angle_alpha                 76.8985
_cell_angle_beta                  102.904711
_cell_angle_gamma                 114.782548
_cell_volume                      3000.70063287

loop_
_atom_site_label
_atom_site_type_symbol
_atom_type_description
_atom_site_fract_x
_atom_site_fract_y
_atom_site_fract_z
_atom_type_partial_charge
C1    C     C_R   0.880398 0.312182 0.514326 0.813926
C2    C     C_3   0.004502 0.400277 0.070165 -0.393333
C3    C     C_3   0.997770 0.498846 0.082358 0.265101
C4    C     C_3   0.088965 0.590896 0.047928 -0.384565
C5    C     C_3   0.089202 0.590610 0.950461 -0.345776
C6    C     C_1   0.998749 0.498800 0.174819 -0.092804
C7    C     C_1   0.997904 0.499142 0.824605 -0.095936
C8    C     C_1   0.998771 0.499392 0.749184 -0.179839
C9    C     C_R   0.812943 0.204420 0.519140 -0.114186
C10   C     C_R   0.187383 0.795307 0.473124 -0.050774
C11   C     C_R   0.784703 0.026623 0.536352 0.435547
C12   C     C_R   0.999685 0.499850 0.659663 0.827641
C13   C     C_R   0.850839 0.128180 0.536625 -0.283550
C14   C     C_R   0.708609 0.178641 0.503198 -0.264761
C15   C     C_R   0.639900 0.077986 0.500238 0.032014
C16   C     C_R   0.679185 0.001058 0.519168 0.055051
C17   C     C_R   0.533384 0.051893 0.480305 0.095138
C18   C     C_R   0.467093 0.947809 0.487308 0.070285
C19   C     C_R   0.509169 0.873550 0.504549 -0.241735
C20   C     C_R   0.612801 0.899864 0.519793 -0.202548
C21   C     C_R   0.490943 0.126291 0.451643 -0.239562
C22   C     C_R   0.387132 0.099646 0.434590 -0.239104
C23   C     C_R   0.119627 0.687747 0.485148 0.795950
C24   C     C_R   0.321504 0.998356 0.446560 0.167892
C25   C     C_R   0.360693 0.921490 0.474537 0.084365
C26   C     C_R   0.216674 0.973029 0.430588 -0.198757
C27   C     C_R   0.149948 0.871919 0.442756 -0.199770
C28   C     C_R   0.291826 0.820732 0.490377 -0.256721
C29   C     C_R   0.718652 0.674163 0.362892 -0.331188
C30   C     C_R   0.798632 0.642510 0.382144 0.068734
C31   C     C_R   0.714920 0.508102 0.488106 0.027066
C32   C     C_R   0.633293 0.539777 0.475814 -0.020478
C33   C     C_R   0.635922 0.623141 0.409070 0.164163
C34   C     C_R   0.000023 0.499785 0.340279 0.828659
C35   C     C_R   0.549031 0.491677 0.524935 -0.023213
C36   C     C_R   0.463788 0.521231 0.496900 0.023747
C37   C     C_R   0.470999 0.604284 0.429520 -0.212896
C38   C     C_R   0.556012 0.655138 0.388087 -0.201188
C39   C     C_R   0.547577 0.418676 0.602245 0.390408
C40   C     C_R   0.461267 0.372817 0.644346 -0.288972
C41   C     C_R   0.375307 0.394158 0.612213 0.100640
C42   C     C_R   0.375090 0.469316 0.538968 -0.026982
C43   C     C_R   0.290290 0.342899 0.655570 -0.293075
C44   C     C_R   0.205403 0.366564 0.626470 0.081233
C45   C     C_3   0.003812 0.400418 0.972372 -0.477490
C46   C     C_R   0.285485 0.489565 0.512135 0.022703
C47   C     C_3   0.897640 0.505776 0.928609 0.339372
C48   C     C_3   0.899018 0.505658 0.027051 -0.382863
C49   C     C_1   0.999703 0.499121 0.250582 -0.183267
C50   C     C_3   0.996924 0.499321 0.916542 0.267628
Cu1   Cu    Cu3+1 0.081750 0.475690 0.522550 0.932892
Cu2   Cu    Cu3+1 0.918250 0.524310 0.477450 0.933100
H1    H     H_    0.939572 0.332959 0.094452 0.167029
H2    H     H_    0.073867 0.393548 0.964516 0.187872
H3    H     H_    0.075003 0.393674 0.109134 0.177444
H4    H     H_    0.085134 0.662767 0.055229 0.171533
H5    H     H_    0.640673 0.839827 0.532096 0.183585
H6    H     H_    0.317747 0.760393 0.518010 0.154653
H7    H     H_    0.069441 0.853781 0.428545 0.147798
H8    H     H_    0.358038 0.159069 0.412342 0.144337
H9    H     H_    0.931606 0.146976 0.550370 0.168427
H10   H     H_    0.682776 0.238953 0.494767 0.159476
H11   H     H_    0.938507 0.333214 0.949654 0.164184
H12   H     H_    0.464171 0.793908 0.503977 0.144789
H13   H     H_    0.535547 0.206313 0.438793 0.139600
H14   H     H_    0.186328 0.031471 0.408194 0.130865
H15   H     H_    0.558309 0.719410 0.337615 0.136780
H16   H     H_    0.277642 0.544569 0.456402 0.120247
H17   H     H_    0.140239 0.327887 0.660523 0.125414
H18   H     H_    0.462240 0.322286 0.705597 0.141007
H19   H     H_    0.721978 0.738966 0.312824 0.135664
H20   H     H_    0.863844 0.683498 0.348365 0.124805
H21   H     H_    0.715966 0.440965 0.530944 0.185893
H22   H     H_    0.412854 0.634228 0.408537 0.127101
H23   H     H_    0.289770 0.285358 0.712199 0.135002
H24   H     H_    0.832734 0.435645 0.909325 0.033735
H25   H     H_    0.832359 0.440161 0.050796 0.122559
H26   H     H_    0.892190 0.575523 0.035832 0.189431
H27   H     H_    0.160613 0.586108 0.943114 0.155704
H28   H     H_    0.087662 0.663180 0.911131 0.197424
H29   H     H_    0.160968 0.588278 0.087026 0.165103
N1    N     N_R   0.795410 0.560790 0.443550 -0.186842
N2    N     N_R   0.204590 0.439170 0.556520 -0.179689
O1    O     O_R   0.977910 0.338120 0.529720 -0.588162
O2    O     O_R   0.839850 0.379180 0.491640 -0.600462
O3    O     O_R   0.069060 0.479460 0.639610 -0.579111
O4    O     O_R   0.931000 0.520530 0.601530 -0.572535
O5    O     O_R   0.160150 0.620820 0.508360 -0.589509
O6    O     O_R   0.022090 0.661880 0.470280 -0.588405
O7    O     O_R   0.069000 0.479470 0.398470 -0.579895
O8    O     O_R   0.930940 0.520540 0.360390 -0.574972
O9    O     O_3   0.823377 0.951877 0.558001 -0.589231
C51   C     C_3   0.851436 0.941637 0.482283 0.029904
H30   H     H_    0.915503 0.011622 0.460136 0.144448
H31   H     H_    0.786462 0.925549 0.428113 0.136932
C52   C     C_3   0.885177 0.853309 0.503175 -0.756621
H32   H     H_    0.822458 0.782092 0.524695 0.255109
H33   H     H_    0.906757 0.844468 0.443757 0.187119
H34   H     H_    0.951279 0.867371 0.555829 0.249047
O10   O     O_3   0.889951 0.596763 0.879345 -0.616828
C53   C     C_3   0.806765 0.576058 0.811580 0.050542
H35   H     H_    0.734828 0.531788 0.839468 0.144164
H36   H     H_    0.814449 0.532664 0.766249 0.184865
C54   C     C_3   0.803585 0.676385 0.760186 -0.307022
H37   H     H_    0.792532 0.718717 0.804290 0.220422
H38   H     H_    0.876707 0.723134 0.735090 0.231312
C55   C     C_3   0.718148 0.659231 0.683172 -0.861547
H39   H     H_    0.731814 0.622874 0.635786 0.274597
H40   H     H_    0.715309 0.733189 0.649596 0.263717
H41   H     H_    0.644206 0.610326 0.705973 0.258247
O11   O     O_3   0.635785 0.407265 0.646519 -0.609123
C56   C     C_3   0.623389 0.304175 0.660460 0.035246
H42   H     H_    0.594056 0.271698 0.598152 0.137574
H43   H     H_    0.571706 0.257551 0.709198 0.151923
C57   C     C_3   0.725139 0.296517 0.697183 -0.808577
H44   H     H_    0.755508 0.327252 0.760054 0.235645
H45   H     H_    0.716073 0.215909 0.708718 0.209805
H46   H     H_    0.779897 0.339923 0.650515 0.252534

loop_
_geom_bond_atom_site_label_1
_geom_bond_atom_site_label_2
_ccdc_geom_bond_type
C10   C27   A    
C37   H22   S    
C53   H35   S    
C41   C43   A    
C41   C42   A    
C36   C42   A    
C19   C20   A    
C9    C14   A    
C3    C6    S    
C54   H38   S    
C7    C8    T    
C31   C32   A    
C1    O1    A    
C26   C27   A    
C51   H30   S    
C31   N1    A    
C40   H18   S    
Cu2   O2    S    
C37   C38   A    
C24   C26   A    
C47   H24   S    
C2    H3    S    
Cu1   O7    S    
C22   H8    S    
C31   H21   S    
C57   H44   S    
C14   H10   S    
C52   H34   S    
C29   C33   A    
C3    C48   S    
C18   C19   A    
C42   C46   A    
C48   H26   S    
C9    C13   A    
C34   O8    A    
C54   H37   S    
C11   O9    S    
C4    H29   S    
O11   C56   S    
C57   H45   S    
C52   H33   S    
C55   H39   S    
C23   O6    A    
C5    H27   S    
C16   C20   A    
C44   N2    A    
C39   O11   S    
C53   H36   S    
C21   C22   A    
C4    H4    S    
C43   H23   S    
C55   H40   S    
Cu2   O6    S    
C18   C25   A    
Cu1   O3    S    
C56   H43   S    
C56   H42   S    
C47   C50   S    
C2    C45   S    
C1    O2    A    
Cu1   Cu2   S    
C26   H14   S    
C32   C35   A    
C1    C9    S    
C24   C25   A    
C39   C40   A    
C45   H11   S    
C17   C21   A    
C47   O10   S    
C25   C28   A    
C35   C36   A    
C48   H25   S    
C30   N1    A    
C35   C39   A    
C43   C44   A    
C34   O7    A    
C46   H16   S    
C29   C30   A    
C11   C16   A    
C47   C48   S    
C19   H12   S    
C8    C12   S    
C57   H46   S    
C52   H32   S    
C17   C18   A    
C44   H17   S    
C5    H28   S    
Cu2   N1    S    
C40   C41   A    
C45   H2    S    
C53   C54   S    
C23   O5    A    
C55   H41   S    
C22   C24   A    
C5    C50   S    
C3    C4    S    
Cu1   N2    S    
C10   C28   A    
C15   C17   A    
C36   C37   A    
C34   C49   S    
C12   O4    A    
C21   H13   S    
Cu2   O4    S    
C7    C50   S    
C4    C5    S    
C2    H1    S    
Cu1   O5    S    
C30   H20   S    
C28   H6    S    
C10   C23   S    
C51   C52   S    
C33   C38   A    
C12   O3    A    
C32   C33   A    
C2    C3    S    
C27   H7    S    
C11   C13   A    
C45   C50   S    
O9    C51   S    
C54   C55   S    
C6    C49   T    
C46   N2    A    
C13   H9    S    
C38   H15   S    
C51   H31   S    
C14   C15   A    
Cu2   O8    S    
O10   C53   S    
C20   H5    S    
Cu1   O1    S    
C56   C57   S    
C15   C16   A    
C29   H19   S    
