data_mof_unit_41878.cif
_audit_creation_date              2013-03-05T16:30:50-0500
_audit_creation_method            fapswitch 2.2
_symmetry_space_group_name_H-M    P1
_symmetry_Int_Tables_number       1
_space_group_crystal_system       triclinic
_cell_length_a                    11.070046
_cell_length_b                    10.862186
_cell_length_c                    9.54832
_cell_angle_alpha                 90.01621
_cell_angle_beta                  102.604271
_cell_angle_gamma                 90.200266
_cell_volume                      1120.45975914

loop_
_atom_site_label
_atom_site_type_symbol
_atom_site_description
_atom_site_fract_x
_atom_site_fract_y
_atom_site_fract_z
_atom_type_partial_charge
O1    O     O_R   0.500000 0.319640 0.618810 -0.568957
O2    O     O_R   0.500010 0.319680 0.381230 -0.585822
C1    C     C_R   0.500010 0.262728 0.499848 0.819649
O3    O     O_R   0.320680 0.500000 0.575130 -0.613936
O4    O     O_R   0.320690 0.500040 0.337550 -0.534971
C2    C     C_R   0.262668 0.501023 0.441598 0.756811
Cu1   Cu    Cu3+1 0.499990 0.499980 0.640670 0.980333
Cu2   Cu    Cu3+1 0.500010 0.500020 0.359330 0.993699
O5    O     O_R   0.499990 0.680320 0.618770 -0.582574
O6    O     O_R   0.500000 0.680360 0.381190 -0.590054
O7    O     O_R   0.679310 0.499960 0.662450 -0.570661
O8    O     O_R   0.679320 0.500000 0.424870 -0.580734
C3    C     C_R   0.499898 0.737284 0.499827 0.805396
C4    C     C_R   0.737168 0.500677 0.558566 0.868929
H1    H     H_    0.884283 0.549127 0.385418 0.199152
H2    H     H_    0.117811 0.497667 0.626596 0.170072
C5    C     C_2   0.127220 0.503613 0.407366 0.184222
C6    C     C_2   0.067174 0.504705 0.515682 -0.258515
H3    H     H_    0.920785 0.473954 0.701108 0.179509
C7    C     C_2   0.872038 0.497859 0.593016 -0.334836
C8    C     C_2   0.933505 0.519724 0.490230 -0.084580
C9    C     C_R   0.503531 0.062122 0.621862 0.062586
C10   C     C_R   0.499411 0.130132 0.498019 -0.103750
C11   C     C_R   0.494563 0.064535 0.369183 -0.171219
H4    H     H_    0.491038 0.112215 0.268754 0.181158
C12   C     C_R   0.494508 0.935394 0.369196 -0.191631
H5    H     H_    0.491123 0.887624 0.268808 0.170033
C13   C     C_R   0.499041 0.869901 0.497994 -0.074072
C14   C     C_R   0.502914 0.937968 0.621810 0.075975
C15   C     C_3   0.511079 0.928130 0.779427 -0.515170
C16   C     C_3   0.511759 0.070214 0.779787 0.165059
H6    H     H_    0.425874 0.887459 0.804201 0.179678
H7    H     H_    0.599127 0.885407 0.836513 0.222073
H8    H     H_    0.428986 0.112588 0.808362 0.089082
C17   C     C_R   0.563812 0.588228 0.089594 0.226414
N1    N     N_R   0.500780 0.500930 0.148120 -0.188399
C18   C     C_R   0.427822 0.420331 0.056154 0.004238
H9    H     H_    0.371401 0.354099 0.097690 0.139861
C19   C     C_R   0.427714 0.420414 0.907244 0.002119
H10   H     H_    0.371261 0.354198 0.837135 0.124376
N2    N     N_R   0.500790 0.500890 0.852210 -0.181418
C20   C     C_R   0.563411 0.588543 0.941982 0.220174
C21   C     C_3   0.699136 0.611935 0.969183 -0.418191
C22   C     C_3   0.700117 0.609115 0.127843 -0.454115
H11   H     H_    0.751477 0.534356 0.935298 0.253687
H12   H     H_    0.721262 0.704086 0.930819 0.191193
H13   H     H_    0.749513 0.527356 0.180856 0.252293
H14   H     H_    0.725430 0.698761 0.182817 0.194939
N3    N     N_R   0.629415 0.122917 0.856958 0.162965
O9    O     O_R   0.733797 0.089652 0.826872 -0.333086
O10   O     O_R   0.630128 0.204050 0.957299 -0.354250
N4    N     N_R   0.061650 0.503917 0.259355 0.117879
O11   O     O_R   0.098702 0.574550 0.166870 -0.350852
O12   O     O_R   0.976803 0.421342 0.213299 -0.351762

loop_
_geom_bond_atom_site_label_1
_geom_bond_atom_site_label_2
_geom_bond_distance
_ccdc_geom_bond_type
O4    Cu2   1.950288 S    
Cu1   O7    1.950290 S    
C10   C11   1.412203 A    
C3    C13   1.440655 S    
C18   H9    1.081716 S    
C9    C14   1.348570 A    
C6    C8    1.456030 S    
N2    C20   1.362865 A    
C1    C10   1.440351 S    
H3    C7    1.087157 S    
C22   H13   1.107600 S    
Cu2   O8    1.946691 S    
C21   C22   1.512925 S    
N4    O12   1.301437 A    
C5    C6    1.346002 D    
C16   H8    1.112609 S    
Cu1   Cu2   2.686374 S    
C18   C19   1.421578 A    
H2    C6    1.087611 S    
N4    O11   1.301138 A    
C11   H4    1.083225 S    
C15   H6    1.111456 S    
C17   C22   1.489529 S    
C21   H11   1.111563 S    
C12   H5    1.083208 S    
C14   C15   1.491762 S    
C16   N3    1.463811 S    
O3    Cu1   1.946690 S    
O4    C2    1.295459 A    
C5    N4    1.441002 S    
O3    C2    1.296492 A    
N1    C18   1.369290 A    
C21   H12   1.110744 S    
O8    C4    1.297291 A    
O2    C1    1.290691 A    
Cu1   N2    2.017958 S    
C15   C16   1.543335 S    
O7    C4    1.292839 A    
C9    C16   1.493238 S    
C2    C5    1.463650 S    
C4    C7    1.457471 S    
H1    C8    1.078822 S    
C7    C8    1.331574 D    
C19   N2    1.369496 A    
Cu2   O6    1.969921 S    
N3    O9    1.302319 A    
Cu2   N1    2.018604 S    
C19   H10   1.081661 S    
Cu1   O5    1.970076 S    
C17   C20   1.408491 A    
O5    C3    1.293288 A    
C9    C10   1.386833 A    
C13   C14   1.386841 A    
C15   H7    1.110827 S    
N3    O10   1.300321 A    
O1    Cu1   1.969920 S    
C12   C13   1.412385 A    
O6    C3    1.290615 A    
O2    Cu2   1.970075 S    
C22   H14   1.111685 S    
C20   C21   1.488777 S    
C11   C12   1.402756 A    
O1    C1    1.293080 A    
C17   N1    1.365351 A    
