data_mof_unit_41703.cif
_audit_creation_date              2012-12-11T17:14:58-0500
_audit_creation_method            fapswitch 2.2
_symmetry_space_group_name_H-M    P1
_symmetry_Int_Tables_number       1
_space_group_crystal_system       triclinic
_cell_length_a                    7.234164
_cell_length_b                    12.155806
_cell_length_c                    21.279804
_cell_angle_alpha                 89.975008
_cell_angle_beta                  90.195758
_cell_angle_gamma                 90.035819
_cell_volume                      1871.272664

loop_
_atom_site_label
_atom_site_type_symbol
_atom_type_description
_atom_site_fract_x
_atom_site_fract_y
_atom_site_fract_z
_atom_type_partial_charge
O1    O     O_R   0.354460 0.152320 0.595720 -0.542077
O2    O     O_R   0.645540 0.847680 0.404280 -0.542077
O3    O     O_R   0.145540 0.652320 0.404280 -0.542180
O4    O     O_R   0.854460 0.347680 0.595720 -0.542180
O5    O     O_R   0.683670 0.140090 0.727290 -0.518122
O6    O     O_R   0.316330 0.859910 0.272710 -0.518121
O7    O     O_R   0.816330 0.640090 0.272710 -0.519048
O8    O     O_R   0.183670 0.359910 0.727290 -0.519047
O9    O     O_R   0.854010 0.349340 0.727750 -0.525932
O10   O     O_R   0.145990 0.650660 0.272250 -0.525932
O11   O     O_R   0.645990 0.849340 0.272250 -0.525577
O12   O     O_R   0.354010 0.150660 0.727750 -0.525578
C1    C     C_R   0.515835 0.112344 0.746994 0.823762
C2    C     C_R   0.484165 0.887656 0.253006 0.823762
C3    C     C_R   0.984093 0.612330 0.253059 0.827940
C4    C     C_R   0.015907 0.387670 0.746941 0.827939
O13   O     O_R   0.684170 0.139420 0.596190 -0.543870
O14   O     O_R   0.315830 0.860580 0.403810 -0.543870
O15   O     O_R   0.815830 0.639420 0.403810 -0.543954
O16   O     O_R   0.184170 0.360580 0.596190 -0.543954
C5    C     C_R   0.515345 0.113155 0.574463 0.682013
C6    C     C_R   0.484654 0.886845 0.425537 0.682013
C7    C     C_R   0.984608 0.613153 0.425535 0.682109
C8    C     C_R   0.015392 0.386847 0.574465 0.682109
O17   O     O_3   0.520730 0.319480 0.661730 -0.382649
O18   O     O_3   0.479270 0.680520 0.338270 -0.382648
O19   O     O_3   0.979270 0.819480 0.338270 -0.382254
O20   O     O_3   0.020730 0.180520 0.661730 -0.382254
V1    V     V_3+5 0.795560 0.238090 0.661730 1.531560
V2    V     V_3+5 0.204440 0.761910 0.338270 1.531560
V3    V     V_3+5 0.704440 0.738090 0.338270 1.530795
V4    V     V_3+5 0.295560 0.261910 0.661730 1.530795
C9    C     C_R   0.007069 0.466296 0.798563 -0.278297
C10   C     C_R   0.992930 0.533704 0.201436 -0.278297
C11   C     C_R   0.493198 0.966427 0.201359 -0.280109
C12   C     C_R   0.506802 0.033573 0.798641 -0.280108
C13   C     C_R   0.946673 0.649651 0.836505 0.777106
C14   C     C_R   0.053324 0.350349 0.163495 0.777107
C15   C     C_R   0.554283 0.149938 0.163441 0.756721
C16   C     C_R   0.445718 0.850061 0.836559 0.756722
C17   C     C_R   0.954458 0.574696 0.787176 -0.320566
C18   C     C_R   0.045540 0.425304 0.212824 -0.320568
C19   C     C_R   0.546850 0.074634 0.212680 -0.280966
C20   C     C_R   0.453150 0.925366 0.787320 -0.280966
C21   C     C_R   0.039977 0.430311 0.859830 0.752811
C22   C     C_R   0.960024 0.569689 0.140170 0.752810
C23   C     C_R   0.459899 0.930737 0.140115 0.750463
C24   C     C_R   0.540102 0.069263 0.859885 0.750463
C25   C     C_R   0.002456 0.500034 0.911532 -0.145614
C26   C     C_R   0.997545 0.499966 0.088467 -0.145614
C27   C     C_R   0.497335 0.000649 0.088443 -0.121040
C28   C     C_R   0.502665 0.999351 0.911557 -0.121041
C29   C     C_R   0.976008 0.614066 0.899080 -0.200938
C30   C     C_R   0.023991 0.385934 0.100920 -0.200937
C31   C     C_R   0.523006 0.114923 0.100758 -0.210433
C32   C     C_R   0.476995 0.885077 0.899242 -0.210433
C33   C     C_R   0.997766 0.461300 0.974923 -0.104353
C34   C     C_R   0.002236 0.538700 0.025077 -0.104352
C35   C     C_R   0.502631 0.961568 0.025160 -0.169920
C36   C     C_R   0.497370 0.038432 0.974840 -0.169921
C37   C     C_R   0.019249 0.651822 0.010071 0.733814
C38   C     C_R   0.980752 0.348178 0.989929 0.733816
C39   C     C_R   0.478292 0.151436 0.989528 0.780830
C40   C     C_R   0.521709 0.848565 0.010472 0.780830
C41   C     C_R   0.990147 0.689759 0.948831 0.091808
C42   C     C_R   0.009853 0.310240 0.051169 0.091806
C43   C     C_R   0.505930 0.190232 0.050443 0.074780
C44   C     C_R   0.494071 0.809768 0.949558 0.074779
H1    H     H_    0.073342 0.397764 0.260361 0.161318
H2    H     H_    0.926653 0.602235 0.739639 0.161318
H3    H     H_    0.424262 0.898141 0.739804 0.157250
H4    H     H_    0.575738 0.101859 0.260196 0.157250
C45   C     C_1   0.995009 0.533131 0.478075 -0.161232
C46   C     C_1   0.004991 0.466869 0.521925 -0.161231
C47   C     C_1   0.504930 0.033131 0.521923 -0.161079
C48   C     C_1   0.495069 0.966869 0.478077 -0.161079
N1    N     N_3   0.989213 0.806008 0.936964 -0.532697
H5    H     H_    0.115163 0.838998 0.951874 0.254739
H6    H     H_    0.885698 0.841695 0.964261 0.257147
N2    N     N_3   0.010785 0.193992 0.063036 -0.532702
H7    H     H_    0.884838 0.161002 0.048126 0.254741
H8    H     H_    0.114299 0.158304 0.035740 0.257147
N3    N     N_3   0.501768 0.307098 0.059656 -0.555184
H9    H     H_    0.400340 0.326296 0.092636 0.282725
H10   H     H_    0.630501 0.333290 0.076091 0.276997
N4    N     N_3   0.498233 0.692902 0.940344 -0.555184
H11   H     H_    0.599660 0.673704 0.907365 0.282726
H12   H     H_    0.369500 0.666710 0.923909 0.276997
F1    F     F_    0.875570 0.668615 0.132604 -0.574511
F2    F     F_    0.124434 0.331385 0.867396 -0.574511
F3    F     F_    0.624482 0.168261 0.867546 -0.576746
F4    F     F_    0.375519 0.831739 0.132454 -0.576746
F5    F     F_    0.907001 0.756063 0.822523 -0.644569
F6    F     F_    0.092994 0.243937 0.177476 -0.644568
F7    F     F_    0.595939 0.255709 0.178044 -0.689200
F8    F     F_    0.404062 0.744291 0.821956 -0.689200
F9    F     F_    0.080664 0.726148 0.052923 -0.589563
F10   F     F_    0.919339 0.273851 0.947076 -0.589563
F11   F     F_    0.415524 0.225036 0.946464 -0.564008
F12   F     F_    0.584477 0.774964 0.053536 -0.564009

loop_
_geom_bond_atom_site_label_1
_geom_bond_atom_site_label_2
_ccdc_geom_bond_type
O1    C5    A    
C19   H4    S    
C9    C21   A    
C45   C46   T    
O3    C7    A    
C10   C18   A    
C6    C48   S    
C11   C23   A    
C25   C33   A    
C33   C38   A    
C22   F1    S    
N1    H5    S    
C43   N3    S    
C35   C40   A    
C26   C30   A    
C36   C39   A    
C40   C44   A    
O20   V1    S    
O9    C4    A    
C7    C45   S    
C14   C18   A    
O10   C3    A    
O4    C8    A    
O11   C2    A    
N4    H12   S    
C44   N4    S    
C20   H3    S    
C23   F4    S    
C39   F11   S    
C28   C36   A    
C38   F10   S    
C15   C31   A    
O16   C8    A    
C16   C32   A    
C24   F3    S    
O2    C6    A    
C10   C22   A    
C11   C19   A    
C3    C10   S    
O5    C1    A    
O4    V1    S    
O9    V1    S    
C13   C29   A    
C34   C37   A    
O7    C3    A    
O15   V3    S    
C35   C36   A    
O8    C4    A    
O12   V4    S    
O19   V2    S    
C16   F8    S    
O5    V1    S    
N1    H6    S    
C39   C43   A    
C41   N1    S    
C38   C42   A    
O8    V4    S    
O7    V3    S    
C1    C12   S    
N2    H8    S    
C2    C11   S    
N4    H11   S    
C23   C27   A    
C32   C44   A    
O1    V4    S    
O13   C5    A    
O2    V3    S    
C26   C34   A    
O3    V2    S    
O15   C7    A    
C47   C48   T    
C4    C9    S    
O6    C2    A    
O10   V2    S    
C31   C43   A    
N3    H9    S    
C14   C30   A    
C21   C25   A    
C14   F6    S    
C13   F5    S    
C21   F2    S    
C15   F7    S    
O14   V2    S    
O6    V2    S    
C16   C20   A    
C12   C20   A    
C27   C35   A    
C29   C41   A    
O16   V4    S    
C5    C47   S    
N3    H10   S    
O14   C6    A    
O18   V3    S    
C37   F9    S    
N2    H7    S    
C15   C19   A    
C30   C42   A    
C42   N2    S    
C22   C26   A    
C9    C17   A    
C40   F12   S    
O13   V1    S    
C8    C46   S    
C33   C34   A    
O17   V4    S    
C25   C29   A    
C12   C24   A    
C27   C31   A    
C18   H1    S    
C13   C17   A    
O11   V3    S    
C37   C41   A    
C24   C28   A    
O12   C1    A    
C28   C32   A    
C17   H2    S    
