data_mof_unit_44952.cif
_audit_creation_date              2012-12-10T17:55:06-0500
_audit_creation_method            fapswitch 2.2
_symmetry_space_group_name_H-M    P1
_symmetry_Int_Tables_number       1
_space_group_crystal_system       triclinic
_cell_length_a                    8.771162
_cell_length_b                    10.783532
_cell_length_c                    9.605776
_cell_angle_alpha                 88.941046
_cell_angle_beta                  97.333495
_cell_angle_gamma                 91.905206
_cell_volume                      900.530717594

loop_
_atom_site_label
_atom_site_type_symbol
_atom_type_description
_atom_site_fract_x
_atom_site_fract_y
_atom_site_fract_z
_atom_type_partial_charge
C1    C     C_R   0.499841 0.262836 0.500970 0.776440
C2    C     C_R   0.500159 0.737164 0.499030 0.776439
C3    C     C_R   0.204542 0.499404 0.464513 0.767057
C4    C     C_R   0.795458 0.500596 0.535487 0.767057
C5    C     C_2   0.039585 0.496768 0.444821 0.319786
C6    C     C_2   0.960415 0.503232 0.555179 0.319785
C7    C     C_R   0.372426 0.062416 0.430105 0.412339
C8    C     C_R   0.627574 0.937584 0.569895 0.412340
C9    C     C_R   0.373357 0.933649 0.427237 0.406200
C10   C     C_R   0.626643 0.066351 0.572763 0.406201
C11   C     C_R   0.500928 0.871057 0.497322 -0.406433
C12   C     C_R   0.499073 0.128943 0.502678 -0.406433
C13   C     C_R   0.392842 0.431911 0.064753 0.706541
C14   C     C_R   0.607158 0.568089 0.935247 0.706541
C15   C     C_R   0.392065 0.430804 0.917405 0.324815
C16   C     C_R   0.607935 0.569196 0.082595 0.324816
Cu1   Cu    Cu3+1 0.500000 0.500020 0.640660 1.074213
Cu2   Cu    Cu3+1 0.500000 0.499980 0.359340 1.074214
N1    N     N_R   0.500040 0.500030 0.852080 -0.356807
N2    N     N_R   0.499960 0.499970 0.147920 -0.356807
O1    O     O_R   0.499990 0.319660 0.618740 -0.611393
O2    O     O_R   0.500010 0.680340 0.381260 -0.611391
O3    O     O_R   0.499990 0.319630 0.381170 -0.519521
O4    O     O_R   0.500010 0.680370 0.618830 -0.519522
O5    O     O_R   0.274840 0.500010 0.591370 -0.564140
O6    O     O_R   0.725160 0.499990 0.408630 -0.564139
O7    O     O_R   0.274830 0.499980 0.353800 -0.490310
O8    O     O_R   0.725170 0.500020 0.646200 -0.490310
F1    F     F_    0.968827 0.485881 0.310619 -0.576099
F2    F     F_    0.031173 0.514119 0.689381 -0.576099
O9    O     O_3   0.243059 0.118902 0.362965 -0.581269
H1    H     H_    0.239259 0.205351 0.394527 0.335213
O10   O     O_3   0.756942 0.881098 0.637035 -0.581271
H2    H     H_    0.760741 0.794648 0.605474 0.335214
O11   O     O_3   0.244436 0.873305 0.357991 -0.605381
H3    H     H_    0.244115 0.783795 0.381773 0.326232
O12   O     O_3   0.755564 0.126695 0.642009 -0.605382
H4    H     H_    0.755884 0.216205 0.618229 0.326233
F3    F     F_    0.286736 0.361505 0.124007 -0.535484
F4    F     F_    0.713264 0.638495 0.875993 -0.535485
O13   O     O_3   0.278166 0.358137 0.844664 -0.578231
H5    H     H_    0.308761 0.338695 0.753413 0.376231
O14   O     O_3   0.721834 0.641862 0.155336 -0.578231
H6    H     H_    0.691239 0.661305 0.246586 0.376231

loop_
_geom_bond_atom_site_label_1
_geom_bond_atom_site_label_2
_ccdc_geom_bond_type
C2    O2    A    
C4    O6    A    
O14   H6    S    
C1    O1    A    
O12   H4    S    
O13   H5    S    
Cu2   N2    S    
O9    H1    S    
Cu2   O6    S    
C13   C15   A    
C16   N2    A    
Cu1   O5    S    
C1    O3    A    
C3    O7    A    
Cu1   Cu2   S    
C15   N1    A    
C9    C11   A    
C16   O14   S    
C5    C6    D    
C1    C12   S    
C10   C12   A    
C10   O12   S    
C2    C11   S    
C4    C6    S    
C4    O8    A    
O10   H2    S    
C5    F1    S    
C8    O10   S    
C8    C11   A    
C2    O4    A    
C7    C12   A    
C14   C16   A    
C13   F3    S    
Cu1   O4    S    
C7    O9    S    
C14   F4    S    
Cu2   O3    S    
C7    C9    A    
C3    O5    A    
C15   O13   S    
C8    C10   A    
C9    O11   S    
C13   N2    A    
Cu1   N1    S    
Cu2   O2    S    
Cu1   O8    S    
C14   N1    A    
C6    F2    S    
Cu1   O1    S    
Cu2   O7    S    
O11   H3    S    
C3    C5    S    
