data_mof_unit_52284.cif
_audit_creation_date              2012-12-10T17:44:37-0500
_audit_creation_method            fapswitch 2.2
_symmetry_space_group_name_H-M    P1
_symmetry_Int_Tables_number       1
_space_group_crystal_system       triclinic
_cell_length_a                    9.947814
_cell_length_b                    10.669258
_cell_length_c                    15.198276
_cell_angle_alpha                 92.139997
_cell_angle_beta                  69.191535
_cell_angle_gamma                 90.726545
_cell_volume                      1506.81305188

loop_
_atom_site_label
_atom_site_type_symbol
_atom_type_description
_atom_site_fract_x
_atom_site_fract_y
_atom_site_fract_z
_atom_type_partial_charge
C1    C     C_R   0.505916 0.738549 0.489399 0.917001
C2    C     C_R   0.740703 0.445203 0.025028 0.104542
C3    C     C_R   0.596983 0.414249 0.079923 0.110435
C4    C     C_R   0.410760 0.492151 0.676021 0.892314
C5    C     C_R   0.835364 0.490153 0.068811 -0.058758
C6    C     C_R   0.787417 0.507696 0.166493 -0.096352
C7    C     C_R   0.549748 0.437809 0.177166 -0.159734
C8    C     C_R   0.294230 0.882483 0.429068 0.316382
C9    C     C_R   0.156380 0.935070 0.454078 0.293106
C10   C     C_R   0.120994 0.041877 0.514165 0.385142
C11   C     C_R   0.227583 0.104303 0.538341 -0.153427
C12   C     C_R   0.437331 0.376713 0.898006 0.019182
C13   C     C_R   0.369159 0.056911 0.506921 -0.012604
C14   C     C_R   0.393362 0.935162 0.468188 -0.052212
C15   C     C_R   0.513146 0.871021 0.474478 -0.062775
C16   C     C_R   0.494976 0.260055 0.506838 0.900184
C17   C     C_R   0.625976 0.936725 0.488986 -0.131979
C18   C     C_R   0.616615 0.064080 0.502817 -0.061449
C19   C     C_R   0.489214 0.125495 0.511640 -0.088490
C20   C     C_R   0.799998 0.672797 0.617637 -0.213594
C21   C     C_R   0.838671 0.756575 0.677144 0.331755
C22   C     C_R   0.978085 0.754196 0.679046 0.353282
C23   C     C_R   0.301232 0.319338 0.943871 -0.092699
C24   C     C_R   0.076924 0.667759 0.620599 -0.288478
C25   C     C_R   0.041932 0.584582 0.558046 0.072792
C26   C     C_R   0.898582 0.586217 0.556863 0.120470
C27   C     C_R   0.957930 0.419650 0.443378 0.420390
C28   C     C_R   0.589533 0.498198 0.323555 0.924826
C29   C     C_R   0.100800 0.419167 0.443764 0.394492
C30   C     C_R   0.362030 0.446287 0.772466 -0.121569
C31   C     C_R   0.643671 0.483074 0.220796 -0.072881
C32   C     C_R   0.202922 0.314353 0.894007 0.420695
C33   C     C_R   0.234576 0.378220 0.809759 -0.251760
C34   C     C_R   0.545557 0.375157 0.937455 -0.061559
C35   C     C_R   0.460222 0.446532 0.818189 -0.082889
C36   C     C_R   0.502508 0.368187 0.035117 -0.031776
C37   C     C_R   0.368982 0.311799 0.083174 -0.224586
C38   C     C_R   0.273898 0.275772 0.036879 0.430621
C39   C     C_R   0.694160 0.384832 0.883632 0.347711
C40   C     C_R   0.789055 0.426108 0.927457 -0.183909
Cl1   Cl    Cl    0.349924 0.767842 0.336074 -0.508191
Cl2   Cl    Cl    0.028752 0.867116 0.410702 -0.543026
Cl3   Cl    Cl    0.946759 0.104673 0.555492 -0.447075
Cl4   Cl    Cl    0.911210 0.315957 0.366281 -0.462444
Cl5   Cl    Cl    0.706622 0.860361 0.750730 -0.470178
Cl6   Cl    Cl    0.225126 0.310422 0.370098 -0.536527
Cl7   Cl    Cl    0.043691 0.225861 0.924669 -0.457886
H1    H     H_    0.946378 0.511122 0.027559 0.155141
H2    H     H_    0.161433 0.370657 0.771312 0.211148
H3    H     H_    0.556738 0.502498 0.790927 0.190139
H4    H     H_    0.342105 0.287644 0.155616 0.236428
H5    H     H_    0.062628 0.081394 0.232424 0.426561
H6    H     H_    0.961742 0.879903 0.908113 0.420628
H7    H     H_    0.637673 0.146167 0.799058 0.398133
H8    H     H_    0.720063 0.889841 0.491857 0.228102
H9    H     H_    0.197435 0.187746 0.583591 0.221317
H10   H     H_    0.708684 0.114283 0.507627 0.253467
H11   H     H_    0.690485 0.675827 0.623128 0.227967
H12   H     H_    0.438446 0.424420 0.219709 0.203211
H13   H     H_    0.179647 0.665776 0.627089 0.247498
H14   H     H_    0.861980 0.541567 0.199355 0.184836
H15   H     H_    0.901387 0.440036 0.885517 0.184685
N1    N     N_R   0.856800 0.501200 0.500850 -0.142918
N2    N     N_R   0.142390 0.501280 0.500880 -0.144046
O1    O     O_R   0.385310 0.683220 0.500000 -0.609482
O2    O     O_2   0.121985 0.063424 0.045090 -0.211478
O3    O     O_3   0.145748 0.136859 0.202483 -0.476129
O4    O     O_2   0.187665 0.841818 0.739075 -0.310755
O5    O     O_2   0.997332 0.988131 0.743436 -0.173517
O6    O     O_3   0.934886 0.816238 0.868139 -0.500137
O7    O     O_2   0.801046 0.412085 0.697938 -0.323997
O8    O     O_2   0.906567 0.248282 0.759594 -0.204699
O9    O     O_3   0.653885 0.208753 0.749811 -0.470628
O10   O     O_R   0.614640 0.683250 0.500010 -0.647917
O11   O     O_R   0.319840 0.499980 0.632240 -0.637957
O12   O     O_R   0.549160 0.500000 0.632250 -0.600983
O13   O     O_R   0.385360 0.316750 0.499990 -0.596759
O14   O     O_R   0.614690 0.316780 0.500000 -0.556886
O15   O     O_R   0.450840 0.500000 0.367750 -0.549031
O16   O     O_R   0.680160 0.500020 0.367760 -0.583518
O17   O     O_2   0.988532 0.252016 0.127089 -0.239455
S1    S     S_3+6 0.126954 0.180380 0.102164 0.110034
S2    S     S_3+6 0.029721 0.854586 0.756833 0.088738
S3    S     S_3+6 0.768590 0.313420 0.769774 0.070772
Zn1   Zn    Zn3+2 0.346880 0.499980 0.499990 1.034394
Zn2   Zn    Zn3+2 0.653120 0.500020 0.500010 1.060578

loop_
_geom_bond_atom_site_label_1
_geom_bond_atom_site_label_2
_ccdc_geom_bond_type
C27   C29   A    
O17   S1    D    
C12   C23   A    
C9    Cl2   S    
C30   C35   A    
C1    O10   A    
C6    H14   S    
C36   C37   A    
C39   S3    S    
C16   O13   A    
C3    C7    A    
C5    C6    A    
C37   H4    S    
C33   H2    S    
C40   H15   S    
C18   C19   A    
C28   O15   A    
C4    O11   A    
O16   Zn2   S    
C27   Cl4   S    
O11   Zn1   S    
C8    C9    A    
C1    O1    A    
C1    C15   S    
C9    C10   A    
C17   H8    S    
O9    S3    S    
C16   O14   A    
O14   Zn2   S    
C6    C31   A    
C29   N2    A    
O13   Zn1   S    
C13   C14   A    
C38   S1    S    
H6    O6    S    
C7    H12   S    
C21   Cl5   S    
C5    H1    S    
C7    C31   A    
C13   C19   A    
C34   C39   A    
C24   C25   A    
C39   C40   A    
C25   C26   A    
O10   Zn2   S    
C25   N2    A    
C26   N1    A    
C37   C38   A    
O5    S2    D    
O2    S1    D    
H7    O9    S    
C18   H10   S    
C24   H13   S    
C35   H3    S    
C17   C18   A    
C8    Cl1   S    
C12   C35   A    
O6    S2    S    
O8    S3    D    
H5    O3    S    
C27   N1    A    
N1    Zn2   S    
C32   Cl7   S    
C22   C24   A    
C2    C5    A    
C20   H11   S    
O12   Zn2   S    
N2    Zn1   S    
O15   Zn1   S    
O7    S3    D    
C15   C17   A    
C8    C14   A    
C30   C33   A    
C10   Cl3   S    
O4    S2    D    
C28   C31   S    
C23   C32   A    
O1    Zn1   S    
C23   C38   A    
C29   Cl6   S    
C32   C33   A    
C2    C3    A    
C22   S2    S    
C11   C13   A    
C20   C26   A    
C3    C36   A    
C16   C19   S    
C34   C36   A    
C28   O16   A    
C4    O12   A    
C10   C11   A    
C2    C40   A    
C20   C21   A    
O3    S1    S    
C14   C15   A    
C21   C22   A    
C12   C34   A    
C4    C30   S    
C11   H9    S    
