data_mof_unit_59654.cif
_audit_creation_date              2012-12-10T19:45:50-0500
_audit_creation_method            fapswitch 2.2
_symmetry_space_group_name_H-M    P1
_symmetry_Int_Tables_number       1
_space_group_crystal_system       triclinic
_cell_length_a                    10.686953
_cell_length_b                    14.950341
_cell_length_c                    14.364883
_cell_angle_alpha                 90.411238
_cell_angle_beta                  105.223373
_cell_angle_gamma                 92.898324
_cell_volume                      2211.26052371

loop_
_atom_site_label
_atom_site_type_symbol
_atom_type_description
_atom_site_fract_x
_atom_site_fract_y
_atom_site_fract_z
_atom_type_partial_charge
C1    C     C_R   0.498392 0.328345 0.499590 0.893278
C2    C     C_R   0.467263 0.427170 0.797841 0.100056
C3    C     C_R   0.558663 0.587683 0.123291 0.262614
C4    C     C_R   0.487970 0.434054 0.900645 0.313395
C5    C     C_R   0.478160 0.529276 0.050409 0.021748
C6    C     C_R   0.486816 0.519468 0.944784 -0.012309
C7    C     C_R   0.258607 0.501766 0.458481 0.997065
C8    C     C_R   0.741214 0.497325 0.541640 0.972949
C9    C     C_2   0.119012 0.496459 0.431813 -0.361118
C10   C     C_2   0.880580 0.503081 0.569367 -0.352224
C11   C     C_2   0.057886 0.526029 0.494844 0.309348
C12   C     C_R   0.497532 0.672135 0.499900 0.912252
C13   C     C_2   0.943164 0.473210 0.507614 0.287562
C14   C     C_R   0.572397 0.096290 0.571991 -0.133891
C15   C     C_R   0.461927 0.906096 0.413332 -0.114998
C16   C     C_R   0.580115 0.188727 0.570932 -0.134820
C17   C     C_R   0.468747 0.814115 0.412773 -0.170401
C18   C     C_R   0.492052 0.232829 0.499199 -0.017385
C19   C     C_R   0.487304 0.768099 0.499489 -0.032143
C20   C     C_R   0.393447 0.185667 0.430741 -0.109071
C21   C     C_R   0.492175 0.814096 0.585835 -0.075346
C22   C     C_R   0.384912 0.093279 0.432052 -0.141171
C23   C     C_R   0.475179 0.048586 0.502136 0.087213
C24   C     C_R   0.484365 0.905891 0.586230 -0.150909
C25   C     C_3   0.717551 0.588594 0.286545 -0.281743
C26   C     C_3   0.730459 0.669869 0.355275 -0.599432
C27   C     C_3   0.405376 0.339641 0.747978 -0.327947
C28   C     C_3   0.272765 0.350724 0.676473 -0.679663
C29   C     C_R   0.471623 0.952017 0.500322 0.087354
C30   C     C_R   0.398367 0.466224 0.082598 -0.284717
C31   C     C_R   0.497426 0.592232 0.885298 -0.278211
C32   C     C_R   0.410528 0.450194 0.181443 0.519629
C33   C     C_R   0.534259 0.579875 0.798799 0.471802
C34   C     C_R   0.581101 0.563805 0.223022 0.101510
H1    H     H_    0.924914 0.551326 0.626567 0.215035
H2    H     H_    0.489485 0.941025 0.653480 0.164996
H3    H     H_    0.330140 0.424857 0.028531 0.231821
H4    H     H_    0.495255 0.659431 0.909250 0.267783
H5    H     H_    0.998607 0.249388 0.427270 0.395772
H6    H     H_    0.237483 0.663513 0.702155 0.385805
H7    H     H_    0.790076 0.640501 0.062468 0.367542
H8    H     H_    0.645441 0.320527 0.122022 0.418155
H9    H     H_    0.170672 0.315361 0.266589 0.377026
H10   H     H_    0.797127 0.694855 0.705136 0.387742
H11   H     H_    0.739960 0.650963 0.430752 0.233551
H12   H     H_    0.072916 0.448693 0.374484 0.208098
H13   H     H_    0.820606 0.710746 0.356347 0.263757
H14   H     H_    0.647151 0.712901 0.331922 0.257346
H15   H     H_    0.762507 0.529727 0.323553 0.238858
H16   H     H_    0.783947 0.602765 0.239860 0.194159
H17   H     H_    0.279507 0.345811 0.601133 0.269480
H18   H     H_    0.202765 0.295755 0.684761 0.251429
H19   H     H_    0.231357 0.415108 0.688708 0.276557
H20   H     H_    0.473182 0.304303 0.716478 0.233787
H21   H     H_    0.385230 0.291889 0.801471 0.244757
H22   H     H_    0.643367 0.062038 0.625904 0.162883
H23   H     H_    0.452207 0.941548 0.346498 0.169202
H24   H     H_    0.655388 0.225782 0.624813 0.177945
H25   H     H_    0.459806 0.779467 0.344750 0.176162
H26   H     H_    0.321840 0.220125 0.377995 0.190819
H27   H     H_    0.502381 0.779487 0.653045 0.205316
H28   H     H_    0.308104 0.056731 0.378958 0.161570
N1    N     N_R   0.500000 0.499980 0.252470 -0.161733
N2    N     N_R   0.500000 0.500020 0.747530 -0.148966
O1    O     O_R   0.500010 0.369070 0.579480 -0.664378
O2    O     O_2   0.834833 0.373960 0.345433 -0.303157
O3    O     O_3   0.028995 0.305032 0.466214 -0.594974
O4    O     O_2   0.208572 0.680504 0.515708 -0.321366
O5    O     O_2   0.001767 0.687049 0.556702 -0.317063
O6    O     O_3   0.187578 0.607326 0.675210 -0.561642
O7    O     O_2   0.510737 0.747886 0.041469 -0.246764
O8    O     O_2   0.695864 0.750376 0.179224 -0.284287
O9    O     O_3   0.723088 0.678777 0.024231 -0.441543
O10   O     O_2   0.620582 0.283899 0.922269 -0.262188
O11   O     O_2   0.430201 0.283530 0.986634 -0.264631
O12   O     O_R   0.499990 0.630930 0.420520 -0.651807
O13   O     O_3   0.641056 0.373639 0.080697 -0.529356
O14   O     O_2   0.246074 0.307879 0.114080 -0.263662
O15   O     O_2   0.434252 0.284627 0.248075 -0.253580
O16   O     O_3   0.239356 0.364303 0.282125 -0.577166
O17   O     O_2   0.657033 0.742340 0.826229 -0.264605
O18   O     O_2   0.787331 0.611919 0.867348 -0.242095
O19   O     O_3   0.717320 0.654885 0.690846 -0.554438
O20   O     O_R   0.500010 0.369060 0.420520 -0.507448
O21   O     O_R   0.499990 0.630940 0.579480 -0.555813
O22   O     O_R   0.317810 0.500010 0.549800 -0.587790
O23   O     O_R   0.682190 0.499990 0.450200 -0.609806
O24   O     O_R   0.317810 0.500000 0.390840 -0.564099
O25   O     O_R   0.682190 0.500000 0.609160 -0.544125
O26   O     O_2   0.801792 0.315322 0.496605 -0.299478
S1    S     S_3+6 0.896186 0.364787 0.451501 0.011659
S2    S     S_3+6 0.114208 0.629636 0.559719 0.007524
S3    S     S_3+6 0.622034 0.694234 0.093764 0.042939
S4    S     S_3+6 0.544087 0.339858 0.972542 0.041824
S5    S     S_3+6 0.331980 0.349074 0.206113 0.075304
S6    S     S_3+6 0.674518 0.648692 0.794766 0.079676
Zn1   Zn    Zn3+2 0.500000 0.500010 0.606140 1.049290
Zn2   Zn    Zn3+2 0.500000 0.499990 0.393860 1.062112

loop_
_geom_bond_atom_site_label_1
_geom_bond_atom_site_label_2
_ccdc_geom_bond_type
C14   H22   S    
C28   H18   S    
O10   S4    D    
O9    S3    S    
H10   O19   S    
C27   H20   S    
C1    O20   A    
C1    C18   S    
C24   H2    S    
H6    O6    S    
C12   O21   A    
C23   C29   S    
C19   C21   A    
N1    Zn2   S    
C5    C6    S    
C28   H17   S    
C27   H21   S    
C7    O22   A    
O12   Zn2   S    
O13   S4    S    
C15   C17   A    
O22   Zn1   S    
C24   C29   A    
C26   H11   S    
C17   C19   A    
C25   H16   S    
C11   S2    S    
C1    O1    A    
C31   C33   A    
C2    C27   S    
C20   H26   S    
O5    S2    D    
C21   H27   S    
C26   H14   S    
C25   C34   S    
O23   Zn2   S    
C6    C31   A    
C9    H12   S    
C13   S1    S    
C15   H23   S    
C2    N2    A    
C15   C29   A    
O18   S6    D    
C4    C6    A    
O17   S6    D    
C3    C34   A    
C25   C26   S    
C30   H3    S    
O25   Zn1   S    
C14   C23   A    
C2    C4    A    
O15   S5    D    
C22   H28   S    
C7    O24   A    
O14   S5    D    
O3    S1    S    
C3    S3    S    
C16   H24   S    
O16   S5    S    
C9    C11   D    
C10   H1    S    
C26   H13   S    
C17   H25   S    
C4    S4    S    
O8    S3    D    
C8    C10   S    
N2    Zn1   S    
C20   C22   A    
C12   O12   A    
C14   C16   A    
C33   S6    S    
C5    C30   A    
C7    C9    S    
H5    O3    S    
O6    S2    S    
C32   N1    A    
C3    C5    A    
C10   C13   D    
C28   H19   S    
O2    S1    D    
O7    S3    D    
C31   H4    S    
C8    O23   A    
O20   Zn2   S    
H9    O16   S    
O1    Zn1   S    
C30   C32   A    
C11   C13   S    
O26   S1    D    
C33   N2    A    
O19   S6    S    
C12   C19   S    
C34   N1    A    
O4    S2    D    
C18   C20   A    
C25   H15   S    
O21   Zn1   S    
H7    O9    S    
C32   S5    S    
H8    O13   S    
C16   C18   A    
C21   C24   A    
C27   C28   S    
C22   C23   A    
C8    O25   A    
O24   Zn2   S    
O11   S4    D    
