data_mof_unit_48902.cif
_audit_creation_date              2013-03-05T15:52:43-0500
_audit_creation_method            fapswitch 2.2
_symmetry_space_group_name_H-M    P1
_symmetry_Int_Tables_number       1
_space_group_crystal_system       triclinic
_cell_length_a                    9.930535
_cell_length_b                    10.669729
_cell_length_c                    13.177235
_cell_angle_alpha                 90.303468
_cell_angle_beta                  69.987551
_cell_angle_gamma                 89.091584
_cell_volume                      1311.65286907

loop_
_atom_site_label
_atom_site_type_symbol
_atom_site_description
_atom_site_fract_x
_atom_site_fract_y
_atom_site_fract_z
_atom_type_partial_charge
O1    O     O_R   0.385310 0.683220 0.500000 -0.640782
O2    O     O_R   0.614640 0.683250 0.500010 -0.619447
C1    C     C_R   0.500915 0.738947 0.495446 0.884876
O3    O     O_R   0.328400 0.499950 0.653610 -0.624982
O4    O     O_R   0.557730 0.499970 0.653620 -0.643040
C2    C     C_R   0.420364 0.496482 0.704023 0.876170
Zn1   Zn    Zn3+2 0.346880 0.499980 0.499990 0.940865
Zn2   Zn    Zn3+2 0.653120 0.500020 0.500010 0.988404
O5    O     O_R   0.385360 0.316750 0.499990 -0.612677
O6    O     O_R   0.614690 0.316780 0.500000 -0.578607
O7    O     O_R   0.442270 0.500030 0.346380 -0.633727
O8    O     O_R   0.671600 0.500050 0.346390 -0.584254
C3    C     C_R   0.502253 0.260315 0.498022 0.891769
C4    C     C_R   0.579751 0.500160 0.296416 0.843984
C5    C     C_R   0.769930 0.369507 0.021425 -0.145060
H1    H     H_    0.822386 0.379659 0.165928 0.168794
H2    H     H_    0.771550 0.285326 0.831251 0.181142
H3    H     H_    0.862608 0.310588 0.979943 0.150188
C6    C     C_R   0.628640 0.485228 0.180452 -0.057269
C7    C     C_R   0.239878 0.558183 0.879203 -0.283672
C8    C     C_R   0.204574 0.584875 0.988841 0.531142
C9    C     C_R   0.303263 0.557148 0.040146 -0.298949
C10   C     C_R   0.436332 0.496482 0.983479 0.018383
C11   C     C_R   0.462067 0.455404 0.876663 0.057540
C12   C     C_R   0.544412 0.473768 0.029324 0.112183
C13   C     C_R   0.666466 0.397388 0.973943 0.132297
C14   C     C_R   0.681394 0.346602 0.873509 -0.204526
C15   C     C_R   0.580354 0.374692 0.826034 -0.093176
C16   C     C_R   0.534484 0.524238 0.129174 -0.272015
C17   C     C_R   0.749166 0.410910 0.125972 -0.100498
C18   C     C_R   0.369997 0.497232 0.822056 -0.177340
H4    H     H_    0.449558 0.589210 0.172119 0.149917
H5    H     H_    0.168626 0.589438 0.837607 0.198267
H6    H     H_    0.271435 0.581527 0.124663 0.175196
H7    H     H_    0.595232 0.331145 0.749270 0.233163
H8    H     H_    0.565052 0.880458 0.630092 0.168362
C19   C     C_R   0.445384 0.870974 0.320365 -0.151610
H9    H     H_    0.444518 0.769844 0.315987 0.143679
C20   C     C_R   0.420986 0.937574 0.237370 -0.109717
H10   H     H_    0.400041 0.887844 0.172639 0.157302
C21   C     C_R   0.425851 0.067814 0.236754 -0.120415
H11   H     H_    0.408977 0.119341 0.171418 0.153464
C22   C     C_R   0.454707 0.131941 0.319293 -0.161055
H12   H     H_    0.462116 0.232747 0.313343 0.141719
C23   C     C_R   0.477401 0.066082 0.405334 0.068840
C24   C     C_R   0.473146 0.934590 0.405457 0.107946
C25   C     C_R   0.501819 0.870820 0.489404 -0.157908
C26   C     C_R   0.539671 0.932379 0.568109 -0.251933
C27   C     C_R   0.546674 0.060129 0.567887 0.341481
C28   C     C_R   0.509775 0.127331 0.489531 -0.244261
H13   H     H_    0.932695 0.362604 0.377929 0.147880
C29   C     C_R   0.795279 0.663293 0.641620 -0.142418
H14   H     H_    0.687113 0.673306 0.645442 0.197596
C30   C     C_R   0.832902 0.740345 0.712758 -0.159194
H15   H     H_    0.753657 0.803022 0.767190 0.173487
C31   C     C_R   0.971783 0.737649 0.713700 -0.135371
H16   H     H_    0.000841 0.797844 0.769045 0.182174
C32   C     C_R   0.074095 0.658512 0.642939 -0.160102
H17   H     H_    0.179034 0.662479 0.647142 0.202514
C33   C     C_R   0.039641 0.578613 0.570342 0.157996
C34   C     C_R   0.895352 0.579645 0.569946 0.174612
N1    N     N_R   0.856860 0.501200 0.500990 -0.116474
C35   C     C_R   0.960347 0.424416 0.432830 -0.034639
H18   H     H_    0.182955 0.362893 0.377648 0.149509
C36   C     C_R   0.103386 0.424634 0.432696 -0.089596
N2    N     N_R   0.142450 0.501280 0.501020 -0.122808
N3    N     N_R   0.592559 0.119743 0.647574 0.178186
O9    O     O_R   0.524302 0.097732 0.749171 -0.431349
O10   O     O_R   0.723156 0.160038 0.618912 -0.406724
S1    S     S_3+6 0.041626 0.662757 0.060376 -0.005953
O11   O     O_2   0.978178 0.606443 0.170517 -0.322874
O12   O     O_2   0.070763 0.798777 0.072508 -0.292788
O13   O     O_3   0.925897 0.650387 0.992947 -0.578956
H19   H     H_    0.837096 0.693793 0.039390 0.385140

loop_
_geom_bond_atom_site_label_1
_geom_bond_atom_site_label_2
_geom_bond_distance
_ccdc_geom_bond_type
C5    H3    1.083832 S    
C35   C36   1.419884 A    
O13   H19   0.990622 S    
C20   C21   1.391205 A    
C23   C24   1.404281 A    
Zn1   O7    1.918900 S    
C13   C14   1.386604 A    
C19   H9    1.080597 S    
C16   H4    1.078293 S    
C29   C34   1.413048 A    
O4    C2    1.298111 A    
O7    C4    1.297014 A    
H1    C17   1.083177 S    
C31   H16   1.082870 S    
C21   H11   1.082777 S    
O5    C3    1.291438 A    
C30   H15   1.082983 S    
C15   H7    1.073065 S    
C10   C11   1.407933 A    
S1    O11   1.503258 D    
C2    C18   1.461726 S    
C33   N2    1.372798 A    
C8    C9    1.396940 A    
C21   C22   1.394583 A    
O3    Zn1   1.969050 S    
C29   C30   1.391225 A    
C12   C16   1.390286 A    
C9    H6    1.077633 S    
C30   C31   1.383308 A    
N3    O9    1.301608 A    
H2    C14   1.084178 S    
H13   C35   1.081851 S    
O3    C2    1.300430 A    
C20   H10   1.082818 S    
C5    C13   1.402828 A    
C32   H17   1.063819 S    
C33   C34   1.434529 A    
O1    C1    1.284505 A    
C22   H12   1.080688 S    
N1    C35   1.366655 A    
C25   C26   1.384107 A    
Zn2   O8    1.969052 S    
S1    O13   1.682313 S    
C22   C23   1.417159 A    
C7    H5    1.082683 S    
C26   C27   1.365903 A    
O8    C4    1.294869 A    
C27   C28   1.404618 A    
C6    C16   1.388221 A    
C29   H14   1.061609 S    
C5    C17   1.389894 A    
Zn1   O5    1.986056 S    
C24   C25   1.408939 A    
C27   N3    1.429823 S    
O1    Zn1   1.997956 S    
C4    C6    1.443363 S    
O2    Zn2   1.986055 S    
C11   C15   1.411370 A    
O6    C3    1.285079 A    
O4    Zn2   1.918900 S    
C8    S1    1.761414 S    
H18   C36   1.081953 S    
O2    C1    1.287556 A    
C12   C13   1.422240 A    
C11   C18   1.411972 A    
C19   C20   1.394212 A    
Zn1   N2    2.025322 S    
C23   C28   1.415795 A    
C1    C25   1.409717 S    
C31   C32   1.389501 A    
H8    C26   1.085718 S    
C10   C12   1.418719 A    
C34   N1    1.382792 A    
C3    C28   1.421487 S    
C7    C8    1.391785 A    
Zn2   O6    1.997957 S    
C36   N2    1.367910 A    
C14   C15   1.382041 A    
C9    C10   1.419558 A    
S1    O12   1.502682 D    
N3    O10   1.301382 A    
C19   C24   1.415441 A    
C6    C17   1.397315 A    
C32   C33   1.408407 A    
Zn2   N1    2.027939 S    
C7    C18   1.400652 A    
