data_mof_unit_29544.cif
_audit_creation_date              2012-10-26T17:11:10-0400
_audit_creation_method            fapswitch 2.2
_symmetry_space_group_name_H-M    P1
_symmetry_Int_Tables_number       1
_space_group_crystal_system       triclinic
_cell_length_a                    27.881905
_cell_length_b                    18.7672
_cell_length_c                    16.808956
_cell_angle_alpha                 89.775481
_cell_angle_beta                  62.836668
_cell_angle_gamma                 89.992481
_cell_volume                      7825.39784237

loop_
_atom_site_label
_atom_site_type_symbol
_atom_type_description
_atom_site_fract_x
_atom_site_fract_y
_atom_site_fract_z
_atom_type_partial_charge
C1    C     C_R   0.296842 0.732145 0.328911 0.857799
C2    C     C_R   0.708375 0.278281 0.667947 0.850472
C3    C     C_R   0.703353 0.731919 0.671415 0.824136
C4    C     C_R   0.292761 0.275667 0.330709 0.870696
C5    C     C_R   0.796843 0.232146 0.328911 0.857797
C6    C     C_R   0.208376 0.778282 0.667946 0.850459
C7    C     C_R   0.203354 0.231917 0.671415 0.824116
C8    C     C_R   0.792759 0.775670 0.330711 0.870681
C9    C     C_R   0.543011 0.873405 0.523169 -0.243355
C10   C     C_R   0.464791 0.129257 0.453100 -0.303343
C11   C     C_R   0.470104 0.875560 0.442023 -0.248186
C12   C     C_R   0.538335 0.128362 0.535518 -0.301353
C13   C     C_R   0.043011 0.373404 0.523174 -0.243183
C14   C     C_R   0.964792 0.629256 0.453102 -0.303343
C15   C     C_R   0.970106 0.375557 0.442025 -0.248213
C16   C     C_R   0.038335 0.628362 0.535522 -0.301353
C17   C     C_R   0.206442 0.745962 0.967403 -0.126407
C18   C     C_R   0.766572 0.208573 0.060504 -0.130371
C19   C     C_R   0.801926 0.732788 0.025019 -0.126731
C20   C     C_R   0.242233 0.192751 0.931149 -0.128528
C21   C     C_R   0.706441 0.245960 0.967405 -0.126403
C22   C     C_R   0.266574 0.708578 0.060500 -0.130373
C23   C     C_R   0.301936 0.232774 0.025011 -0.126733
C24   C     C_R   0.742222 0.692771 0.931159 -0.128528
C25   C     C_R   0.246701 0.692547 0.934551 0.448092
C26   C     C_R   0.714667 0.239843 0.105855 0.438998
C27   C     C_R   0.764273 0.675827 0.055636 0.454840
C28   C     C_R   0.293444 0.226565 0.886337 0.442653
C29   C     C_R   0.746700 0.192543 0.934554 0.448090
C30   C     C_R   0.214669 0.739846 0.105852 0.438997
C31   C     C_R   0.264289 0.175806 0.055621 0.454846
C32   C     C_R   0.793435 0.726577 0.886345 0.442651
C33   C     C_R   0.283304 0.687379 0.970352 0.096413
C34   C     C_R   0.691402 0.271083 0.055452 0.089741
C35   C     C_R   0.727970 0.667074 0.019266 0.093442
C36   C     C_R   0.316330 0.258389 0.937093 0.089130
C37   C     C_R   0.783301 0.187373 0.970356 0.096411
C38   C     C_R   0.191402 0.771085 0.055451 0.089735
C39   C     C_R   0.227988 0.167044 0.019250 0.093435
C40   C     C_R   0.816324 0.758399 0.937099 0.089129
C41   C     C_R   0.132138 0.808515 0.945755 -0.321594
C42   C     C_R   0.840871 0.144164 0.078957 -0.312661
C43   C     C_R   0.872209 0.803436 0.051403 -0.315498
C44   C     C_R   0.164071 0.134451 0.914220 -0.334958
C45   C     C_R   0.632138 0.308515 0.945756 -0.321595
C46   C     C_R   0.340871 0.644166 0.078953 -0.312663
C47   C     C_R   0.372214 0.303430 0.051398 -0.315496
C48   C     C_R   0.664066 0.634463 0.914226 -0.334946
C49   C     C_R   0.117221 0.851899 0.892713 -0.124434
C50   C     C_R   0.878138 0.139887 0.112995 -0.157206
C51   C     C_R   0.883618 0.849839 0.106271 -0.130630
C52   C     C_R   0.123668 0.137960 0.886303 -0.121513
C53   C     C_R   0.617221 0.351899 0.892714 -0.124433
C54   C     C_R   0.378135 0.639883 0.112995 -0.157197
C55   C     C_R   0.383619 0.349836 0.106268 -0.130621
C56   C     C_R   0.623666 0.637963 0.886304 -0.121513
C57   C     C_R   0.146494 0.849039 0.799390 0.143363
C58   C     C_R   0.866824 0.173633 0.194388 0.137250
C59   C     C_R   0.851996 0.846617 0.199370 0.159657
C60   C     C_R   0.132163 0.179002 0.810978 0.147267
C61   C     C_R   0.646495 0.349039 0.799391 0.143363
C62   C     C_R   0.366818 0.673623 0.194392 0.137245
C63   C     C_R   0.351996 0.346613 0.199367 0.159666
C64   C     C_R   0.632162 0.679001 0.810974 0.147246
C65   C     C_R   0.188482 0.800109 0.761587 -0.251684
C66   C     C_R   0.821301 0.217386 0.232734 -0.232979
C67   C     C_R   0.813866 0.793116 0.235073 -0.239054
C68   C     C_R   0.180349 0.216944 0.768130 -0.269436
C69   C     C_R   0.688481 0.300107 0.761588 -0.251685
C70   C     C_R   0.321299 0.717382 0.232734 -0.232981
C71   C     C_R   0.313870 0.293108 0.235069 -0.239052
C72   C     C_R   0.680345 0.716948 0.768130 -0.269447
C73   C     C_R   0.213353 0.776838 0.813622 0.491301
C74   C     C_R   0.796258 0.240016 0.180635 0.481908
C75   C     C_R   0.791974 0.764225 0.181056 0.471260
C76   C     C_R   0.209729 0.232342 0.815885 0.499187
C77   C     C_R   0.713352 0.276835 0.813623 0.491303
C78   C     C_R   0.296260 0.740017 0.180633 0.481924
C79   C     C_R   0.291981 0.264211 0.181050 0.471253
C80   C     C_R   0.709722 0.732353 0.815889 0.499193
C81   C     C_R   0.183377 0.776132 0.908543 0.044343
C82   C     C_R   0.801460 0.197803 0.107079 0.040155
C83   C     C_R   0.822812 0.765702 0.086091 0.047915
C84   C     C_R   0.205416 0.186158 0.886425 0.040560
C85   C     C_R   0.683377 0.276131 0.908544 0.044341
C86   C     C_R   0.301461 0.697806 0.107075 0.040165
C87   C     C_R   0.322819 0.265691 0.086084 0.047922
C88   C     C_R   0.705408 0.686172 0.886432 0.040558
C89   C     C_R   0.195969 0.632038 0.530492 0.864914
C90   C     C_R   0.804384 0.368016 0.469276 0.794725
C91   C     C_R   0.804166 0.631972 0.469568 0.842664
C92   C     C_R   0.196038 0.368146 0.529868 0.791691
C93   C     C_R   0.695969 0.132039 0.530492 0.864928
C94   C     C_R   0.304383 0.868016 0.469278 0.794705
C95   C     C_R   0.304166 0.131973 0.469567 0.842665
C96   C     C_R   0.696038 0.868146 0.529868 0.791732
C97   C     C_R   0.926744 0.902797 0.066790 0.832091
C98   C     C_R   0.075502 0.093637 0.931011 0.873125
C99   C     C_R   0.072927 0.902583 0.933614 0.847948
C100  C     C_R   0.924852 0.093843 0.068786 0.849436
C101  C     C_R   0.426744 0.402797 0.066790 0.832088
C102  C     C_R   0.575501 0.593638 0.931011 0.873122
C103  C     C_R   0.572927 0.402583 0.933614 0.847947
C104  C     C_R   0.424851 0.593840 0.068787 0.849454
C105  C     C_R   0.047325 0.501542 0.511397 0.028153
C106  C     C_R   0.960034 0.501477 0.468020 0.031018
C107  C     C_R   0.547326 0.001542 0.511392 0.028175
C108  C     C_R   0.460033 0.001478 0.468021 0.031018
C109  C     C_R   0.023717 0.566545 0.504944 0.028497
C110  C     C_R   0.984757 0.437139 0.471952 0.004593
C111  C     C_R   0.981858 0.566608 0.478460 0.028619
C112  C     C_R   0.026628 0.436712 0.497890 0.000418
C113  C     C_R   0.523717 0.066546 0.504940 0.028493
C114  C     C_R   0.484755 0.937141 0.471951 0.004569
C115  C     C_R   0.481857 0.066609 0.478458 0.028621
C116  C     C_R   0.526628 0.936713 0.497887 0.000420
C117  C     C_R   0.112753 0.435723 0.544238 -0.059187
C118  C     C_R   0.890577 0.565855 0.444690 -0.007431
C119  C     C_R   0.891528 0.434847 0.443382 -0.058391
C120  C     C_R   0.112239 0.565712 0.546384 -0.016896
C121  C     C_R   0.612754 0.935723 0.544229 -0.059198
C122  C     C_R   0.390576 0.065857 0.444691 -0.007429
C123  C     C_R   0.391526 0.934850 0.443384 -0.058421
C124  C     C_R   0.612239 0.065712 0.546380 -0.016902
C125  C     C_R   0.162922 0.434886 0.548682 -0.212675
C126  C     C_R   0.838103 0.565634 0.448494 -0.176172
C127  C     C_R   0.838744 0.434336 0.447781 -0.170479
C128  C     C_R   0.162969 0.565556 0.549114 -0.162410
C129  C     C_R   0.662923 0.934886 0.548678 -0.212682
C130  C     C_R   0.338102 0.065635 0.448494 -0.176170
C131  C     C_R   0.338743 0.934338 0.447784 -0.170490
C132  C     C_R   0.662969 0.065556 0.549112 -0.162402
C133  C     C_R   0.185205 0.500041 0.558945 0.171649
C134  C     C_R   0.815332 0.499739 0.442159 0.161290
C135  C     C_R   0.685204 0.000041 0.558944 0.171642
C136  C     C_R   0.315330 0.999740 0.442161 0.161297
C137  C     C_R   0.091598 0.501072 0.532273 -0.017864
C138  C     C_R   0.913578 0.500685 0.452824 -0.024651
C139  C     C_R   0.591599 0.001072 0.532266 -0.017867
C140  C     C_R   0.413577 0.000687 0.452827 -0.024652
C141  C     C_R   0.579453 0.874679 0.559454 0.323924
C142  C     C_R   0.423289 0.128053 0.427809 0.297009
C143  C     C_R   0.425425 0.873595 0.424770 0.306375
C144  C     C_R   0.578586 0.126957 0.563712 0.297593
C145  C     C_R   0.079450 0.374679 0.559463 0.323901
C146  C     C_R   0.923290 0.628052 0.427810 0.297007
C147  C     C_R   0.925425 0.373590 0.424777 0.306299
C148  C     C_R   0.078585 0.626957 0.563716 0.297592
Cu1   Cu    Cu3+1 0.209920 0.785290 0.495070 0.972161
Cu2   Cu    Cu3+1 0.790080 0.214710 0.504930 0.924247
Cu3   Cu    Cu3+1 0.790080 0.785290 0.504930 0.965796
Cu4   Cu    Cu3+1 0.209920 0.214710 0.495070 0.950739
Cu5   Cu    Cu3+1 0.709920 0.285290 0.495070 0.972151
Cu6   Cu    Cu3+1 0.290080 0.714710 0.504930 0.924330
Cu7   Cu    Cu3+1 0.290080 0.285290 0.504930 0.965796
Cu8   Cu    Cu3+1 0.709920 0.714710 0.495070 0.950754
Cu9   Cu    Cu3+1 0.495240 0.500000 0.924150 0.925641
Cu10  Cu    Cu3+1 0.504760 0.500000 0.075850 0.898189
Cu11  Cu    Cu3+1 0.995240 1.000000 0.924150 0.925647
Cu12  Cu    Cu3+1 0.004760 0.000000 0.075850 0.898174
H1    H     H_    0.522035 0.824163 0.527159 0.149428
H2    H     H_    0.487109 0.178315 0.443900 0.139176
H3    H     H_    0.496937 0.830329 0.423289 0.150238
H4    H     H_    0.514877 0.176546 0.546681 0.139810
H5    H     H_    0.022040 0.324159 0.527152 0.149320
H6    H     H_    0.987109 0.678314 0.443904 0.139174
H7    H     H_    0.996937 0.330323 0.423293 0.150225
H8    H     H_    0.014877 0.676545 0.546684 0.139808
H9    H     H_    0.104869 0.804331 0.016203 0.209985
H10   H     H_    0.843639 0.105260 0.030051 0.214167
H11   H     H_    0.900619 0.800821 0.981424 0.210185
H12   H     H_    0.161620 0.091694 0.958787 0.216461
H13   H     H_    0.604869 0.304332 0.016204 0.209988
H14   H     H_    0.343640 0.605264 0.030043 0.214168
H15   H     H_    0.400624 0.300818 0.981419 0.210183
H16   H     H_    0.661616 0.591710 0.958800 0.216454
O1    O     O_R   0.255040 0.869590 0.478480 -0.564758
O2    O     O_R   0.744960 0.130410 0.521520 -0.582520
O3    O     O_R   0.744960 0.869590 0.521520 -0.576672
O4    O     O_R   0.255040 0.130410 0.478480 -0.594299
O5    O     O_R   0.755040 0.369590 0.478480 -0.564752
O6    O     O_R   0.244960 0.630410 0.521520 -0.582511
O7    O     O_R   0.244960 0.369590 0.521520 -0.576658
O8    O     O_R   0.755040 0.630410 0.478480 -0.594302
O9    O     O_R   0.182050 0.796550 0.624440 -0.593360
O10   O     O_R   0.817950 0.203450 0.375560 -0.591427
O11   O     O_R   0.817950 0.796550 0.375560 -0.564771
O12   O     O_R   0.182050 0.203450 0.624440 -0.588315
O13   O     O_R   0.682050 0.296550 0.624440 -0.593354
O14   O     O_R   0.317950 0.703450 0.375560 -0.591385
O15   O     O_R   0.317950 0.296550 0.375560 -0.564768
O16   O     O_R   0.682050 0.703450 0.624440 -0.588301
O17   O     O_R   0.250530 0.763330 0.367210 -0.534296
O18   O     O_R   0.749470 0.236670 0.632790 -0.533029
O19   O     O_R   0.749470 0.763330 0.632790 -0.535238
O20   O     O_R   0.250530 0.236670 0.367210 -0.547040
O21   O     O_R   0.750530 0.263330 0.367210 -0.534292
O22   O     O_R   0.249470 0.736670 0.632790 -0.533016
O23   O     O_R   0.249470 0.263330 0.632790 -0.535236
O24   O     O_R   0.750530 0.736670 0.367210 -0.547040
O25   O     O_R   0.177260 0.690030 0.513710 -0.564473
O26   O     O_R   0.822740 0.309970 0.486290 -0.584864
O27   O     O_R   0.822740 0.690030 0.486290 -0.558105
O28   O     O_R   0.177260 0.309970 0.513710 -0.576720
O29   O     O_R   0.677260 0.190030 0.513710 -0.564472
O30   O     O_R   0.322740 0.809970 0.486290 -0.584796
O31   O     O_R   0.322740 0.190030 0.486290 -0.558106
O32   O     O_R   0.677260 0.809970 0.513710 -0.576661
O33   O     O_R   0.051640 0.926880 0.885090 -0.569256
O34   O     O_R   0.948360 0.073120 0.114910 -0.586685
O35   O     O_R   0.948360 0.926880 0.114910 -0.604348
O36   O     O_R   0.051640 0.073120 0.885090 -0.563845
O37   O     O_R   0.551640 0.426880 0.885090 -0.569260
O38   O     O_R   0.448360 0.573120 0.114910 -0.586680
O39   O     O_R   0.448360 0.426880 0.114910 -0.604351
O40   O     O_R   0.551640 0.573120 0.885090 -0.563845
O41   O     O_R   0.940620 0.926560 0.986760 -0.588981
O42   O     O_R   0.059380 0.073440 0.013240 -0.598456
O43   O     O_R   0.059380 0.926560 0.013240 -0.592532
O44   O     O_R   0.940620 0.073440 0.986760 -0.586592
O45   O     O_R   0.440620 0.426560 0.986760 -0.588982
O46   O     O_R   0.559380 0.573440 0.013240 -0.598449
O47   O     O_R   0.559380 0.426560 0.013240 -0.592530
O48   O     O_R   0.440620 0.573440 0.986760 -0.586596
N1    N     N_2   0.220363 0.499886 0.600285 -0.414587
H17   H     H_    0.208068 0.466760 0.655287 0.236106
C149  C     C_3   0.278535 0.501125 0.544917 -0.517382
H18   H     H_    0.297394 0.452998 0.557212 0.208163
H19   H     H_    0.296055 0.546998 0.564150 0.218097
H20   H     H_    0.289482 0.504704 0.472649 0.213656
N2    N     N_2   0.769940 0.498307 0.424668 -0.390983
H21   H     H_    0.732226 0.508003 0.476525 0.272424
C150  C     C_3   0.779288 0.514229 0.334396 -0.631092
H22   H     H_    0.757362 0.474808 0.314062 0.232467
H23   H     H_    0.822882 0.511414 0.286232 0.199045
H24   H     H_    0.764079 0.568324 0.331399 0.249836
N3    N     N_2   0.720358 0.999886 0.600292 -0.414592
H25   H     H_    0.708061 0.966759 0.655294 0.236103
C151  C     C_3   0.778531 0.001126 0.544930 -0.517382
H26   H     H_    0.797388 0.952998 0.557228 0.208165
H27   H     H_    0.796048 0.046999 0.564167 0.218095
H28   H     H_    0.789481 0.004705 0.472661 0.213662
N4    N     N_2   0.269939 0.998307 0.424669 -0.390988
H29   H     H_    0.232225 0.008004 0.476525 0.272425
C152  C     C_3   0.279288 0.014229 0.334397 -0.631070
H30   H     H_    0.257360 0.974810 0.314063 0.232471
H31   H     H_    0.322881 0.011411 0.286233 0.199042
H32   H     H_    0.264080 0.068325 0.331399 0.249841
N5    N     N_2   0.574144 0.822750 0.626019 -0.394103
H33   H     H_    0.595061 0.835129 0.661326 0.235986
C153  C     C_3   0.519686 0.798468 0.684953 -0.762373
H34   H     H_    0.518152 0.771241 0.744529 0.226232
H35   H     H_    0.506004 0.759547 0.650063 0.232453
H36   H     H_    0.491417 0.844306 0.709024 0.232147
N6    N     N_2   0.420214 0.185859 0.374748 -0.387170
H37   H     H_    0.439135 0.232126 0.378275 0.242073
C154  C     C_3   0.431911 0.167916 0.284013 -0.695740
H38   H     H_    0.426806 0.215937 0.249796 0.224088
H39   H     H_    0.403859 0.126255 0.283300 0.221821
H40   H     H_    0.474123 0.148814 0.246630 0.216551
N7    N     N_2   0.422492 0.815974 0.371962 -0.416001
H41   H     H_    0.402274 0.822726 0.334179 0.245719
C155  C     C_3   0.430988 0.743686 0.394000 -0.618671
H42   H     H_    0.393555 0.712829 0.415511 0.258741
H43   H     H_    0.440794 0.741004 0.450904 0.192261
H44   H     H_    0.463796 0.718403 0.334462 0.206535
N8    N     N_2   0.579066 0.183012 0.620625 -0.389090
H45   H     H_    0.560695 0.229590 0.616322 0.241526
C156  C     C_3   0.563795 0.162289 0.712105 -0.698831
H46   H     H_    0.567341 0.208974 0.749513 0.223130
H47   H     H_    0.590744 0.119823 0.714768 0.225970
H48   H     H_    0.521392 0.143079 0.744965 0.216769
N9    N     N_2   0.074129 0.322756 0.626041 -0.394191
H49   H     H_    0.095090 0.335092 0.661283 0.236067
C157  C     C_3   0.019651 0.298632 0.685094 -0.762352
H50   H     H_    0.018155 0.271222 0.744545 0.226262
H51   H     H_    0.005801 0.259894 0.650243 0.232454
H52   H     H_    0.991494 0.344580 0.709346 0.232143
N10   N     N_2   0.920214 0.685858 0.374750 -0.387169
H53   H     H_    0.939135 0.732125 0.378278 0.242071
C158  C     C_3   0.931912 0.667917 0.284014 -0.695742
H54   H     H_    0.926806 0.715938 0.249798 0.224089
H55   H     H_    0.903860 0.626255 0.283301 0.221822
H56   H     H_    0.974123 0.648814 0.246632 0.216548
N11   N     N_2   0.922490 0.315956 0.371989 -0.416006
H57   H     H_    0.902275 0.322699 0.334193 0.245713
C159  C     C_3   0.930944 0.243670 0.394096 -0.618241
H58   H     H_    0.893473 0.212836 0.415663 0.258718
H59   H     H_    0.940758 0.241023 0.451017 0.192205
H60   H     H_    0.963744 0.218329 0.334549 0.206473
N12   N     N_2   0.079066 0.683013 0.620627 -0.389088
H61   H     H_    0.060693 0.729589 0.616326 0.241524
C160  C     C_3   0.063799 0.662291 0.712107 -0.698832
H62   H     H_    0.067345 0.708977 0.749513 0.223130
H63   H     H_    0.090751 0.619829 0.714766 0.225968
H64   H     H_    0.021397 0.643078 0.744971 0.216765
N13   N     N_2   0.155328 0.829276 0.092865 -0.411775
H65   H     H_    0.131014 0.825940 0.160915 0.288188
C161  C     C_3   0.180490 0.898559 0.065673 -0.644409
H66   H     H_    0.210086 0.907041 0.091960 0.226622
H67   H     H_    0.201297 0.903401 0.991599 0.224783
H68   H     H_    0.149199 0.940687 0.092563 0.225002
N14   N     N_2   0.836832 0.164052 0.913666 -0.411705
H69   H     H_    0.840475 0.128523 0.864590 0.291010
C162  C     C_3   0.876289 0.220824 0.879443 -0.662105
H70   H     H_    0.917138 0.197673 0.841083 0.222002
H71   H     H_    0.876104 0.252851 0.935009 0.228690
H72   H     H_    0.867626 0.256120 0.834414 0.225217
N15   N     N_2   0.851962 0.817179 0.899578 -0.412980
H73   H     H_    0.877057 0.813541 0.831858 0.287411
C163  C     C_3   0.825993 0.885975 0.924439 -0.643015
H74   H     H_    0.856944 0.928723 0.898099 0.224464
H75   H     H_    0.797360 0.893125 0.895925 0.228753
H76   H     H_    0.803924 0.891129 0.998366 0.226033
N16   N     N_2   0.177370 0.134069 0.073284 -0.416938
H77   H     H_    0.178249 0.093567 0.114235 0.287556
C164  C     C_3   0.133645 0.183467 0.119813 -0.651570
H78   H     H_    0.095046 0.153617 0.153038 0.220029
H79   H     H_    0.130511 0.222327 0.072371 0.229321
H80   H     H_    0.140098 0.212580 0.171415 0.229923
N17   N     N_2   0.655331 0.329277 0.092863 -0.411780
H81   H     H_    0.631019 0.325945 0.160913 0.288199
C165  C     C_3   0.680495 0.398558 0.065665 -0.644418
H82   H     H_    0.710096 0.407036 0.091943 0.226619
H83   H     H_    0.701296 0.403398 0.991592 0.224788
H84   H     H_    0.649206 0.440688 0.092560 0.225005
N18   N     N_2   0.336835 0.664060 0.913660 -0.411703
H85   H     H_    0.340478 0.628533 0.864582 0.291014
C166  C     C_3   0.376291 0.720833 0.879441 -0.662118
H86   H     H_    0.417141 0.697684 0.841080 0.222013
H87   H     H_    0.376106 0.752858 0.935009 0.228688
H88   H     H_    0.367627 0.756132 0.834415 0.225213
N19   N     N_2   0.351964 0.317174 0.899576 -0.412976
H89   H     H_    0.377058 0.313541 0.831856 0.287413
C167  C     C_3   0.325990 0.385967 0.924445 -0.643020
H90   H     H_    0.356938 0.428718 0.898109 0.224464
H91   H     H_    0.297356 0.393114 0.895934 0.228749
H92   H     H_    0.303922 0.391116 0.998373 0.226034
N20   N     N_2   0.677344 0.634123 0.073309 -0.416922
H93   H     H_    0.678209 0.593633 0.114286 0.287569
C168  C     C_3   0.633628 0.683542 0.119802 -0.651580
H94   H     H_    0.595023 0.653707 0.153042 0.220030
H95   H     H_    0.630504 0.722383 0.072333 0.229321
H96   H     H_    0.640083 0.712676 0.171387 0.229897
O49   O     O_3   0.254482 0.650146 0.862497 -0.522221
C169  C     C_3   0.213152 0.598565 0.891321 -0.345635
H97   H     H_    0.173033 0.623527 0.912018 0.156822
H98   H     H_    0.212766 0.565359 0.946686 0.136637
H99   H     H_    0.220860 0.562526 0.834590 0.192649
O50   O     O_3   0.687938 0.245613 0.197973 -0.521277
C170  C     C_3   0.665563 0.178668 0.234385 -0.316879
H100  H     H_    0.697438 0.137993 0.220346 0.150617
H101  H     H_    0.636944 0.160392 0.209302 0.137730
H102  H     H_    0.642538 0.183881 0.308087 0.199850
O51   O     O_3   0.758942 0.632244 0.125795 -0.520158
C171  C     C_3   0.802818 0.584658 0.094434 -0.370407
H103  H     H_    0.841522 0.613223 0.075336 0.161847
H104  H     H_    0.804975 0.552521 0.037309 0.140508
H105  H     H_    0.796950 0.547046 0.149145 0.185231
O52   O     O_3   0.320172 0.233671 0.794235 -0.521800
C172  C     C_3   0.340806 0.166642 0.756503 -0.315826
H106  H     H_    0.307891 0.128067 0.768491 0.151472
H107  H     H_    0.368253 0.144853 0.782237 0.135228
H108  H     H_    0.364714 0.173300 0.683063 0.198819
O53   O     O_3   0.754480 0.150143 0.862500 -0.522220
C173  C     C_3   0.713150 0.098562 0.891324 -0.345639
H109  H     H_    0.673031 0.123524 0.912022 0.156823
H110  H     H_    0.712764 0.065355 0.946689 0.136637
H111  H     H_    0.720857 0.062523 0.834592 0.192649
O54   O     O_3   0.187942 0.745617 0.197970 -0.521270
C174  C     C_3   0.165555 0.678677 0.234380 -0.316920
H112  H     H_    0.197422 0.637987 0.220323 0.150611
H113  H     H_    0.136924 0.660424 0.209312 0.137749
H114  H     H_    0.142541 0.683886 0.308084 0.199858
O55   O     O_3   0.258963 0.132223 0.125778 -0.520153
C175  C     C_3   0.302842 0.084642 0.094412 -0.370422
H115  H     H_    0.341545 0.113213 0.075309 0.161850
H116  H     H_    0.304999 0.052503 0.037290 0.140512
H117  H     H_    0.296980 0.047033 0.149123 0.185230
O56   O     O_3   0.820164 0.733680 0.794243 -0.521798
C176  C     C_3   0.840798 0.666650 0.756514 -0.315839
H118  H     H_    0.807883 0.628073 0.768508 0.151470
H119  H     H_    0.868247 0.644865 0.782247 0.135230
H120  H     H_    0.864704 0.673304 0.683074 0.198821
N21   N     N_2   0.137760 0.901159 0.745210 -0.386021
H121  H     H_    0.118969 0.883987 0.708327 0.276146
C177  C     C_3   0.180060 0.953637 0.702870 -0.652582
H122  H     H_    0.167576 0.993452 0.667020 0.208576
H123  H     H_    0.217918 0.928104 0.653845 0.210667
H124  H     H_    0.187539 0.981785 0.754205 0.216309
N22   N     N_2   0.901985 0.168288 0.235562 -0.392472
H125  H     H_    0.940419 0.187624 0.197035 0.247038
C178  C     C_3   0.899278 0.103649 0.286300 -0.546899
H126  H     H_    0.881630 0.113825 0.358738 0.203867
H127  H     H_    0.874732 0.062078 0.275980 0.221663
H128  H     H_    0.940419 0.082420 0.266065 0.197205
N23   N     N_2   0.848352 0.904553 0.256542 -0.401306
H129  H     H_    0.882382 0.920744 0.260627 0.276323
C179  C     C_3   0.811166 0.960110 0.261041 -0.706761
H130  H     H_    0.799878 0.992295 0.322121 0.215114
H131  H     H_    0.773387 0.936991 0.265289 0.217866
H132  H     H_    0.830028 0.994888 0.200927 0.219660
N24   N     N_2   0.089354 0.193009 0.788490 -0.418429
H133  H     H_    0.086550 0.245904 0.774674 0.230405
C180  C     C_3   0.081225 0.144254 0.728632 -0.527362
H134  H     H_    0.088795 0.171535 0.665256 0.224593
H135  H     H_    0.107919 0.096941 0.712978 0.222401
H136  H     H_    0.038532 0.126530 0.759981 0.213234
N25   N     N_2   0.637761 0.401158 0.745210 -0.386022
H137  H     H_    0.618969 0.383986 0.708329 0.276145
C181  C     C_3   0.680063 0.453634 0.702866 -0.652585
H138  H     H_    0.667582 0.493443 0.667004 0.208565
H139  H     H_    0.717922 0.428098 0.653851 0.210666
H140  H     H_    0.687538 0.481789 0.754200 0.216311
N26   N     N_2   0.401970 0.668254 0.235579 -0.392466
H141  H     H_    0.440408 0.687584 0.197070 0.247073
C182  C     C_3   0.399242 0.603610 0.286320 -0.547013
H142  H     H_    0.381601 0.613791 0.358750 0.203905
H143  H     H_    0.374679 0.562066 0.276009 0.221659
H144  H     H_    0.440372 0.582349 0.266087 0.197251
N27   N     N_2   0.348343 0.404554 0.256536 -0.401318
H145  H     H_    0.382370 0.420759 0.260619 0.276331
C183  C     C_3   0.311146 0.460095 0.261037 -0.706845
H146  H     H_    0.299837 0.492265 0.322133 0.215135
H147  H     H_    0.273380 0.436962 0.265255 0.217879
H148  H     H_    0.330005 0.494888 0.200940 0.219669
N28   N     N_2   0.589357 0.692992 0.788471 -0.418395
H149  H     H_    0.586551 0.745883 0.774641 0.230426
C184  C     C_3   0.581237 0.644223 0.728617 -0.527320
H150  H     H_    0.588813 0.671491 0.665230 0.224585
H151  H     H_    0.607931 0.596912 0.712982 0.222387
H152  H     H_    0.538544 0.626498 0.759958 0.213228
O57   O     O_3   0.267653 0.760331 0.771275 -0.507529
C185  C     C_3   0.297376 0.823971 0.757432 -0.305789
H153  H     H_    0.289032 0.849455 0.822169 0.136724
H154  H     H_    0.289158 0.862005 0.714119 0.142321
H155  H     H_    0.340945 0.810960 0.722398 0.183881
O58   O     O_3   0.767214 0.302796 0.202872 -0.503296
C186  C     C_3   0.800411 0.357629 0.147606 -0.339315
H156  H     H_    0.812392 0.347274 0.075815 0.148542
H157  H     H_    0.836737 0.365301 0.158051 0.139831
H158  H     H_    0.777293 0.408136 0.165670 0.181773
O59   O     O_3   0.739152 0.740582 0.221484 -0.510122
C187  C     C_3   0.704998 0.799672 0.235226 -0.290936
H159  H     H_    0.711762 0.824082 0.170454 0.136246
H160  H     H_    0.710009 0.840253 0.278956 0.142788
H161  H     H_    0.662575 0.781166 0.270125 0.179468
O60   O     O_3   0.240906 0.293383 0.794201 -0.503202
C188  C     C_3   0.207949 0.350604 0.842827 -0.341883
H162  H     H_    0.191820 0.341974 0.916157 0.147334
H163  H     H_    0.174406 0.359568 0.825332 0.135198
H164  H     H_    0.232733 0.399848 0.825003 0.183135
O61   O     O_3   0.767652 0.260326 0.771276 -0.507532
C189  C     C_3   0.797376 0.323965 0.757433 -0.305789
H165  H     H_    0.789033 0.349449 0.822169 0.136727
H166  H     H_    0.789159 0.362000 0.714120 0.142323
H167  H     H_    0.840945 0.310953 0.722398 0.183880
O62   O     O_3   0.267218 0.802799 0.202870 -0.503299
C190  C     C_3   0.300414 0.857629 0.147597 -0.339316
H168  H     H_    0.312389 0.847273 0.075809 0.148548
H169  H     H_    0.336745 0.865298 0.158031 0.139826
H170  H     H_    0.277299 0.908138 0.165664 0.181778
O63   O     O_3   0.239161 0.240558 0.221476 -0.510127
C191  C     C_3   0.205002 0.299641 0.235214 -0.290940
H171  H     H_    0.211764 0.324046 0.170440 0.136250
H172  H     H_    0.210007 0.340226 0.278944 0.142792
H173  H     H_    0.162580 0.281127 0.270112 0.179459
O64   O     O_3   0.740898 0.793394 0.794202 -0.503203
C192  C     C_3   0.707942 0.850614 0.842832 -0.341894
H174  H     H_    0.691816 0.841984 0.916162 0.147337
H175  H     H_    0.674397 0.859578 0.825341 0.135195
H176  H     H_    0.732725 0.899859 0.825006 0.183137

loop_
_geom_bond_atom_site_label_1
_geom_bond_atom_site_label_2
_ccdc_geom_bond_type
C51   C97   S    
N28   H149  S    
N6    C154  S    
Cu9   Cu10  S    
C181  H139  S    
C141  N5    S    
N12   H61   S    
C190  H168  S    
C177  H124  S    
C79   C87   A    
N14   C162  S    
C61   C69   A    
N19   H89   S    
C158  H56   S    
N24   C180  S    
C133  N1    S    
C13   C112  A    
Cu7   O31   S    
N23   C179  S    
C96   O32   A    
Cu12  O43   S    
C62   C70   A    
C179  H131  S    
Cu2   O18   S    
C42   H10   S    
C103  O47   A    
C7    C68   S    
C75   O59   S    
C157  H50   S    
C191  H171  S    
C188  H163  S    
Cu9   O48   S    
C159  H59   S    
C74   O58   S    
C25   O49   S    
C175  H117  S    
C1    O14   A    
Cu9   O40   S    
N15   C163  S    
C10   H2    S    
C152  H30   S    
C4    O15   A    
C5    O10   A    
C73   C81   A    
C16   C109  A    
C183  H148  S    
C8    O11   A    
C172  H108  S    
N5    C153  S    
O63   C191  S    
C63   N27   S    
C121  C129  A    
C167  H91   S    
C20   C28   A    
C27   C35   A    
C192  H174  S    
C148  N12   S    
C21   C29   A    
C171  H105  S    
C3    O19   A    
C135  N3    S    
C23   C31   A    
Cu4   O4    S    
C164  H80   S    
C1    O17   A    
C44   H12   S    
C45   H13   S    
Cu3   O3    S    
C149  H18   S    
C120  C128  A    
C105  C112  A    
C63   C71   A    
C120  C148  A    
C156  H47   S    
C176  H118  S    
C144  N8    S    
C177  H122  S    
C102  O46   A    
C108  C140  A    
C192  H176  S    
C4    O20   A    
C26   C34   A    
C9    C116  A    
O55   C175  S    
C60   N24   S    
C178  H126  S    
C50   C100  S    
C1    C70   S    
Cu11  O33   S    
C17   C25   A    
O60   C188  S    
C3    C72   S    
C158  H54   S    
N11   C159  S    
O53   C173  S    
C101  O39   A    
C191  H173  S    
C34   N17   S    
C52   C98   S    
C18   C82   S    
N10   C158  S    
O50   C170  S    
Cu8   O32   S    
C167  H90   S    
N13   H65   S    
C126  C134  A    
C80   C88   A    
Cu11  O44   S    
C152  H32   S    
N25   H137  S    
C118  C138  A    
C11   C143  A    
C4    C71   S    
C174  H112  S    
O56   C176  S    
C113  C115  A    
Cu10  O47   S    
C43   C83   A    
C124  C139  A    
C69   C77   A    
C170  H100  S    
C94   O30   A    
C127  C134  A    
C13   C145  A    
C39   N16   S    
C92   C125  S    
C71   C79   A    
O54   C174  S    
C170  H102  S    
Cu5   O13   S    
C184  H150  S    
C190  H169  S    
C30   C38   A    
N5    H33   S    
C108  C115  A    
N12   C160  S    
C186  H157  S    
N7    H41   S    
Cu6   O22   S    
Cu7   O7    S    
Cu3   O19   S    
C179  H130  S    
C66   C74   A    
C49   C57   A    
C124  C132  A    
C154  H38   S    
C30   O54   S    
C52   C60   A    
C59   C67   A    
O58   C186  S    
C53   C61   A    
Cu12  O42   S    
C78   O62   S    
C162  H71   S    
C61   N25   S    
C95   C130  S    
N26   C182  S    
C189  H165  S    
C14   H6    S    
C2    C69   S    
C150  H22   S    
N7    C155  S    
C44   C52   A    
C77   C85   A    
N3    H25   S    
Cu9   O45   S    
N13   C161  S    
C15   H7    S    
C19   C83   S    
C171  H104  S    
O52   C172  S    
C182  H143  S    
C175  H116  S    
N9    H49   S    
C106  C111  A    
C168  H95   S    
C178  H128  S    
O62   C190  S    
Cu4   O20   S    
C107  C113  A    
C157  H52   S    
C131  C136  A    
C180  H136  S    
N18   C166  S    
C43   H11   S    
C153  H36   S    
C5    O21   A    
C187  H159  S    
C165  H83   S    
C47   C87   A    
C160  H62   S    
C49   C99   S    
C150  H23   S    
C32   O56   S    
C169  H98   S    
C90   O5    A    
N10   H53   S    
C174  H114  S    
C189  H167  S    
C11   H3    S    
C151  H27   S    
C9    H1    S    
C173  H111  S    
C27   O51   S    
C42   C50   A    
Cu5   O29   S    
C57   N21   S    
C149  H19   S    
N17   H81   S    
C20   C84   S    
C8    O24   A    
C67   C75   A    
O51   C171  S    
Cu7   O23   S    
C169  H99   S    
C99   O33   A    
C184  H152  S    
C102  O40   A    
N22   C178  S    
Cu12  O35   S    
C105  C109  A    
C28   C36   A    
C22   C30   A    
C136  N4    S    
C119  C138  A    
C5    C66   S    
C177  H123  S    
Cu2   O10   S    
C114  C116  A    
N8    H45   S    
Cu10  O38   S    
C154  H40   S    
C73   O57   S    
C121  C139  A    
C163  H75   S    
C56   C102  S    
C72   C80   A    
C3    O16   A    
N9    C157  S    
C17   C38   A    
C107  C139  A    
C150  H24   S    
C110  C112  A    
C107  C116  A    
C19   C40   A    
C105  C137  A    
C147  N11   S    
C95   O4    A    
O64   C192  S    
C100  O44   A    
C8    C67   S    
C191  H172  S    
C188  H162  S    
C96   C129  S    
C90   O26   A    
C91   O8    A    
C117  C125  A    
C104  O48   A    
C47   H15   S    
C146  N10   S    
C25   C33   A    
C48   H16   S    
C119  C127  A    
Cu1   O9    S    
C155  H44   S    
C28   O52   S    
C151  H26   S    
C18   C26   A    
C145  N9    S    
Cu4   O12   S    
C76   C84   A    
N17   C165  S    
C185  H153  S    
Cu8   O8    S    
C155  H42   S    
C183  H147  S    
Cu3   O11   S    
C172  H107  S    
Cu1   O1    S    
N27   H145  S    
C187  H161  S    
C54   C104  S    
C160  H64   S    
C119  C147  A    
N4    H29   S    
C23   C36   A    
C117  C145  A    
C10   C142  A    
C108  C114  A    
C164  H79   S    
C173  H109  S    
C75   C83   A    
C6    C65   S    
Cu2   Cu5   S    
C90   C127  S    
C48   C88   A    
C97   O35   A    
C92   O28   A    
N19   C167  S    
Cu6   O14   S    
N16   H77   S    
C156  H46   S    
C181  H140  S    
C15   C110  A    
C74   C82   A    
C192  H175  S    
C95   O31   A    
C21   C85   S    
C33   N18   S    
C50   C58   A    
C121  C141  A    
C153  H34   S    
C40   N15   S    
Cu3   O27   S    
C20   C39   A    
C62   N26   S    
C21   C34   A    
C54   C62   A    
C168  H94   S    
C98   O36   A    
Cu11  O36   S    
C165  H82   S    
C2    O18   A    
C94   O1    A    
C186  H156  S    
N11   H57   S    
C12   H4    S    
N28   C184  S    
C13   H5    S    
N20   H93   S    
Cu4   Cu7   S    
C188  H164  S    
C41   C81   A    
C46   C54   A    
C159  H60   S    
N2    C150  S    
Cu3   Cu8   S    
C24   C88   S    
C31   O55   S    
C29   O53   S    
C99   O43   A    
C152  H31   S    
C97   O41   A    
C158  H55   S    
Cu2   O26   S    
N21   H121  S    
C101  O45   A    
C55   C101  S    
N21   C177  S    
C123  C131  A    
C57   C65   A    
C44   C84   A    
C167  H92   S    
C170  H101  S    
Cu12  O34   S    
C94   C131  S    
C80   O64   S    
C89   O6    A    
C109  C111  A    
N18   H85   S    
C15   C147  A    
N8    C156  S    
C43   C51   A    
C77   O61   S    
C53   C103  S    
C100  O34   A    
C17   C81   S    
C22   C86   S    
C96   O3    A    
C106  C138  A    
C122  C140  A    
C60   C68   A    
C162  H70   S    
C156  H48   S    
C29   C37   A    
C181  H138  S    
C176  H119  S    
Cu4   O28   S    
C189  H166  S    
C120  C137  A    
N23   H129  S    
C91   O27   A    
C89   C128  S    
C179  H132  S    
C89   O25   A    
C163  H74   S    
C41   H9    S    
C76   O60   S    
C91   C126  S    
C70   C78   A    
C166  H86   S    
N24   H133  S    
C42   C82   A    
C2    O13   A    
Cu1   Cu6   S    
C93   O29   A    
C24   C32   A    
C182  H142  S    
N22   H125  S    
N15   H73   S    
C178  H127  S    
C6    O9    A    
C164  H78   S    
C157  H51   S    
C18   C37   A    
C180  H135  S    
C153  H35   S    
Cu5   O21   S    
C65   C73   A    
C187  H160  S    
C46   H14   S    
C11   C114  A    
N1    C149  S    
C41   C49   A    
Cu11  Cu12  S    
Cu11  O41   S    
C143  N7    S    
C58   N22   S    
N25   C181  S    
C19   C27   A    
C103  O37   A    
Cu2   O2    S    
Cu1   O17   S    
C78   C86   A    
C64   N28   S    
C32   C40   A    
Cu10  O46   S    
N14   H69   S    
C129  C135  A    
Cu8   O24   S    
C79   O63   S    
C161  H68   S    
C58   C66   A    
C184  H151  S    
C14   C111  A    
C190  H170  S    
N16   C164  S    
C24   C35   A    
C7    O12   A    
C118  C146  A    
C59   N23   S    
C186  H158  S    
C183  H146  S    
C6    O22   A    
C161  H66   S    
C9    C141  A    
C174  H113  S    
Cu10  O39   S    
C117  C137  A    
C123  C140  A    
C142  N6    S    
C12   C144  A    
C55   C63   A    
C154  H39   S    
C26   O50   S    
C45   C85   A    
C176  H120  S    
N26   H141  S    
C162  H72   S    
C56   C64   A    
N1    H17   S    
C166  H87   S    
C134  N2    S    
C161  H67   S    
Cu6   O30   S    
Cu7   O15   S    
Cu8   O16   S    
N20   C168  S    
C36   N19   S    
N3    C151  S    
C159  H58   S    
C166  H88   S    
C51   C59   A    
C122  C142  A    
N6    H37   S    
C93   C132  S    
Cu1   O25   S    
C182  H144  S    
C175  H115  S    
C47   C55   A    
C12   C113  A    
C106  C110  A    
C168  H96   S    
C125  C133  A    
C48   C56   A    
C22   C33   A    
C130  C136  A    
Cu5   O5    S    
C92   O7    A    
C185  H154  S    
C93   O2    A    
C37   N14   S    
C118  C126  A    
C172  H106  S    
C14   C146  A    
Cu9   O37   S    
C16   C148  A    
C165  H84   S    
C98   O42   A    
C104  O38   A    
O59   C187  S    
C160  H63   S    
C155  H43   S    
C128  C133  A    
C68   C76   A    
C169  H97   S    
C16   H8    S    
C132  C135  A    
Cu6   O6    S    
C171  H103  S    
C31   C39   A    
C151  H28   S    
C180  H134  S    
C64   C72   A    
C7    O23   A    
O61   C189  S    
C173  H110  S    
C185  H155  S    
C45   C53   A    
C149  H20   S    
C38   N13   S    
N27   C183  S    
O57   C185  S    
C163  H76   S    
C123  C143  A    
N2    H21   S    
C35   N20   S    
C124  C144  A    
C23   C87   S    
N4    C152  S    
O49   C169  S    
C122  C130  A    
C10   C115  A    
C46   C86   A    
