data_mof_unit_39782.cif
_audit_creation_date              2012-12-11T15:23:52-0500
_audit_creation_method            fapswitch 2.2
_symmetry_space_group_name_H-M    P1
_symmetry_Int_Tables_number       1
_space_group_crystal_system       triclinic
_cell_length_a                    17.373093
_cell_length_b                    24.354017
_cell_length_c                    14.966072
_cell_angle_alpha                 89.948761
_cell_angle_beta                  125.362485
_cell_angle_gamma                 90.210596
_cell_volume                      5163.92344817

loop_
_atom_site_label
_atom_site_type_symbol
_atom_type_description
_atom_site_fract_x
_atom_site_fract_y
_atom_site_fract_z
_atom_type_partial_charge
C1    C     C_R   0.345784 0.349535 0.910122 -0.273978
C2    C     C_R   0.537237 0.499660 0.710359 0.023537
C3    C     C_3   0.313809 0.185448 0.373409 -0.875901
C4    C     C_3   0.577386 0.319881 0.242793 0.178800
C5    C     C_3   0.623981 0.294544 0.355995 -0.918605
C6    C     C_3   0.416090 0.326662 0.749147 0.180065
C7    C     C_3   0.370565 0.309179 0.631008 -0.891746
C8    C     C_3   0.083599 0.827283 0.250873 0.175808
C9    C     C_3   0.129546 0.810426 0.369345 -0.891749
C10   C     C_3   0.922471 0.819591 0.756946 0.180580
C11   C     C_3   0.876382 0.793928 0.643982 -0.915520
C12   C     C_R   0.962304 0.999464 0.289114 0.013467
C13   C     C_R   0.934306 0.000015 0.633455 0.017639
C14   C     C_R   0.177208 0.496250 0.667455 -0.027795
C15   C     C_R   0.799429 0.497852 0.366924 -0.019407
C16   C     C_R   0.677826 0.996230 0.665831 -0.026628
C17   C     C_R   0.299810 0.997980 0.366613 -0.019554
C18   C     C_2   0.926233 0.449404 0.527126 -0.123396
C19   C     C_2   0.027893 0.454349 0.607119 -0.121645
C20   C     C_2   0.426998 0.949634 0.526571 -0.122133
C21   C     C_R   0.651589 0.349159 0.091287 -0.266762
C22   C     C_2   0.528703 0.954422 0.605957 -0.122322
C23   C     C_2   0.876160 0.495370 0.483144 -0.150958
C24   C     C_2   0.076036 0.490430 0.588768 -0.208498
C25   C     C_2   0.377207 0.995665 0.482497 -0.145520
C26   C     C_2   0.576719 0.990377 0.587169 -0.209688
C27   C     C_R   0.160019 0.681929 0.910260 -0.203515
C28   C     C_R   0.842327 0.682988 0.092702 -0.199664
C29   C     C_R   0.660533 0.184656 0.909353 -0.203889
C30   C     C_R   0.341559 0.181300 0.093429 -0.197856
C31   C     C_R   0.609184 0.227712 0.909569 -0.133904
C32   C     C_R   0.848862 0.848603 0.909222 -0.276491
C33   C     C_R   0.384021 0.229709 0.095228 -0.154603
C34   C     C_R   0.115903 0.729430 0.908247 -0.149916
C35   C     C_R   0.892117 0.727261 0.092487 -0.136724
C36   C     C_R   0.646968 0.258542 0.005820 0.151359
C37   C     C_R   0.346391 0.259989 0.998389 0.158961
C38   C     C_R   0.155204 0.760922 0.004026 0.159569
C39   C     C_R   0.854255 0.757682 0.995728 0.151714
C40   C     C_R   0.720718 0.236378 0.106006 -0.168999
C41   C     C_R   0.278223 0.235094 0.897822 -0.167516
C42   C     C_R   0.226736 0.737947 0.104802 -0.166903
C43   C     C_R   0.154819 0.850212 0.090663 -0.264606
C44   C     C_R   0.782380 0.734175 0.895634 -0.171377
C45   C     C_R   0.270280 0.690242 0.106843 -0.166442
C46   C     C_R   0.734695 0.688697 0.895419 -0.166288
C47   C     C_R   0.770411 0.192385 0.106247 -0.166617
C48   C     C_R   0.236068 0.186448 0.896090 -0.166836
C49   C     C_R   0.402863 0.622602 0.093352 -0.106893
C50   C     C_R   0.593873 0.630232 0.909395 -0.116570
C51   C     C_R   0.908385 0.131626 0.091381 -0.113040
C52   C     C_R   0.098639 0.121744 0.907495 -0.112476
C53   C     C_R   0.244021 0.666162 0.007874 0.161314
C54   C     C_R   0.313771 0.635724 0.003773 0.017783
C55   C     C_R   0.757018 0.668156 0.995359 0.156481
C56   C     C_R   0.747414 0.171667 0.006192 0.160556
C57   C     C_R   0.260149 0.163357 0.995009 0.157193
C58   C     C_R   0.595887 0.550020 0.617427 -0.170713
C59   C     C_R   0.604365 0.550258 0.531197 -0.159670
C60   C     C_R   0.896189 0.049892 0.468894 -0.161294
C61   C     C_R   0.904115 0.049645 0.382267 -0.167702
C62   C     C_R   0.598886 0.500496 0.480857 0.148552
C63   C     C_R   0.581176 0.500081 0.652056 0.144658
C64   C     C_R   0.918495 0.999742 0.347539 0.145629
C65   C     C_R   0.684908 0.640020 0.998876 0.028319
C66   C     C_R   0.901648 0.000166 0.519377 0.143429
C67   C     C_R   0.606994 0.450799 0.532872 -0.159461
C68   C     C_R   0.597761 0.450566 0.618452 -0.165598
C69   C     C_R   0.902034 0.950181 0.381467 -0.163234
C70   C     C_R   0.893267 0.950415 0.467389 -0.161244
C71   C     C_R   0.548168 0.454417 0.303148 -0.097465
C72   C     C_R   0.513997 0.453803 0.744598 -0.145972
C73   C     C_R   0.985852 0.953695 0.255358 -0.144627
C74   C     C_R   0.952131 0.954310 0.697065 -0.097328
C75   C     C_R   0.233664 0.543951 0.710455 0.512812
C76   C     C_R   0.818616 0.143393 0.002044 0.020503
C77   C     C_R   0.753150 0.544651 0.305091 0.489821
C78   C     C_R   0.734093 0.043970 0.709689 0.510783
C79   C     C_R   0.253178 0.044711 0.304902 0.492172
C80   C     C_R   0.549413 0.545441 0.302751 -0.099751
C81   C     C_R   0.504979 0.544959 0.734810 -0.098252
C82   C     C_R   0.994475 0.044895 0.264493 -0.078329
C83   C     C_R   0.950522 0.045346 0.697179 -0.117994
C84   C     C_R   0.234994 0.451764 0.720577 -0.189586
C85   C     C_R   0.753071 0.452914 0.300644 -0.196801
C86   C     C_R   0.735381 0.951751 0.719494 -0.192635
C87   C     C_R   0.189031 0.132974 0.997617 0.025642
C88   C     C_R   0.253449 0.952984 0.300463 -0.194352
C89   C     C_R   0.310511 0.624016 0.910573 -0.138208
C90   C     C_R   0.690396 0.623459 0.091225 -0.132475
C91   C     C_R   0.812436 0.127090 0.909301 -0.138444
C92   C     C_R   0.191828 0.120591 0.090368 -0.131281
C93   C     C_R   0.437498 0.349149 0.091776 0.543041
C94   C     C_R   0.557225 0.346737 0.910306 0.517706
C95   C     C_R   0.942433 0.846811 0.089976 0.517923
C96   C     C_R   0.062371 0.848988 0.908766 0.542641
C97   C     C_R   0.372593 0.317725 0.000983 -0.084038
C98   C     C_R   0.565984 0.500183 0.366682 0.012876
C99   C     C_R   0.620555 0.315827 0.001746 -0.068804
C100  C     C_R   0.879507 0.815444 0.998942 -0.065845
C101  C     C_R   0.127786 0.818183 0.000125 -0.085524
C102  C     C_3   0.124333 0.613022 0.604536 0.208342
C103  C     C_3   0.121842 0.675506 0.599486 -0.892543
C104  C     C_3   0.835990 0.624222 0.393497 0.221918
C105  C     C_3   0.813956 0.685417 0.376060 -0.883730
C106  C     C_3   0.625502 0.112837 0.601122 0.209646
C107  C     C_3   0.622942 0.175276 0.594570 -0.898541
C108  C     C_3   0.336045 0.124322 0.393032 0.220686
H1    H     H_    0.302044 0.337065 0.825506 0.112031
H2    H     H_    0.866282 0.664270 0.170273 0.113655
H3    H     H_    0.635919 0.165200 0.832163 0.113288
H4    H     H_    0.366553 0.161844 0.170707 0.112732
H5    H     H_    0.545035 0.238464 0.832526 0.172534
H6    H     H_    0.441163 0.243938 0.174220 0.179413
H7    H     H_    0.055796 0.742126 0.829916 0.175521
H8    H     H_    0.954979 0.739066 0.169969 0.174336
H9    H     H_    0.746835 0.255615 0.183681 0.110293
H10   H     H_    0.251189 0.254691 0.820268 0.109695
H11   H     H_    0.255472 0.758526 0.181923 0.110681
H12   H     H_    0.696919 0.338068 0.176583 0.115406
H13   H     H_    0.756319 0.753200 0.817827 0.110032
H14   H     H_    0.330904 0.676658 0.185202 0.107793
H15   H     H_    0.674505 0.674169 0.817363 0.102719
H16   H     H_    0.831960 0.179148 0.184218 0.102746
H17   H     H_    0.177818 0.171121 0.817503 0.108626
H18   H     H_    0.591802 0.589055 0.648777 0.104316
H19   H     H_    0.604889 0.589499 0.497815 0.111636
H20   H     H_    0.895981 0.089144 0.502338 0.110288
H21   H     H_    0.908089 0.088692 0.350704 0.104020
H22   H     H_    0.610085 0.411655 0.501278 0.110802
H23   H     H_    0.804440 0.836730 0.824297 0.112428
H24   H     H_    0.594586 0.411282 0.649771 0.125279
H25   H     H_    0.904944 0.910900 0.350092 0.124635
H26   H     H_    0.890161 0.911268 0.499115 0.110926
H27   H     H_    0.431356 0.626815 0.178837 0.090449
H28   H     H_    0.561130 0.644916 0.827423 0.088072
H29   H     H_    0.942109 0.145873 0.173841 0.089188
H30   H     H_    0.070371 0.126660 0.822182 0.092917
H31   H     H_    0.564748 0.412861 0.331503 0.144100
H32   H     H_    0.525240 0.412010 0.733686 0.173151
H33   H     H_    0.974770 0.911898 0.266743 0.174052
H34   H     H_    0.199176 0.838595 0.175749 0.114816
H35   H     H_    0.936175 0.912622 0.669067 0.142810
H36   H     H_    0.568585 0.587486 0.329916 0.115047
H37   H     H_    0.498620 0.586040 0.705257 0.086141
H38   H     H_    0.000493 0.086024 0.293583 0.087766
H39   H     H_    0.931385 0.087319 0.669953 0.103260
H40   H     H_    0.216577 0.408823 0.702126 0.126150
H41   H     H_    0.761684 0.410564 0.326123 0.113728
H42   H     H_    0.717137 0.908795 0.700905 0.126464
H43   H     H_    0.262814 0.910589 0.325830 0.114049
H44   H     H_    0.252776 0.631719 0.827790 0.150565
H45   H     H_    0.906105 0.533398 0.527326 0.124189
H46   H     H_    0.750948 0.625039 0.174598 0.115921
H47   H     H_    0.753938 0.133141 0.826132 0.150659
H48   H     H_    0.251689 0.123314 0.173980 0.114591
H49   H     H_    0.899203 0.409337 0.490347 0.128073
H50   H     H_    0.063378 0.426627 0.676740 0.140873
H51   H     H_    0.399472 0.909500 0.490517 0.127742
H52   H     H_    0.564256 0.926791 0.675724 0.141116
H53   H     H_    0.089600 0.599714 0.644535 0.076922
H54   H     H_    0.084494 0.598261 0.518664 0.111474
H55   H     H_    0.154224 0.690435 0.558089 0.265115
H56   H     H_    0.039579 0.515247 0.515349 0.125661
H57   H     H_    0.047613 0.689751 0.552565 0.208780
H58   H     H_    0.160828 0.693357 0.683072 0.251914
H59   H     H_    0.875116 0.613008 0.357718 0.051826
H60   H     H_    0.883013 0.618019 0.483272 0.105703
H61   H     H_    0.782751 0.698432 0.419762 0.258005
H62   H     H_    0.879721 0.709276 0.408585 0.212483
H63   H     H_    0.763248 0.694842 0.287710 0.254693
H64   H     H_    0.589314 0.100028 0.639680 0.078520
H65   H     H_    0.587243 0.097503 0.515754 0.111805
H66   H     H_    0.657209 0.189722 0.555033 0.266098
H67   H     H_    0.407696 0.033791 0.526063 0.121925
H68   H     H_    0.548619 0.189465 0.545209 0.209550
H69   H     H_    0.660141 0.193596 0.677631 0.251145
H70   H     H_    0.375893 0.112489 0.358449 0.048750
H71   H     H_    0.382465 0.118793 0.483047 0.107037
H72   H     H_    0.281664 0.199128 0.415691 0.257956
H73   H     H_    0.379644 0.209266 0.406114 0.211201
H74   H     H_    0.263833 0.194212 0.284653 0.254186
H75   H     H_    0.618349 0.357008 0.251677 0.109901
H76   H     H_    0.579913 0.288961 0.189612 0.100491
H77   H     H_    0.586647 0.256289 0.350798 0.253885
H78   H     H_    0.540173 0.015154 0.513695 0.124671
H79   H     H_    0.698540 0.284412 0.390514 0.213814
H80   H     H_    0.622730 0.323732 0.412023 0.253986
H81   H     H_    0.385418 0.366835 0.747766 0.123376
H82   H     H_    0.399617 0.294704 0.789006 0.101246
H83   H     H_    0.398830 0.268803 0.628523 0.254942
H84   H     H_    0.292977 0.305534 0.587781 0.212433
H85   H     H_    0.385426 0.340176 0.588294 0.260066
H86   H     H_    0.113888 0.867501 0.251510 0.121831
H87   H     H_    0.099943 0.795294 0.211147 0.102135
H88   H     H_    0.101583 0.769955 0.372638 0.254909
H89   H     H_    0.133479 0.661187 0.833626 0.113084
H90   H     H_    0.207122 0.807268 0.412316 0.209875
H91   H     H_    0.114737 0.841535 0.411738 0.260780
H92   H     H_    0.881750 0.856833 0.747511 0.112270
H93   H     H_    0.918910 0.788845 0.809735 0.098649
H94   H     H_    0.913604 0.755684 0.649799 0.254173
H95   H     H_    0.801603 0.783696 0.608797 0.214309
H96   H     H_    0.878420 0.822951 0.588184 0.253891
N1    N     N_R   0.395440 0.396300 0.944370 -0.068211
N2    N     N_R   0.474910 0.470990 0.794360 -0.047350
N3    N     N_R   0.025090 0.970990 0.205640 -0.047636
N4    N     N_R   0.974910 0.970990 0.794360 -0.045906
N5    N     N_R   0.320240 0.527820 0.794510 -0.084800
N6    N     N_R   0.679760 0.527820 0.205490 -0.084813
N7    N     N_R   0.820240 0.027820 0.794510 -0.084209
N8    N     N_R   0.179760 0.027820 0.205490 -0.085884
N9    N     N_R   0.524580 0.527810 0.205160 -0.045101
N10   N     N_R   0.475420 0.527810 0.794840 -0.038742
N11   N     N_R   0.024580 0.027810 0.205160 -0.035267
N12   N     N_R   0.604560 0.396300 0.055630 -0.064891
N13   N     N_R   0.975420 0.027810 0.794840 -0.044717
N14   N     N_R   0.320750 0.470990 0.794990 -0.072106
N15   N     N_R   0.679250 0.470990 0.205010 -0.067167
N16   N     N_R   0.820750 0.970990 0.794990 -0.070436
N17   N     N_R   0.179250 0.970990 0.205010 -0.069341
N18   N     N_R   0.393580 0.602500 0.942610 -0.040388
N19   N     N_R   0.606420 0.602500 0.057390 -0.037814
N20   N     N_R   0.893580 0.102500 0.942610 -0.040835
N21   N     N_R   0.106420 0.102500 0.057390 -0.037733
N22   N     N_R   0.451750 0.396300 0.057540 -0.095138
N23   N     N_R   0.895440 0.896300 0.944370 -0.064440
N24   N     N_R   0.548250 0.396300 0.942460 -0.096560
N25   N     N_R   0.951750 0.896300 0.057540 -0.096710
N26   N     N_R   0.048250 0.896300 0.942460 -0.095615
N27   N     N_R   0.104560 0.896300 0.055630 -0.068899
N28   N     N_R   0.449890 0.602500 0.055780 -0.041745
N29   N     N_R   0.550110 0.602500 0.944220 -0.041801
N30   N     N_R   0.949890 0.102500 0.055780 -0.040956
N31   N     N_R   0.050110 0.102500 0.944220 -0.043002
N32   N     N_R   0.525090 0.470990 0.205640 -0.046764
Ni1   Ni    Ni4+2 0.435420 0.434250 0.870220 0.192405
Ni2   Ni    Ni4+2 0.564580 0.434250 0.129780 0.194870
Ni3   Ni    Ni4+2 0.935420 0.934250 0.870220 0.193091
Ni4   Ni    Ni4+2 0.064580 0.934250 0.129780 0.193885
Ni5   Ni    Ni4+2 0.563400 0.564580 0.128670 0.255327
Ni6   Ni    Ni4+2 0.436600 0.564580 0.871330 0.257901
Ni7   Ni    Ni4+2 0.063400 0.064580 0.128670 0.264847
Ni8   Ni    Ni4+2 0.936600 0.064580 0.871330 0.250318
O1    O     O_3   0.218850 0.595306 0.662036 -0.641126
O2    O     O_3   0.750877 0.594459 0.348366 -0.638670
O3    O     O_3   0.720172 0.095229 0.661283 -0.644996
O4    O     O_3   0.250956 0.094552 0.348116 -0.630504
O5    O     O_3   0.483703 0.334511 0.200457 -0.654746
O6    O     O_3   0.514273 0.330661 0.802859 -0.669542
O7    O     O_3   0.985522 0.830970 0.197494 -0.670273
O8    O     O_3   0.016695 0.833896 0.800298 -0.652544

loop_
_geom_bond_atom_site_label_1
_geom_bond_atom_site_label_2
_ccdc_geom_bond_type
C40   C47   A    
C74   H35   S    
C8    O7    S    
N22   Ni2   S    
C50   N29   A    
C17   C88   A    
C36   C99   S    
C47   H16   S    
C27   H89   S    
C5    H77   S    
C86   N16   A    
C65   C90   A    
C37   C97   S    
N18   Ni6   S    
C9    H88   S    
C48   C57   A    
C102  C103  S    
C73   H33   S    
C53   C54   S    
C9    H90   S    
C31   H5    S    
N7    N16   A    
C33   H6    S    
N12   N24   A    
C105  H61   S    
C62   C67   A    
C51   N30   A    
C56   C76   S    
N5    N14   A    
N15   Ni2   S    
C4    O5    S    
C18   C19   S    
C38   C101  S    
C21   H12   S    
C86   H42   S    
C21   C99   A    
C43   N27   A    
C42   H11   S    
C85   N15   A    
C107  H68   S    
C59   H19   S    
C49   C54   A    
C30   C57   A    
C44   H13   S    
C17   C79   A    
C8    H87   S    
C77   O2    S    
C14   C24   S    
C68   H24   S    
C88   N17   A    
N20   N30   A    
C103  H55   S    
N19   N29   A    
C1    H1    S    
C48   H17   S    
C62   C98   S    
C37   C41   A    
C93   N22   A    
C41   C48   A    
C89   H44   S    
C28   C35   A    
C44   C46   A    
C8    C9    S    
C80   H36   S    
C20   H51   S    
C46   C55   A    
C52   H30   S    
C60   C66   A    
N16   Ni3   S    
C8    H86   S    
C96   N26   A    
C106  O3    S    
C90   H46   S    
N9    N32   A    
C1    N1    A    
C16   C78   A    
C75   O1    S    
C61   H21   S    
N30   Ni7   S    
C15   C85   A    
C45   H14   S    
N2    N10   A    
C15   C23   S    
C40   H9    S    
C49   H27   S    
C45   C53   A    
C106  C107  S    
C87   C92   A    
C107  H69   S    
C16   C86   A    
C96   O8    S    
C7    H83   S    
N26   Ni3   S    
N26   N27   A    
C102  O1    S    
C2    C72   A    
C94   O6    S    
N4    Ni3   S    
C104  C105  S    
C55   C65   S    
C28   C55   A    
C93   O5    S    
C6    C7    S    
N8    N17   A    
C84   H40   S    
C27   C34   A    
C16   C26   S    
C79   N8    A    
C71   C98   A    
N28   Ni5   S    
C105  H62   S    
C6    O6    S    
N17   Ni4   S    
C108  H70   S    
C67   C68   A    
N21   N31   A    
C95   N25   A    
C60   H20   S    
C96   C101  A    
C51   C76   A    
C54   C89   A    
C95   O7    S    
C89   N18   A    
C95   C100  A    
N20   Ni8   S    
C72   N2    A    
C28   H2    S    
C34   H7    S    
C64   C69   A    
C74   N4    A    
C33   C37   A    
N6    N15   A    
C57   C87   S    
C108  H71   S    
C30   H4    S    
C60   C61   A    
C11   H94   S    
C61   C64   A    
C35   C39   A    
C3    H72   S    
C43   C101  A    
C91   H47   S    
C24   H56   S    
C104  H60   S    
C25   H67   S    
C13   C66   S    
C81   N10   A    
C32   N23   A    
C36   C40   A    
C14   C84   A    
C102  H54   S    
N23   Ni3   S    
C6    H82   S    
N3    N11   A    
C78   O3    S    
C21   N12   A    
C12   C82   A    
N1    N22   A    
C92   H48   S    
C11   H95   S    
C71   N32   A    
C4    H76   S    
N25   Ni4   S    
N1    Ni1   S    
C3    H73   S    
C39   C44   A    
C84   N14   A    
N3    Ni4   S    
C83   H39   S    
C77   N6    A    
N23   N25   A    
C47   C56   A    
C20   C22   S    
C92   N21   A    
C103  H57   S    
C81   H37   S    
C23   H45   S    
C22   C26   D    
C41   H10   S    
C88   H43   S    
C7    H84   S    
C67   H22   S    
C7    H85   S    
C82   H38   S    
C72   H32   S    
C1    C97   A    
C104  O2    S    
C35   H8    S    
C93   C97   A    
C2    C63   S    
N4    N13   A    
C12   C64   S    
C108  O4    S    
C63   C68   A    
C75   N5    A    
C59   C62   A    
C69   H25   S    
C105  H63   S    
C30   C33   A    
C80   C98   A    
C34   C38   A    
C19   H50   S    
C106  H64   S    
N7    Ni8   S    
C29   H3    S    
C52   C87   A    
C50   C65   A    
N21   Ni7   S    
C58   C63   A    
N6    Ni5   S    
C4    C5    S    
C2    C81   A    
C10   H92   S    
N5    Ni6   S    
C71   H31   S    
C27   C53   A    
C58   H18   S    
C80   N9    A    
C29   C56   A    
C94   N24   A    
C3    C108  S    
N8    Ni7   S    
C13   C83   A    
N11   Ni7   S    
C5    H80   S    
N10   Ni6   S    
C17   C25   S    
C14   C75   A    
C49   N28   A    
N9    Ni5   S    
C10   H93   S    
C58   C59   A    
N13   Ni8   S    
N12   Ni2   S    
N24   Ni1   S    
C29   C31   A    
C18   H49   S    
C50   H28   S    
C79   O4    S    
C104  H59   S    
C26   H78   S    
C39   C100  S    
C15   C77   A    
C22   H52   S    
C94   C99   A    
N19   Ni5   S    
C18   C23   D    
C83   N13   A    
C102  H53   S    
C6    H81   S    
C106  H65   S    
N32   Ni2   S    
C19   C24   D    
N2    Ni1   S    
C10   O8    S    
C11   H96   S    
C4    H75   S    
C73   N3    A    
C69   C70   A    
C46   H15   S    
C3    H74   S    
C85   H41   S    
N31   Ni8   S    
C10   C11   S    
C76   C91   A    
N18   N28   A    
C82   N11   A    
C107  H66   S    
C38   C42   A    
C32   C100  A    
N29   Ni6   S    
C90   N19   A    
C66   C70   A    
C103  H58   S    
C20   C25   D    
C51   H29   S    
C70   H26   S    
C5    H79   S    
C31   C36   A    
N27   Ni4   S    
C43   H34   S    
N14   Ni1   S    
C91   N20   A    
C12   C73   A    
C78   N7    A    
C42   C45   A    
C32   H23   S    
C9    H91   S    
C52   N31   A    
C13   C74   A    
