data_mof_unit_46998.cif
_audit_creation_date              2013-03-05T16:06:17-0500
_audit_creation_method            fapswitch 2.2
_symmetry_space_group_name_H-M    P1
_symmetry_Int_Tables_number       1
_space_group_crystal_system       triclinic
_cell_length_a                    10.830108
_cell_length_b                    9.506732
_cell_length_c                    27.71352
_cell_angle_alpha                 90.213697
_cell_angle_beta                  90.092041
_cell_angle_gamma                 89.966241
_cell_volume                      2853.33047147

loop_
_atom_site_label
_atom_site_type_symbol
_atom_site_description
_atom_site_fract_x
_atom_site_fract_y
_atom_site_fract_z
_atom_type_partial_charge
O1    O     O_R   0.319640 0.618740 0.500000 -0.587245
O2    O     O_R   0.680360 0.381260 0.500000 -0.591094
O3    O     O_R   0.680360 0.618740 0.500000 -0.590461
O4    O     O_R   0.319640 0.381260 0.500000 -0.592733
C1    C     C_R   0.262016 0.500020 0.499952 0.782786
C2    C     C_R   0.737964 0.499984 0.499773 0.791674
O5    O     O_R   0.500020 0.618770 0.430260 -0.573564
O6    O     O_R   0.499980 0.381230 0.569740 -0.574683
O7    O     O_R   0.499980 0.618770 0.569740 -0.579160
O8    O     O_R   0.500020 0.381230 0.430260 -0.584097
C3    C     C_R   0.498109 0.499718 0.407401 0.792756
C4    C     C_R   0.503042 0.500279 0.592427 0.810232
Cu1   Cu    Cu3+1 0.500000 0.640660 0.500000 0.945426
Cu2   Cu    Cu3+1 0.500000 0.359340 0.500000 0.941506
C5    C     C_R   0.485423 0.635777 0.177463 0.554945
C6    C     C_R   0.593803 0.413069 0.821540 0.556225
O9    O     O_2   0.442101 0.747444 0.202454 -0.534201
O10   O     O_2   0.660417 0.318523 0.796096 -0.531579
N1    N     N_R   0.518988 0.515729 0.201360 -0.460368
N2    N     N_R   0.517125 0.504367 0.797967 -0.462925
C7    C     C_R   0.561274 0.400063 0.176800 0.542593
C8    C     C_R   0.447794 0.601097 0.822556 0.547074
C9    C     C_R   0.580828 0.604198 0.281172 -0.101329
C10   C     C_R   0.416033 0.439731 0.721662 -0.093697
C11   C     C_R   0.574209 0.599324 0.331199 -0.240402
C12   C     C_R   0.414397 0.438070 0.671363 -0.254840
C13   C     C_R   0.425687 0.405959 0.326350 0.108087
C14   C     C_R   0.610774 0.564020 0.669938 0.120671
C15   C     C_R   0.433279 0.413618 0.275617 -0.081788
C16   C     C_R   0.610937 0.564588 0.720518 -0.128102
C17   C     C_R   0.510774 0.511408 0.253133 0.290756
C18   C     C_R   0.514147 0.503210 0.746278 0.321281
C19   C     C_R   0.537529 0.525176 0.101173 -0.047930
C20   C     C_R   0.534946 0.517933 0.897997 -0.044944
C21   C     C_R   0.494669 0.642957 0.126961 -0.071806
C22   C     C_R   0.603695 0.417621 0.872071 -0.074125
C23   C     C_R   0.466029 0.766726 0.102129 -0.116494
C24   C     C_R   0.684794 0.328547 0.896746 -0.110852
C25   C     C_R   0.570577 0.402267 0.126303 -0.021225
C26   C     C_R   0.455766 0.610224 0.873034 -0.015846
C27   C     C_R   0.498840 0.500188 0.354258 -0.092888
C28   C     C_R   0.510195 0.501087 0.645199 -0.045869
H1    H     H_    0.379852 0.344268 0.252747 0.162620
H2    H     H_    0.687228 0.611182 0.740226 0.140758
H3    H     H_    0.442185 0.860773 0.122291 0.222049
H4    H     H_    0.744352 0.258407 0.876462 0.222075
C29   C     C_R   0.482941 0.634603 0.974312 0.040153
C30   C     C_R   0.597559 0.413704 0.024839 0.031120
C31   C     C_R   0.614485 0.423160 0.974096 -0.050527
C32   C     C_R   0.501133 0.648412 0.024925 -0.050847
C33   C     C_R   0.544666 0.525556 0.948879 0.098204
C34   C     C_R   0.546069 0.529540 0.050235 0.092262
C35   C     C_R   0.398272 0.719402 0.948820 -0.222630
C36   C     C_R   0.621892 0.288903 0.050559 -0.185883
C37   C     C_R   0.385792 0.708343 0.898984 -0.129099
C38   C     C_R   0.610102 0.283793 0.100480 -0.098403
O11   O     O_2   0.372760 0.689250 0.798166 -0.531527
O12   O     O_2   0.595577 0.283788 0.201209 -0.536578
C39   C     C_R   0.473213 0.773016 0.051643 -0.023323
C40   C     C_R   0.694668 0.333228 0.947203 -0.035167
H5    H     H_    0.337487 0.389092 0.652740 0.154345
H6    H     H_    0.630135 0.671859 0.352106 0.164751
H7    H     H_    0.341305 0.391529 0.741545 0.152066
H8    H     H_    0.641341 0.679717 0.264103 0.159598
H9    H     H_    0.320724 0.776924 0.880905 0.194244
H10   H     H_    0.631134 0.185997 0.118686 0.191803
H11   H     H_    0.336995 0.791382 0.967231 0.166149
H12   H     H_    0.645470 0.191975 0.032301 0.159393
C41   C     C_R   0.063901 0.372178 0.499311 -0.184407
C42   C     C_R   0.936038 0.627829 0.500303 -0.189429
C43   C     C_R   0.936184 0.372161 0.499262 -0.182212
C44   C     C_R   0.063754 0.627849 0.500393 -0.182473
H13   H     H_    0.112010 0.272243 0.498891 0.148561
H14   H     H_    0.887917 0.727749 0.500806 0.149841
H15   H     H_    0.888174 0.272231 0.498886 0.149082
H16   H     H_    0.111749 0.727787 0.500881 0.149856
C45   C     C_R   0.871773 0.499982 0.499695 -0.020499
C46   C     C_R   0.128182 0.500025 0.499881 -0.020173
C47   C     C_R   0.416467 0.074197 0.472912 -0.028082
C48   C     C_R   0.583343 0.925819 0.527177 -0.017446
C49   C     C_R   0.583346 0.074715 0.527180 -0.011786
C50   C     C_R   0.416619 0.925306 0.472836 -0.014595
H17   H     H_    0.349292 0.130115 0.451361 0.112751
H18   H     H_    0.650123 0.869936 0.548918 0.109163
H19   H     H_    0.650000 0.131098 0.548987 0.119495
H20   H     H_    0.349915 0.868956 0.451048 0.122093
N3    N     N_R   0.500000 0.852070 0.500000 -0.158467
N4    N     N_R   0.500000 0.147930 0.500000 -0.157040
C51   C     C_3   0.340575 0.300987 0.351152 -0.391599
C52   C     C_3   0.247364 0.225686 0.318558 -0.831782
H21   H     H_    0.190125 0.303249 0.298642 0.259013
H22   H     H_    0.295470 0.154643 0.292820 0.268591
H23   H     H_    0.185129 0.160392 0.341070 0.244032
H24   H     H_    0.398095 0.219575 0.368982 0.223213
H25   H     H_    0.286744 0.357242 0.379398 0.198194
C53   C     C_3   0.721708 0.623538 0.643851 -0.428626
C54   C     C_3   0.808214 0.506134 0.627337 -0.798925
H26   H     H_    0.842443 0.446167 0.658983 0.265184
H27   H     H_    0.759997 0.432860 0.602399 0.240425
H28   H     H_    0.888630 0.552217 0.608293 0.246375
H29   H     H_    0.692837 0.687924 0.612556 0.211698
H30   H     H_    0.774454 0.695233 0.668053 0.209317
C55   C     C_2   0.469139 0.914283 0.028827 0.326690
H31   H     H_    0.511005 0.931025 0.993778 0.095638
O13   O     O_2   0.420732 0.014171 0.049208 -0.532537
C56   C     C_2   0.801289 0.259767 0.969727 0.346380
H32   H     H_    0.836103 0.293642 0.004604 0.089985
O14   O     O_2   0.852880 0.162095 0.949274 -0.524865

loop_
_geom_bond_atom_site_label_1
_geom_bond_atom_site_label_2
_geom_bond_distance
_ccdc_geom_bond_type
C47   H17   1.081258 S    
C53   H30   1.111992 S    
C13   C15   1.410681 A    
C44   H16   1.083280 S    
O3    C2    1.289555 A    
N1    C17   1.438465 S    
C8    O11   1.349533 S    
C54   H26   1.110875 S    
C19   C34   1.415613 A    
C30   C36   1.410861 A    
C20   C33   1.415464 A    
C19   C25   1.408264 A    
C31   C40   1.427225 A    
O1    C1    1.290003 A    
C32   C39   1.427138 A    
N1    C7    1.370017 A    
C12   H5    1.083615 S    
C10   C12   1.394102 A    
C48   N3    1.366806 A    
C36   H12   1.080272 S    
C56   H32   1.084785 S    
C50   N3    1.366717 A    
C14   C28   1.417686 A    
C51   H24   1.110203 S    
C41   C43   1.383190 A    
O7    Cu1   1.944684 S    
C4    C28   1.464432 S    
C54   H27   1.109628 S    
C5    N1    1.370261 A    
C31   C33   1.417835 A    
C42   H14   1.083274 S    
C32   C34   1.417789 A    
C41   H13   1.083307 S    
O3    Cu1   1.964281 S    
O6    C4    1.293048 A    
C29   C35   1.411079 A    
Cu1   Cu2   2.674434 S    
C15   H1    1.080440 S    
C42   C45   1.400965 A    
C16   H2    1.083673 S    
C41   C46   1.401052 A    
O2    C2    1.289981 A    
C35   H11   1.080264 S    
C5    C21   1.405225 A    
C47   N4    1.366733 A    
C37   H9    1.083272 S    
C29   C32   1.421707 A    
C35   C37   1.391088 A    
C36   C38   1.390591 A    
C43   H15   1.083262 S    
C48   H18   1.081141 S    
O8    Cu2   1.944684 S    
C11   C27   1.403548 A    
O4    C1    1.289703 A    
C2    C45   1.449176 S    
C29   C33   1.419026 A    
C50   H20   1.081712 S    
C9    C17   1.396904 A    
C51   H25   1.112056 S    
O5    C3    1.295132 A    
C10   C18   1.397859 A    
C13   C27   1.421995 A    
C52   H22   1.110651 S    
C25   C38   1.399405 A    
C7    C25   1.403477 A    
C30   C34   1.419075 A    
C6    N2    1.367983 A    
C26   C37   1.399108 A    
C8    C26   1.403805 A    
C53   C54   1.526192 S    
Cu1   N3    2.009818 S    
C55   O13   1.221483 D    
C23   C39   1.402911 A    
C24   C40   1.402779 A    
C9    H8    1.082951 S    
N2    C8    1.367460 A    
C10   H7    1.082751 S    
C20   C26   1.409078 A    
O1    Cu1   1.964525 S    
C23   H3    1.083852 S    
C43   C45   1.400818 A    
C54   H28   1.110234 S    
C40   C56   1.486862 S    
C12   C28   1.402659 A    
C52   H23   1.110667 S    
N2    C18   1.432810 S    
C5    O9    1.349732 S    
C30   C31   1.421647 A    
O6    Cu2   1.943141 S    
C21   C23   1.399726 A    
C48   C49   1.415506 A    
C47   C50   1.415459 A    
C14   C53   1.514236 S    
C39   C55   1.487136 S    
C22   C24   1.399155 A    
C51   C52   1.529884 S    
Cu2   N4    2.009819 S    
C7    O12   1.349741 S    
C15   C17   1.401366 A    
C6    C22   1.404820 A    
C16   C18   1.398274 A    
C52   H21   1.110869 S    
C56   O14   1.221528 D    
C38   H10   1.083390 S    
C14   C16   1.401738 A    
C19   C21   1.405151 A    
C13   C51   1.525200 S    
C20   C22   1.405632 A    
C11   H6    1.083716 S    
C9    C11   1.389349 A    
O4    Cu2   1.964281 S    
O2    Cu2   1.964525 S    
O7    C4    1.292470 A    
C24   H4    1.083764 S    
C49   N4    1.366609 A    
O8    C3    1.294553 A    
O5    Cu1   1.943141 S    
C6    O10   1.349716 S    
C3    C27   1.472818 S    
C44   C46   1.400949 A    
C55   H31   1.084923 S    
C42   C44   1.383171 A    
C1    C46   1.449438 S    
C53   H29   1.107941 S    
C49   H19   1.081795 S    
