data_mof_unit_21027.cif
_audit_creation_date              2012-12-11T15:13:51-0500
_audit_creation_method            fapswitch 2.2
_symmetry_space_group_name_H-M    P1
_symmetry_Int_Tables_number       1
_space_group_crystal_system       triclinic
_cell_length_a                    6.945052
_cell_length_b                    13.487704
_cell_length_c                    20.124614
_cell_angle_alpha                 104.112292
_cell_angle_beta                  89.856861
_cell_angle_gamma                 90.689049
_cell_volume                      1828.10296045

loop_
_atom_site_label
_atom_site_type_symbol
_atom_type_description
_atom_site_fract_x
_atom_site_fract_y
_atom_site_fract_z
_atom_type_partial_charge
O1    O     O_R   0.506780 0.600060 0.449950 -0.538590
O2    O     O_R   0.179840 0.597110 0.589410 -0.543686
O3    O     O_R   0.004570 0.399940 0.550050 -0.538742
C1    C     C_R   0.348491 0.618957 0.616930 0.676339
O4    O     O_R   0.177380 0.612160 0.452890 -0.540722
O5    O     O_R   0.002100 0.415100 0.412560 -0.542002
C2    C     C_R   0.347104 0.639043 0.436398 0.695979
O6    O     O_R   0.509250 0.584900 0.587440 -0.540611
O7    O     O_3   0.337570 0.435330 0.486930 -0.369866
V1    V     V_3+5 0.064650 0.512000 0.502430 1.412222
O8    O     O_R   0.672090 0.402890 0.410590 -0.542099
C3    C     C_R   0.840613 0.381209 0.383092 0.693458
O9    O     O_R   0.674540 0.387840 0.547110 -0.541198
C4    C     C_R   0.842568 0.360897 0.563576 0.694407
V2    V     V_3+5 0.564040 0.488000 0.497570 1.414002
O10   O     O_3   0.840990 0.564670 0.513070 -0.370045
C5    C     C_R   0.847392 0.106207 0.607637 -0.161705
H1    H     H_    0.839175 0.155823 0.514174 0.099462
H2    H     H_    0.853492 0.980023 0.689995 0.117314
H3    H     H_    0.844641 0.026080 0.580795 0.111855
C6    C     C_R   0.848687 0.283285 0.602962 -0.029957
C7    C     C_R   0.866556 0.319405 0.932703 -0.169786
C8    C     C_R   0.864537 0.396253 0.897684 -0.122232
C9    C     C_R   0.860705 0.371959 0.826315 -0.162910
C10   C     C_R   0.858790 0.268814 0.787762 0.078489
C11   C     C_R   0.860164 0.190304 0.824116 0.070989
C12   C     C_R   0.855566 0.240970 0.714519 0.072514
C13   C     C_R   0.852767 0.135661 0.679534 0.146466
C14   C     C_R   0.854935 0.060380 0.716369 -0.218278
C15   C     C_R   0.858738 0.087047 0.787443 -0.204345
C16   C     C_R   0.854564 0.313860 0.674502 -0.216923
C17   C     C_R   0.844535 0.179678 0.569603 -0.177613
C18   C     C_R   0.863976 0.216812 0.896709 -0.072871
H4    H     H_    0.856989 0.394989 0.697016 0.090271
H5    H     H_    0.870409 0.339972 0.988221 0.097914
H6    H     H_    0.859427 0.435931 0.803137 0.101924
H7    H     H_    0.866370 0.475553 0.926099 0.117167
H8    H     H_    0.860292 0.025599 0.813442 0.116889
C19   C     C_3   0.675905 0.222218 0.228358 -0.166378
C20   C     C_3   0.770557 0.200406 0.293150 -0.199283
H9    H     H_    0.703621 0.159239 0.328965 0.101481
C21   C     C_3   0.849695 0.311182 0.312574 -0.052426
C22   C     C_3   0.754402 0.333830 0.248772 -0.120025
C23   C     C_3   0.941191 0.299864 0.207183 -0.197510
C24   C     C_3   0.037103 0.278350 0.271865 -0.177318
C25   C     C_3   0.955131 0.168810 0.251413 0.386948
C26   C     C_3   0.862607 0.189062 0.187358 -0.025893
H10   H     H_    0.670375 0.403139 0.248230 0.108052
H11   H     H_    0.010381 0.340598 0.171507 0.110993
H12   H     H_    0.186322 0.299806 0.289919 0.116505
C27   C     C_3   0.538113 0.725067 0.730364 -0.122994
C28   C     C_3   0.458556 0.835235 0.749739 -0.139617
H13   H     H_    0.542483 0.905903 0.750072 0.109655
H14   H     H_    0.688102 0.704167 0.714018 0.107448
C29   C     C_3   0.357041 0.811436 0.812295 -0.003826
C30   C     C_3   0.436629 0.702097 0.793725 -0.142225
C31   C     C_3   0.254063 0.665380 0.750126 -0.137230
C32   C     C_3   0.174557 0.775564 0.769494 -0.118697
C33   C     C_3   0.276024 0.798496 0.706117 -0.138450
C34   C     C_3   0.355657 0.689124 0.687560 -0.005963
H15   H     H_    0.502435 0.662685 0.830327 0.099777
H16   H     H_    0.169848 0.594774 0.749840 0.098853
H17   H     H_    0.024629 0.796657 0.785835 0.105763
C35   C     C_R   0.426624 0.890131 0.391121 -0.158902
H18   H     H_    0.422281 0.840623 0.484654 0.100962
H19   H     H_    0.465122 0.014172 0.308117 0.116269
H20   H     H_    0.460482 0.968536 0.417395 0.109496
C36   C     C_R   0.360269 0.716435 0.396921 -0.032271
C37   C     C_R   0.311518 0.682561 0.067848 -0.167730
C38   C     C_R   0.289673 0.606626 0.103169 -0.119855
C39   C     C_R   0.307106 0.630024 0.174270 -0.158748
C40   C     C_R   0.347984 0.731238 0.212201 0.077060
C41   C     C_R   0.373063 0.808517 0.175443 0.058064
C42   C     C_R   0.364229 0.758409 0.285231 0.072882
C43   C     C_R   0.407600 0.861547 0.319513 0.132679
C44   C     C_R   0.432622 0.935473 0.282251 -0.185947
C45   C     C_R   0.415314 0.909678 0.211449 -0.134608
C46   C     C_R   0.339619 0.686885 0.325695 -0.214191
C47   C     C_R   0.404335 0.817772 0.429533 -0.174068
C48   C     C_R   0.353427 0.783109 0.103185 -0.074720
H21   H     H_    0.307035 0.607358 0.303697 0.092000
H22   H     H_    0.295015 0.662954 0.012624 0.098176
H23   H     H_    0.287498 0.566945 0.197754 0.102281
H24   H     H_    0.257627 0.528878 0.075243 0.115694
H25   H     H_    0.435420 0.970164 0.185159 0.130772
O11   O     O_R   0.203580 0.914920 0.912610 -0.542686
O12   O     O_R   0.535710 0.887810 0.047120 -0.542577
O13   O     O_R   0.710730 0.084950 0.087430 -0.547395
C49   C     C_R   0.366136 0.861097 0.063812 0.693121
O14   O     O_R   0.533010 0.902850 0.910600 -0.545104
O15   O     O_R   0.708010 0.100090 0.949930 -0.539403
C50   C     C_R   0.364360 0.881244 0.883012 0.674611
O16   O     O_R   0.206300 0.899780 0.050100 -0.530866
O17   O     O_3   0.375170 0.064580 0.013100 -0.370996
V3    V     V_3+5 0.648200 0.988020 0.997570 1.419097
O18   O     O_R   0.038030 0.112330 0.952840 -0.542837
C51   C     C_R   0.870021 0.138802 0.936098 0.680989
O19   O     O_R   0.040730 0.097300 0.089360 -0.533681
C52   C     C_R   0.872168 0.118774 0.116920 0.717919
V4    V     V_3+5 0.148780 0.012220 0.002360 1.440038
O20   O     O_3   0.871930 0.935430 0.986900 -0.371503
H26   H     H_    0.527219 0.199385 0.210266 0.130989
O21   O     O_3   0.060229 0.081181 0.251615 -0.652995
H27   H     H_    0.100307 0.089008 0.299872 0.275726
H28   H     H_    0.210135 0.837982 0.669568 0.101135

loop_
_geom_bond_atom_site_label_1
_geom_bond_atom_site_label_2
_ccdc_geom_bond_type
C23   H11   S    
C29   C30   S    
H18   C47   S    
C1    O6    A    
C31   H16   S    
C24   C25   S    
C23   C24   S    
C20   C25   S    
C7    H5    S    
C6    C16   A    
C33   H28   S    
C4    C6    S    
C13   C14   A    
O5    C3    A    
V2    O10   S    
C5    H3    S    
C26   C52   S    
C30   C31   S    
C15   H8    S    
C27   C30   S    
C48   C49   S    
C3    C21   S    
C37   H22   S    
C2    C36   S    
O8    V2    S    
C41   C48   A    
O12   V3    S    
C8    C9    A    
C38   C39   A    
O1    V2    S    
O11   V4    S    
C22   H10   S    
C28   C29   S    
C36   C47   A    
C20   C21   S    
O13   V3    S    
C45   H25   S    
C33   C34   S    
O9    C4    A    
C49   O16   A    
O17   V3    S    
C39   H23   S    
C36   C46   A    
C6    C17   A    
C42   C43   A    
C12   C16   A    
C27   C28   S    
C35   H20   S    
O14   V3    S    
C9    C10   A    
C40   C42   A    
C19   C20   S    
O4    C2    A    
C31   C34   S    
C19   C22   S    
C10   C11   A    
C8    H7    S    
O15   C51   A    
C21   C24   S    
O2    C1    A    
C43   C44   A    
C14   C15   A    
C28   C33   S    
C11   C18   A    
O14   C50   A    
O17   V4    S    
H19   C44   S    
O18   C51   A    
C1    C34   S    
C16   H4    S    
C30   H15   S    
C9    H6    S    
C44   C45   A    
O16   V4    S    
O3    C4    A    
C20   H9    S    
C29   C50   S    
C11   C15   A    
O6    V2    S    
O19   V4    S    
O12   C49   A    
C22   C23   S    
C35   C47   A    
H1    C17   S    
C21   C22   S    
O2    V1    S    
C12   C13   A    
C38   H24   S    
C28   H13   S    
C19   H26   S    
C19   C26   S    
O7    V1    S    
C32   H17   S    
C7    C18   A    
C25   C26   S    
O1    C2    A    
C5    C13   A    
C40   C41   A    
O5    V1    S    
O8    C3    A    
C23   C26   S    
C10   C12   A    
C25   O21   S    
C27   H14   S    
O9    V2    S    
C32   C33   S    
O4    V1    S    
O3    V1    S    
O11   C50   A    
C46   H21   S    
C31   C32   S    
C24   H12   S    
O18   V4    S    
V4    O20   S    
C35   C43   A    
C18   C51   S    
O7    V2    S    
C37   C38   A    
O13   C52   A    
O15   V3    S    
C39   C40   A    
O19   C52   A    
C42   C46   A    
C29   C32   S    
O21   H27   S    
C5    C17   A    
C41   C45   A    
C7    C8    A    
C37   C48   A    
V1    O10   S    
C27   C34   S    
V3    O20   S    
H2    C14   S    
