data_mof_unit_67788.cif
_audit_creation_date              2013-03-05T15:41:21-0500
_audit_creation_method            fapswitch 2.2
_symmetry_space_group_name_H-M    P1
_symmetry_Int_Tables_number       1
_space_group_crystal_system       triclinic
_cell_length_a                    7.850851
_cell_length_b                    8.708354
_cell_length_c                    10.763211
_cell_angle_alpha                 91.984144
_cell_angle_beta                  85.290376
_cell_angle_gamma                 93.411754
_cell_volume                      731.747643213

loop_
_atom_site_label
_atom_site_type_symbol
_atom_site_description
_atom_site_fract_x
_atom_site_fract_y
_atom_site_fract_z
_atom_type_partial_charge
O1    O     O_R   0.389250 0.738570 0.508370 -0.623173
O2    O     O_R   0.678390 0.711620 0.486510 -0.499180
C1    C     C_R   0.544272 0.793843 0.497554 0.892074
O3    O     O_R   0.355430 0.513500 0.696140 -0.550362
O4    O     O_R   0.644580 0.486550 0.674270 -0.562589
C2    C     C_R   0.502523 0.509071 0.741095 1.022934
Zn1   Zn    Zn3+2 0.306940 0.517990 0.514600 1.265923
Zn2   Zn    Zn3+2 0.693060 0.482010 0.485400 1.281291
O5    O     O_R   0.321610 0.288380 0.513490 -0.593670
O6    O     O_R   0.610750 0.261430 0.491630 -0.555943
O7    O     O_R   0.355420 0.513450 0.325730 -0.557616
O8    O     O_R   0.644570 0.486500 0.303860 -0.577611
C3    C     C_R   0.454816 0.206353 0.503538 0.939456
C4    C     C_R   0.500493 0.505343 0.258108 1.042264
C5    C     C_3   0.329185 0.576213 0.939977 0.604749
C6    C     C_3   0.330037 0.584501 0.085558 0.611161
C7    C     C_3   0.530663 0.348924 0.918824 -0.004372
C8    C     C_3   0.668671 0.621039 0.916838 0.564416
C9    C     C_3   0.505263 0.517770 0.877000 -0.566345
C10   C     C_3   0.502926 0.511795 0.121010 -0.602781
C11   C     C_3   0.503664 0.334463 0.064916 0.280278
C12   C     C_3   0.666639 0.620799 0.066268 0.142796
H1    H     H_    0.667704 0.335064 0.893437 0.250772
C13   C     C_2   0.565642 0.956117 0.494783 0.518732
C14   C     C_2   0.428501 0.044708 0.508509 -0.048291
N1    N     N_2   0.950330 0.457950 0.465890 0.079357
N2    N     N_2   0.049670 0.542050 0.534110 0.248419
F1    F     F_    0.201796 0.465671 0.913082 -0.468010
N3    N     N_R   0.830405 0.560529 0.100460 0.301957
O9    O     O_R   0.912682 0.623963 0.190771 -0.197198
O10   O     O_R   0.892941 0.438308 0.046476 -0.154139
N4    N     N_R   0.642959 0.244297 0.108065 0.251140
O11   O     O_R   0.642358 0.209404 0.224589 -0.268859
O12   O     O_R   0.740016 0.164495 0.029273 -0.174082
F2    F     F_    0.729873 0.014525 0.474271 -0.503357
N5    N     N_R   0.254315 0.984901 0.530616 0.241198
O13   O     O_R   0.186911 0.969443 0.644254 -0.162925
O14   O     O_R   0.158430 0.962858 0.437924 -0.150449
N6    N     N_R   0.993836 0.306579 0.452337 0.301235
O15   O     O_R   0.983303 0.223421 0.551096 -0.221756
O16   O     O_R   0.985185 0.237546 0.343883 -0.157408
F3    F     F_    0.988124 0.677538 0.570030 -0.420843
N7    N     N_R   0.280580 0.719634 0.885470 0.213470
O17   O     O_R   0.143307 0.717789 0.825255 -0.124647
O18   O     O_R   0.362202 0.851362 0.903572 -0.271743
N8    N     N_R   0.294459 0.739855 0.140690 0.248873
O19   O     O_R   0.164227 0.809520 0.107058 -0.160571
O20   O     O_R   0.347275 0.784397 0.248083 -0.324539
F4    F     F_    0.193178 0.491723 0.133579 -0.510469
N9    N     N_R   0.451199 0.220763 0.845602 0.252827
O21   O     O_R   0.305248 0.230714 0.798173 -0.209454
O22   O     O_R   0.544773 0.107999 0.806047 -0.261771
N10   N     N_R   0.340842 0.247164 0.106595 0.304773
O23   O     O_R   0.222699 0.205513 0.032584 -0.099953
O24   O     O_R   0.312656 0.208974 0.222589 -0.277629
F5    F     F_    0.814063 0.552987 0.863584 -0.535200
N11   N     N_R   0.691680 0.775651 0.863595 0.295116
O25   O     O_R   0.824412 0.862379 0.892669 -0.121743
O26   O     O_R   0.631616 0.801718 0.757895 -0.350171
N12   N     N_R   0.655091 0.779961 0.122862 0.233959
O27   O     O_R   0.582502 0.888088 0.070268 -0.257141
O28   O     O_R   0.694336 0.809852 0.236534 -0.263181

loop_
_geom_bond_atom_site_label_1
_geom_bond_atom_site_label_2
_geom_bond_distance
_ccdc_geom_bond_type
C7    N9    1.480839 S    
N1    N2    1.293284 D    
O4    Zn2   2.036681 S    
N9    O22   1.300307 A    
N7    O17   1.301404 A    
C5    C9    1.592291 S    
N3    O9    1.300270 A    
C12   N3    1.495104 S    
Zn2   N1    2.035980 S    
C8    N11   1.476937 S    
C8    F5    1.390041 S    
Zn2   O8    2.023264 S    
N4    O11   1.300213 A    
N3    O10   1.297687 A    
N5    O14   1.300662 A    
O2    C1    1.303379 A    
C1    C13   1.414165 S    
C5    N7    1.481199 S    
N6    O16   1.299311 A    
O1    Zn1   1.991471 S    
N10   O23   1.299115 A    
C10   C11   1.638674 S    
C11   N10   1.492313 S    
C2    C9    1.463969 S    
N7    O18   1.296930 A    
N2    F3    1.334410 S    
C3    C14   1.412736 S    
N11   O25   1.302980 A    
C7    H1    1.100755 S    
O3    Zn1   2.023265 S    
Zn2   O6    1.991469 S    
C6    C10   1.610240 S    
C7    C9    1.581096 S    
C10   C12   1.633809 S    
Zn1   O7    2.036680 S    
N10   O24   1.301098 A    
C12   N12   1.499269 S    
O4    C2    1.297749 A    
O7    C4    1.304532 A    
N8    O20   1.298847 A    
N1    N6    1.381185 S    
N11   O26   1.298812 A    
C13   F2    1.361201 S    
C14   N5    1.438170 S    
C5    F1    1.387206 S    
C5    C6    1.566626 S    
C11   N4    1.496334 S    
C4    C10   1.477140 S    
C6    F4    1.381585 S    
Zn1   N2    2.035980 S    
C13   C14   1.356870 D    
N12   O28   1.299954 A    
C8    C9    1.601474 S    
C6    N8    1.490840 S    
N6    O15   1.301106 A    
Zn1   O5    2.009238 S    
O5    C3    1.296379 A    
N8    O19   1.301635 A    
N5    O13   1.300298 A    
O2    Zn2   2.009238 S    
N9    O21   1.300769 A    
C8    C12   1.607186 S    
O3    C2    1.291334 A    
C7    C11   1.577678 S    
O8    C4    1.291524 A    
N12   O27   1.298311 A    
O1    C1    1.279590 A    
O6    C3    1.285996 A    
N4    O12   1.303401 A    
