data_mof_unit_62867.cif
_audit_creation_date              2012-12-10T20:04:45-0500
_audit_creation_method            fapswitch 2.2
_symmetry_space_group_name_H-M    P1
_symmetry_Int_Tables_number       1
_space_group_crystal_system       triclinic
_cell_length_a                    38.468174
_cell_length_b                    32.12537
_cell_length_c                    21.366725
_cell_angle_alpha                 89.957605
_cell_angle_beta                  123.379736
_cell_angle_gamma                 90.076389
_cell_volume                      22049.3537464

loop_
_atom_site_label
_atom_site_type_symbol
_atom_type_description
_atom_site_fract_x
_atom_site_fract_y
_atom_site_fract_z
_atom_type_partial_charge
C1    C     C_R   0.919372 0.999980 0.419440 0.897006
C2    C     C_R   0.080628 0.000022 0.580558 0.897629
C3    C     C_R   0.419372 0.499980 0.419440 0.897294
C4    C     C_R   0.580631 0.500038 0.580575 0.901125
C5    C     C_3   0.000161 0.999949 0.688975 -0.056872
C6    C     C_3   0.999815 0.000058 0.310998 -0.057187
C7    C     C_3   0.500163 0.499951 0.688976 -0.057105
C8    C     C_3   0.499811 0.500060 0.310993 -0.057179
C9    C     C_R   0.727564 0.973080 0.189440 -0.216835
C10   C     C_R   0.272358 0.974007 0.811857 -0.219653
C11   C     C_R   0.227564 0.473121 0.189374 -0.216849
C12   C     C_R   0.772394 0.475832 0.814965 -0.219714
C13   C     C_R   0.706389 0.001051 0.206821 0.070381
C14   C     C_R   0.293613 0.001170 0.793227 0.070847
C15   C     C_R   0.206389 0.501050 0.206824 0.070390
C16   C     C_R   0.793598 0.501751 0.794376 0.070757
C17   C     C_R   0.728234 0.028539 0.267602 -0.033047
C18   C     C_R   0.271846 0.027894 0.731264 -0.032833
C19   C     C_R   0.228233 0.528496 0.267671 -0.033101
C20   C     C_R   0.771770 0.528031 0.731768 -0.033031
C21   C     C_R   0.771961 0.027679 0.311251 -0.055491
C22   C     C_R   0.228117 0.027073 0.687674 -0.055684
C23   C     C_R   0.271960 0.527636 0.311318 -0.055502
C24   C     C_R   0.728036 0.527808 0.689213 -0.055584
C25   C     C_R   0.793332 0.999213 0.293642 0.004156
C26   C     C_R   0.206664 0.999406 0.706527 0.004178
C27   C     C_R   0.293332 0.499213 0.293640 0.004162
C28   C     C_R   0.706638 0.501359 0.709997 0.004573
C29   C     C_R   0.771076 0.971458 0.232274 -0.047779
C30   C     C_R   0.228840 0.972435 0.769116 -0.047135
C31   C     C_R   0.271076 0.471500 0.232205 -0.047762
C32   C     C_R   0.728872 0.475305 0.773879 -0.047126
C33   C     C_1   0.661874 0.000666 0.161575 -0.017373
C34   C     C_1   0.338127 0.000745 0.838445 -0.019727
C35   C     C_1   0.161874 0.500665 0.161577 -0.017406
C36   C     C_1   0.838117 0.500950 0.838881 -0.019699
C37   C     C_1   0.837987 0.999525 0.338015 0.033964
C38   C     C_1   0.162011 0.999706 0.662087 0.033795
C39   C     C_1   0.337987 0.499525 0.338013 0.033968
C40   C     C_1   0.661998 0.500557 0.664148 0.032847
C41   C     C_1   0.875235 0.999856 0.375298 -0.101864
C42   C     C_1   0.124763 0.999990 0.624745 -0.101769
C43   C     C_1   0.375235 0.499856 0.375298 -0.101905
C44   C     C_1   0.624762 0.500184 0.625700 -0.103558
C45   C     C_R   0.000024 0.999974 0.621702 0.893976
C46   C     C_R   0.999957 0.000006 0.378279 0.894156
C47   C     C_R   0.500026 0.499974 0.621702 0.897661
C48   C     C_R   0.499955 0.500006 0.378276 0.894183
C49   C     C_1   0.624633 0.000328 0.124122 -0.144149
C50   C     C_1   0.375367 0.000370 0.875883 -0.147837
C51   C     C_1   0.124633 0.500327 0.124122 -0.144161
C52   C     C_1   0.875360 0.500406 0.875966 -0.147953
C53   C     C_R   0.999979 0.919385 0.999980 0.884375
C54   C     C_R   0.499979 0.419384 0.999980 0.884325
C55   C     C_R   0.000193 0.000205 0.878359 0.937446
C56   C     C_R   0.999806 0.000281 0.121638 0.936978
C57   C     C_R   0.500194 0.500208 0.878360 0.937510
C58   C     C_R   0.499806 0.500285 0.121637 0.936992
C59   C     C_R   0.000026 0.080670 0.000064 1.009563
C60   C     C_R   0.500027 0.580670 0.000064 1.009437
C61   C     C_R   0.500029 0.919592 0.000058 0.887967
C62   C     C_R   0.000029 0.419592 0.000058 0.888164
C63   C     C_R   0.580475 0.000030 0.080254 0.901677
C64   C     C_R   0.419524 0.000033 0.919746 0.894332
C65   C     C_R   0.080475 0.500030 0.080254 0.901675
C66   C     C_R   0.919521 0.499994 0.919749 0.894496
C67   C     C_R   0.500001 0.080552 0.999980 0.897342
C68   C     C_R   0.000001 0.580552 0.999980 0.897341
C69   C     C_R   0.462608 0.228532 0.952030 -0.004495
C70   C     C_R   0.537305 0.228625 0.047696 -0.004648
C71   C     C_R   0.962821 0.728535 0.950728 -0.004378
C72   C     C_R   0.037096 0.728625 0.049010 -0.004693
C73   C     C_R   0.499964 0.206676 0.999864 0.056110
C74   C     C_R   0.999965 0.706676 0.999869 0.056114
C75   C     C_R   0.036821 0.772069 0.048669 -0.206263
C76   C     C_R   0.963067 0.771981 0.951076 -0.206708
C77   C     C_R   0.537027 0.272070 0.047361 -0.206610
C78   C     C_R   0.462857 0.271979 0.952370 -0.206834
C79   C     C_3   0.962045 0.008169 0.691937 -0.013406
C80   C     C_3   0.038239 0.006778 0.308319 -0.012710
C81   C     C_3   0.462029 0.508078 0.691923 -0.014178
C82   C     C_3   0.538251 0.506680 0.308328 -0.012190
C83   C     C_R   0.999937 0.793536 0.999876 0.126262
C84   C     C_R   0.499935 0.293535 0.999870 0.126162
C85   C     C_1   0.499977 0.162007 0.999887 -0.032932
C86   C     C_1   0.999978 0.662007 0.999890 -0.032922
C87   C     C_1   0.999927 0.837918 0.999889 -0.032961
C88   C     C_1   0.499925 0.337917 0.999885 -0.033245
C89   C     C_1   0.999938 0.875184 0.999920 -0.156243
C90   C     C_1   0.499938 0.375184 0.999918 -0.156588
C91   C     C_1   0.499989 0.124743 0.999923 -0.143763
C92   C     C_1   0.999989 0.624743 0.999924 -0.143839
C93   C     C_R   0.511773 0.772036 0.956321 -0.071595
C94   C     C_R   0.495855 0.772061 0.053381 -0.071779
C95   C     C_R   0.011887 0.272035 0.956485 -0.071554
C96   C     C_R   0.995733 0.272062 0.053235 -0.071665
C97   C     C_R   0.504367 0.793636 0.005530 -0.026035
C98   C     C_R   0.004362 0.293636 0.005542 -0.025979
C99   C     C_R   0.994313 0.228232 0.051097 -0.083564
C100  C     C_R   0.010375 0.228203 0.954958 -0.083775
C101  C     C_R   0.494433 0.728231 0.051246 -0.083608
C102  C     C_R   0.510262 0.728204 0.954799 -0.083864
C103  C     C_R   0.001506 0.206666 0.001972 0.039863
C104  C     C_R   0.501508 0.706666 0.001969 0.039800
C105  C     C_1   0.502554 0.838266 0.003089 0.077064
C106  C     C_1   0.002552 0.338266 0.003093 0.077358
C107  C     C_3   0.974059 0.970793 0.745397 -0.233187
C108  C     C_3   0.024675 0.969910 0.253405 -0.232851
C109  C     C_3   0.474138 0.470732 0.745475 -0.233610
C110  C     C_3   0.524589 0.469849 0.253317 -0.233455
C111  C     C_1   0.000610 0.161979 0.000883 -0.038775
C112  C     C_1   0.500611 0.661979 0.000882 -0.038685
C113  C     C_1   0.000166 0.124769 0.000316 -0.130505
C114  C     C_1   0.500166 0.624769 0.000315 -0.130543
C115  C     C_1   0.501163 0.875481 0.001321 -0.087609
C116  C     C_1   0.001162 0.375481 0.001322 -0.087288
C117  C     C_3   0.000683 0.000711 0.811481 -0.125962
C118  C     C_3   0.999315 0.000850 0.188513 -0.125904
C119  C     C_3   0.500688 0.500715 0.811485 -0.127331
C120  C     C_3   0.499312 0.500857 0.188508 -0.125731
C121  C     C_3   0.988272 0.037768 0.758037 -0.025295
C122  C     C_3   0.013259 0.037391 0.243390 -0.024583
C123  C     C_3   0.488185 0.537742 0.757950 -0.026522
C124  C     C_3   0.513351 0.537360 0.243481 -0.024508
C125  C     C_3   0.026837 0.029887 0.754613 -0.255094
C126  C     C_3   0.974405 0.031031 0.246555 -0.255553
C127  C     C_3   0.526767 0.529955 0.754539 -0.250876
C128  C     C_3   0.474482 0.531101 0.246632 -0.255584
C129  C     C_3   0.038829 0.992494 0.807971 -0.012290
C130  C     C_3   0.960860 0.994146 0.191743 -0.012327
C131  C     C_3   0.538854 0.492594 0.807990 -0.014906
C132  C     C_3   0.460839 0.494252 0.191721 -0.012086
C133  C     C_3   0.012665 0.962447 0.741836 -0.181048
C134  C     C_3   0.985752 0.963089 0.256673 -0.181086
C135  C     C_3   0.512764 0.462482 0.741930 -0.179684
C136  C     C_3   0.485649 0.463129 0.256569 -0.181408
H1    H     H_    0.952392 0.946923 0.742772 0.166266
H2    H     H_    0.045328 0.945208 0.255061 0.165431
H3    H     H_    0.452530 0.446808 0.742912 0.166248
H4    H     H_    0.545177 0.445093 0.254906 0.165105
H5    H     H_    0.934608 0.789026 0.913430 0.156138
H6    H     H_    0.065269 0.789183 0.086319 0.156320
H7    H     H_    0.434236 0.289023 0.915728 0.156237
H8    H     H_    0.565638 0.289185 0.084007 0.156319
H9    H     H_    0.048413 0.053813 0.757043 0.181259
H10   H     H_    0.953841 0.055789 0.245065 0.182382
H11   H     H_    0.548283 0.553935 0.756907 0.182802
H12   H     H_    0.453983 0.555913 0.245206 0.182402
H13   H     H_    0.022817 0.931678 0.733878 0.188597
H14   H     H_    0.974328 0.932748 0.263453 0.188272
H15   H     H_    0.522992 0.431739 0.734045 0.188248
H16   H     H_    0.474145 0.432819 0.263270 0.188070
H17   H     H_    0.709744 0.952088 0.142412 0.201962
H18   H     H_    0.290118 0.953594 0.859798 0.200741
H19   H     H_    0.209745 0.452160 0.142296 0.201951
H20   H     H_    0.790183 0.456210 0.864056 0.200586
O1    O     O_R   0.939010 0.034440 0.439030 -0.614639
O2    O     O_R   0.060990 0.034440 0.560970 -0.614924
O3    O     O_R   0.439010 0.534440 0.439030 -0.614719
O4    O     O_R   0.560990 0.534440 0.560970 -0.611866
O5    O     O_R   0.561000 0.000050 0.113470 -0.607574
O6    O     O_R   0.439000 0.000050 0.886530 -0.609471
O7    O     O_R   0.061000 0.500050 0.113470 -0.607537
O8    O     O_R   0.939000 0.500050 0.886530 -0.609044
O9    O     O_R   0.561000 0.999980 0.008430 -0.609723
O10   O     O_R   0.439000 0.999980 0.991570 -0.611379
O11   O     O_R   0.061000 0.499980 0.008430 -0.609739
O12   O     O_R   0.939000 0.499980 0.991570 -0.612075
O13   O     O_R   0.500000 0.061040 0.052440 -0.611051
O14   O     O_R   0.500000 0.061040 0.947560 -0.610885
O15   O     O_R   1.000000 0.561040 0.052440 -0.611122
O16   O     O_R   0.000000 0.561040 0.947560 -0.610772
O17   O     O_R   0.939030 0.965580 0.439000 -0.599587
O18   O     O_R   0.060970 0.965580 0.561000 -0.599558
O19   O     O_R   0.439030 0.465580 0.439000 -0.599530
O20   O     O_R   0.560970 0.465580 0.561000 -0.607777
O21   O     O_R   0.000010 0.034440 0.593030 -0.609902
O22   O     O_R   0.999990 0.034440 0.406970 -0.610565
O23   O     O_R   0.500010 0.534440 0.593030 -0.609679
O24   O     O_R   0.499990 0.534440 0.406970 -0.610593
O25   O     O_R   0.000020 0.965580 0.593000 -0.625435
O26   O     O_R   0.999980 0.965580 0.407000 -0.625403
O27   O     O_R   0.500020 0.465580 0.593000 -0.625640
O28   O     O_R   0.499980 0.465580 0.407000 -0.625896
O29   O     O_R   0.034440 0.939060 0.034360 -0.620373
O30   O     O_R   0.965560 0.939060 0.965640 -0.620697
O31   O     O_R   0.534440 0.439060 0.034360 -0.620601
O32   O     O_R   0.465560 0.439060 0.965640 -0.620650
O33   O     O_R   0.034440 0.000050 0.941370 -0.605378
O34   O     O_R   0.965560 0.000050 0.058630 -0.606848
O35   O     O_R   0.534440 0.500050 0.941370 -0.606299
O36   O     O_R   0.465560 0.500050 0.058630 -0.606958
O37   O     O_R   0.965570 0.000070 0.872530 -0.609480
O38   O     O_R   0.034430 0.000070 0.127470 -0.607967
O39   O     O_R   0.465570 0.500070 0.872530 -0.609051
O40   O     O_R   0.534430 0.500070 0.127470 -0.607839
O41   O     O_R   0.034450 0.061050 0.034440 -0.595924
O42   O     O_R   0.965550 0.061050 0.965560 -0.595571
O43   O     O_R   0.534450 0.561050 0.034440 -0.595818
O44   O     O_R   0.465550 0.561050 0.965560 -0.595539
O45   O     O_R   0.500030 0.939050 0.052570 -0.602314
O46   O     O_R   0.499970 0.939050 0.947430 -0.607259
O47   O     O_R   0.000030 0.439050 0.052570 -0.602355
O48   O     O_R   0.999970 0.439050 0.947430 -0.607235
Zn1   Zn    Zn3+2 0.000000 0.045990 0.500000 1.039623
Zn2   Zn    Zn3+2 0.500000 0.545990 0.500000 1.041131
Zn3   Zn    Zn3+2 0.000000 0.954030 0.500000 1.021854
Zn4   Zn    Zn3+2 0.500000 0.454030 0.500000 1.016142
Zn5   Zn    Zn3+2 0.045990 0.000050 0.045940 1.042516
Zn6   Zn    Zn3+2 0.954010 0.000050 0.954060 1.041788
Zn7   Zn    Zn3+2 0.545990 0.500050 0.045940 1.041856
Zn8   Zn    Zn3+2 0.454010 0.500050 0.954060 1.041786
Zn9   Zn    Zn3+2 0.500020 0.000060 0.070120 1.019630
Zn10  Zn    Zn3+2 0.499980 0.000060 0.929880 1.017660
Zn11  Zn    Zn3+2 0.000020 0.500060 0.070120 1.019009
Zn12  Zn    Zn3+2 0.999980 0.500060 0.929880 1.018040
C137  C     C_1   0.794915 0.056120 0.373999 0.201942
N1    N     N_1   0.813209 0.078799 0.423981 -0.147800
C138  C     C_1   0.205244 0.054735 0.623706 0.201729
N2    N     N_1   0.187016 0.076796 0.572752 -0.148437
C139  C     C_1   0.294913 0.556035 0.374134 0.201979
N3    N     N_1   0.313208 0.578680 0.424171 -0.147701
C140  C     C_1   0.705104 0.554685 0.624103 0.201699
N4    N     N_1   0.686831 0.576123 0.572243 -0.148077
C141  C     C_1   0.423778 0.207037 0.902290 0.186617
N5    N     N_1   0.392696 0.189807 0.862477 -0.172578
C142  C     C_1   0.576149 0.207226 0.097438 0.186650
N6    N     N_1   0.607242 0.190074 0.137253 -0.172065
C143  C     C_1   0.924210 0.707040 0.899630 0.186573
N7    N     N_1   0.893303 0.689810 0.858728 -0.172772
C144  C     C_1   0.075720 0.707224 0.100112 0.186889
N8    N     N_1   0.106638 0.690069 0.141015 -0.171636
C145  C     C_1   0.019347 0.205003 0.907112 0.256502
N9    N     N_1   0.026516 0.186461 0.869063 -0.131075
C146  C     C_1   0.986858 0.205068 0.101039 0.257536
N10   N     N_1   0.980923 0.186558 0.140798 -0.129646
C147  C     C_1   0.519114 0.705004 0.906793 0.256585
N11   N     N_1   0.526189 0.686462 0.868617 -0.130815
C148  C     C_1   0.487099 0.705066 0.101342 0.257519
N12   N     N_1   0.481260 0.686556 0.141223 -0.129709
C149  C     C_2   0.521074 0.795359 0.906711 0.922748
O49   O     O_2   0.504460 0.785245 0.841048 -0.596176
O50   O     O_R   0.548823 0.828927 0.935269 -0.788814
H21   H     H_    0.552426 0.842311 0.896192 0.356068
C150  C     C_2   0.488483 0.795412 0.105423 0.921775
O51   O     O_2   0.459966 0.785360 0.111995 -0.598283
O52   O     O_R   0.514198 0.828936 0.146777 -0.785869
H22   H     H_    0.505974 0.842349 0.179742 0.356042
C151  C     C_2   0.021310 0.295358 0.907040 0.922807
O53   O     O_2   0.004799 0.285244 0.841401 -0.596072
O54   O     O_R   0.049057 0.328926 0.935725 -0.788961
H23   H     H_    0.052749 0.342310 0.896753 0.356062
C152  C     C_2   0.988236 0.295413 0.105119 0.921954
O55   O     O_2   0.959646 0.285362 0.111483 -0.597972
O56   O     O_R   0.013918 0.328936 0.146562 -0.786008
H24   H     H_    0.005608 0.342350 0.179402 0.355971
C153  C     C_1   0.919993 0.016356 0.626371 0.194551
N13   N     N_1   0.886873 0.022792 0.574633 -0.171773
C154  C     C_1   0.080595 0.013305 0.374173 0.193884
N14   N     N_1   0.113954 0.018433 0.426140 -0.173251
C155  C     C_1   0.419956 0.516161 0.626340 0.194477
N15   N     N_1   0.386820 0.522515 0.574587 -0.171864
C156  C     C_1   0.580626 0.513092 0.374192 0.192494
N16   N     N_1   0.614000 0.518127 0.426165 -0.174536
C157  C     C_2   0.974717 0.080153 0.765681 0.931643
O57   O     O_2   0.966189 0.106636 0.718220 -0.585596
O58   O     O_R   0.971916 0.089253 0.826644 -0.816872
H25   H     H_    0.962272 0.118796 0.825209 0.347391
C158  C     C_2   0.028524 0.079223 0.237328 0.930765
O59   O     O_2   0.038285 0.105303 0.285942 -0.589597
O60   O     O_R   0.031472 0.088282 0.176484 -0.815300
H26   H     H_    0.042314 0.117426 0.179017 0.345611
C159  C     C_2   0.474531 0.580095 0.765497 0.931936
O61   O     O_2   0.465924 0.606552 0.717957 -0.585631
O62   O     O_R   0.471734 0.589197 0.826465 -0.816640
H27   H     H_    0.462024 0.618718 0.824965 0.347372
C160  C     C_2   0.528720 0.579154 0.237523 0.930834
O63   O     O_2   0.538566 0.605203 0.286222 -0.589486
O64   O     O_R   0.531662 0.588218 0.176674 -0.815198
H28   H     H_    0.542573 0.617337 0.179276 0.345670
C161  C     C_2   0.082445 0.984295 0.872719 0.946917
O65   O     O_2   0.098811 0.950756 0.878012 -0.614524
O66   O     O_R   0.104281 0.015323 0.926307 -0.776644
H29   H     H_    0.133400 0.006236 0.967272 0.348402
C162  C     C_2   0.916931 0.987708 0.126717 0.947362
O67   O     O_2   0.899123 0.954893 0.120203 -0.614812
O68   O     O_R   0.896474 0.019542 0.074261 -0.776221
H30   H     H_    0.866990 0.011639 0.032967 0.348573
C163  C     C_2   0.582497 0.484508 0.872738 0.955792
O69   O     O_2   0.598961 0.451025 0.878069 -0.608281
O70   O     O_R   0.604250 0.515581 0.926273 -0.776416
H31   H     H_    0.633400 0.506573 0.967237 0.348585
C164  C     C_2   0.416893 0.487934 0.126679 0.947367
O71   O     O_2   0.398993 0.455170 0.120084 -0.614860
O72   O     O_R   0.396525 0.519820 0.074299 -0.776294
H32   H     H_    0.367020 0.511998 0.032986 0.348582
C165  C     C_2   0.791662 0.940467 0.210749 0.937468
O73   O     O_2   0.828054 0.930621 0.254522 -0.609149
O74   O     O_R   0.768871 0.921851 0.139883 -0.792880
H33   H     H_    0.785980 0.901272 0.131724 0.363835
C166  C     C_2   0.208167 0.942325 0.792029 0.936179
O75   O     O_2   0.171738 0.932370 0.748726 -0.608838
O76   O     O_R   0.230914 0.924666 0.863702 -0.793444
H34   H     H_    0.213744 0.904625 0.872788 0.364438
C167  C     C_2   0.291663 0.440555 0.210604 0.937456
O77   O     O_2   0.328056 0.430702 0.254352 -0.609239
O78   O     O_R   0.268873 0.421992 0.139692 -0.792893
H35   H     H_    0.285982 0.401440 0.131483 0.363811
C168  C     C_2   0.708221 0.447214 0.799761 0.936381
O79   O     O_2   0.671876 0.452428 0.778804 -0.607622
O80   O     O_R   0.730915 0.414891 0.849835 -0.794800
H36   H     H_    0.713781 0.398112 0.863764 0.363421
C169  C     C_1   0.705794 0.057544 0.284951 0.195686
N17   N     N_1   0.687877 0.080675 0.298747 -0.164512
C170  C     C_1   0.294369 0.056073 0.712634 0.195798
N18   N     N_1   0.312353 0.078546 0.697815 -0.164783
C171  C     C_1   0.205793 0.557457 0.285091 0.195663
N19   N     N_1   0.187875 0.580553 0.298943 -0.164171
C172  C     C_1   0.794234 0.555035 0.711260 0.195888
N20   N     N_1   0.812171 0.576572 0.694943 -0.164632

loop_
_geom_bond_atom_site_label_1
_geom_bond_atom_site_label_2
_ccdc_geom_bond_type
C99   C103  A    
C72   C144  S    
C140  N4    T    
C10   H18   S    
C166  O75   D    
C67   O13   A    
C79   C121  S    
C57   O39   A    
O12   Zn11  S    
O47   Zn11  S    
O25   Zn3   S    
C8    C136  S    
C28   C40   S    
O60   H26   S    
C96   C99   A    
C9    C13   A    
C29   C165  S    
C11   C15   A    
O62   H27   S    
C61   C115  S    
C97   C105  S    
C20   C172  S    
C150  O51   D    
C130  C134  S    
C76   C83   A    
C82   C124  S    
C136  H16   S    
O30   Zn6   S    
C25   C29   A    
C34   C50   T    
C27   C31   A    
C28   C32   A    
O1    Zn1   S    
C47   O27   A    
C121  C157  S    
C48   O28   A    
C26   C38   S    
C94   C97   A    
C17   C21   A    
C17   C169  S    
C19   C23   A    
C13   C33   S    
C143  N7    T    
C10   C30   A    
C6    C80   S    
O76   H34   S    
C16   C20   A    
C111  C113  T    
O46   Zn10  S    
C129  C133  S    
C1    C41   S    
O31   Zn7   S    
C54   O31   A    
C158  O60   S    
C58   O36   A    
O29   Zn5   S    
C55   C117  S    
C63   O5    A    
O2    Zn1   S    
C84   C88   S    
C59   C113  S    
C119  C123  S    
O13   Zn9   S    
C98   C106  S    
O20   Zn4   S    
O34   Zn6   S    
C162  O68   S    
O32   Zn8   S    
C31   C167  S    
C68   C92   S    
C94   C150  S    
C127  C131  S    
C60   O44   A    
O4    Zn2   S    
C125  C129  S    
O16   Zn12  S    
O35   Zn7   S    
C22   C138  S    
C81   C155  S    
C109  C135  S    
C60   C114  S    
C112  C114  T    
C5    C133  S    
C1    O17   A    
C151  O53   D    
C139  N3    T    
C81   C123  S    
C55   O33   A    
C54   C90   S    
C155  N15   T    
C68   O15   A    
C149  O49   D    
C118  C122  S    
O36   Zn8   S    
C122  C158  S    
C8    C128  S    
C167  O78   S    
C96   C98   A    
C119  C131  S    
C5    C79   S    
C117  C129  S    
C145  N9    T    
C36   C52   T    
C11   H19   S    
C9    H17   S    
C21   C137  S    
C147  N11   T    
C70   C77   A    
C3    O3    A    
C165  O74   S    
O7    Zn11  S    
C12   H20   S    
C72   C75   A    
C159  O61   D    
C168  O80   S    
C56   O34   A    
C131  C163  S    
C79   C153  S    
C12   C16   A    
C10   C14   A    
C104  C112  S    
C77   C84   A    
C137  N1    T    
C129  C161  S    
C53   O30   A    
C121  C125  S    
C164  O71   D    
C61   O46   A    
C123  C127  S    
C132  C136  S    
C73   C85   S    
C65   O7    A    
C163  O69   D    
C71   C143  S    
C35   C51   T    
C66   O8    A    
C80   C154  S    
C157  O58   S    
C62   O48   A    
C56   O38   A    
C7    C81   S    
C26   C30   A    
C4    O20   A    
C93   C97   A    
C48   O24   A    
O6    Zn10  S    
C24   C140  S    
C21   C25   A    
C102  C147  S    
C18   C22   A    
C105  C115  T    
C24   C28   A    
C14   C34   S    
O58   H25   S    
C117  C121  S    
C161  O66   S    
C80   C108  S    
C13   C17   A    
C46   O26   A    
O39   Zn8   S    
C93   C149  S    
C16   C36   S    
O37   Zn6   S    
C2    C42   S    
C58   O40   A    
C159  O62   S    
C37   C41   T    
O42   Zn6   S    
C7    C135  S    
O10   Zn9   S    
C40   C44   T    
C5    C125  S    
O66   H29   S    
C7    C127  S    
O56   H24   S    
C83   C87   S    
C101  C148  S    
C148  N12   T    
C45   O25   A    
C156  N16   T    
C80   C122  S    
O8    Zn12  S    
C15   C19   A    
C8    C82   S    
C57   O35   A    
C71   C76   A    
C126  C130  S    
C59   O42   A    
C33   C49   T    
O50   H21   S    
C132  C164  S    
C103  C111  S    
C51   C65   S    
C14   C18   A    
C64   O10   A    
C110  C136  S    
C23   C139  S    
C146  N10   T    
C69   C73   A    
C124  C128  S    
O15   Zn11  S    
C76   H5    S    
C170  N18   T    
C54   O32   A    
C158  O59   D    
C100  C145  S    
O19   Zn4   S    
C19   C171  S    
C166  O76   S    
C67   O14   A    
C85   C91   T    
O78   H35   S    
C70   C142  S    
C6    C126  S    
C72   C74   A    
C138  N2    T    
C95   C100  A    
C128  H12   S    
C4    C44   S    
C5    C45   S    
C100  C103  A    
C106  C116  T    
C7    C47   S    
C107  H1    S    
O74   H33   S    
C8    C48   S    
C108  C134  S    
C162  O67   D    
C118  C130  S    
C30   C166  S    
O68   H30   S    
C2    O2    A    
C70   C73   A    
C67   C91   S    
O54   H23   S    
C79   C107  S    
O45   Zn9   S    
C3    O19   A    
C88   C90   T    
C101  C104  A    
C150  O52   S    
O18   Zn3   S    
O72   H32   S    
C52   C66   S    
C109  C119  S    
O48   Zn12  S    
C56   C118  S    
C69   C141  S    
C93   C102  A    
C71   C74   A    
C124  C160  S    
C38   C42   T    
O14   Zn10  S    
C65   O11   A    
O28   Zn4   S    
C66   O12   A    
O64   H28   S    
C107  C133  S    
O33   Zn5   S    
C108  H2    S    
C68   O16   A    
C75   C83   A    
C169  N17   T    
C152  O55   D    
C135  H15   S    
C110  H4    S    
O21   Zn1   S    
C172  N20   T    
C6    C134  S    
C167  O77   D    
C22   C26   A    
C87   C89   T    
C125  H9    S    
C107  C117  S    
O80   H36   S    
C49   C63   S    
C50   C64   S    
C165  O73   D    
C46   O22   A    
C95   C151  S    
C126  H10   S    
C95   C98   A    
C168  O79   D    
C3    C43   S    
O44   Zn8   S    
C82   C110  S    
C96   C152  S    
C153  N13   T    
C131  C135  S    
C134  H14   S    
O22   Zn1   S    
C32   C168  S    
O26   Zn3   S    
C142  N6    T    
C53   O29   A    
C47   O23   A    
C60   O43   A    
C61   O45   A    
O40   Zn7   S    
C20   C24   A    
C94   C101  A    
C27   C39   S    
C23   C27   A    
C157  O57   D    
C45   O21   A    
C57   C119  S    
C25   C37   S    
O70   H31   S    
O23   Zn2   S    
C11   C31   A    
C12   C32   A    
O27   Zn4   S    
C69   C78   A    
O11   Zn12  S    
C130  C162  S    
O24   Zn2   S    
C128  C132  S    
C15   C35   S    
C151  O54   S    
C108  C118  S    
C18   C170  S    
C133  H13   S    
C64   O6    A    
C110  C120  S    
C152  O56   S    
C39   C43   T    
C161  O65   D    
C149  O50   S    
C122  C126  S    
C62   C116  S    
C75   H6    S    
C78   C84   A    
C99   C146  S    
C63   O9    A    
C141  N5    T    
O17   Zn3   S    
C74   C86   S    
C102  C104  A    
C55   O37   A    
C160  O64   S    
C58   C120  S    
C154  N14   T    
C82   C156  S    
O3    Zn2   S    
O5    Zn9   S    
C6    C46   S    
C120  C132  S    
C81   C109  S    
O52   H22   S    
C9    C29   A    
C109  H3    S    
C1    O1    A    
C77   H8    S    
C164  O72   S    
C86   C92   T    
C78   H7    S    
C2    O18   A    
O38   Zn5   S    
C53   C89   S    
C4    O4    A    
C59   O41   A    
C163  O70   S    
O43   Zn7   S    
C171  N19   T    
C62   O47   A    
O41   Zn5   S    
C123  C159  S    
O9    Zn10  S    
C144  N8    T    
C160  O63   D    
C120  C124  S    
C127  H11   S    
