data_mof_unit_64277.cif
_audit_creation_date              2012-12-10T16:41:41-0500
_audit_creation_method            fapswitch 2.2
_symmetry_space_group_name_H-M    P1
_symmetry_Int_Tables_number       1
_space_group_crystal_system       triclinic
_cell_length_a                    26.238829
_cell_length_b                    26.170908
_cell_length_c                    18.530917
_cell_angle_alpha                 89.997719
_cell_angle_beta                  135.01535
_cell_angle_gamma                 90.000535
_cell_volume                      8995.57171756

loop_
_atom_site_label
_atom_site_type_symbol
_atom_type_description
_atom_site_fract_x
_atom_site_fract_y
_atom_site_fract_z
_atom_type_partial_charge
C1    C     C_R   0.611581 0.750553 0.500305 0.857404
C2    C     C_2   0.007009 0.287903 0.459749 0.114850
C3    C     C_2   0.507025 0.212089 0.459781 0.116130
C4    C     C_2   0.506978 0.787885 0.459692 0.114544
C5    C     C_2   0.052793 0.751486 0.493399 -0.281641
C6    C     C_2   0.052795 0.248516 0.493403 -0.280549
C7    C     C_2   0.552797 0.251480 0.493408 -0.281582
C8    C     C_2   0.552790 0.748510 0.493394 -0.280605
C9    C     C_2   0.944585 0.719332 0.444999 0.472792
C10   C     C_2   0.944598 0.280683 0.445022 0.473762
C11   C     C_2   0.444611 0.219306 0.445048 0.472824
C12   C     C_R   0.611584 0.249445 0.500309 0.855078
C13   C     C_2   0.444573 0.780658 0.444974 0.473730
C14   C     C_2   0.949726 0.745411 0.512372 0.302984
C15   C     C_2   0.949730 0.254591 0.512378 0.303334
C16   C     C_2   0.449732 0.245408 0.512384 0.302789
C17   C     C_2   0.449724 0.754588 0.512367 0.303528
C18   C     C_2   0.745052 0.472163 0.438402 -0.279166
C19   C     C_2   0.754120 0.527826 0.447408 -0.279593
C20   C     C_2   0.245051 0.972163 0.438401 -0.279170
C21   C     C_2   0.254120 0.027826 0.447408 -0.279588
C22   C     C_2   0.761184 0.443455 0.512312 0.610636
C23   C     C_R   0.111583 0.250554 0.500308 0.857261
C24   C     C_2   0.738601 0.556556 0.489758 0.603119
C25   C     C_2   0.261184 0.943455 0.512312 0.610638
C26   C     C_2   0.238601 0.056556 0.489758 0.603118
C27   C     C_2   0.808881 0.028084 0.557823 -0.150570
C28   C     C_2   0.808874 0.971912 0.560412 -0.151579
C29   C     C_2   0.308876 0.528085 0.560416 -0.151518
C30   C     C_2   0.308880 0.471913 0.557825 -0.150621
C31   C     C_2   0.748497 0.056104 0.501605 -0.290288
C32   C     C_2   0.748490 0.943900 0.495606 -0.288715
C33   C     C_2   0.248492 0.556100 0.495608 -0.288729
C34   C     C_R   0.111583 0.749446 0.500307 0.855221
C35   C     C_2   0.248495 0.443896 0.501602 -0.290262
C36   C     C_R   0.889061 0.749666 0.500935 0.812659
C37   C     C_R   0.889062 0.250335 0.500936 0.813329
C38   C     C_R   0.389062 0.249664 0.500938 0.812578
C39   C     C_R   0.389060 0.750334 0.500934 0.813409
C40   C     C_R   0.749966 0.888556 0.499663 0.850950
C41   C     C_R   0.749968 0.111444 0.500329 0.851824
C42   C     C_R   0.249967 0.388556 0.500328 0.851859
C43   C     C_R   0.249967 0.611444 0.499664 0.850912
C44   C     C_R   0.748729 0.611495 0.498758 0.702832
C45   C     C_2   0.939395 0.752380 0.887504 -0.333172
C46   C     C_R   0.751224 0.388506 0.501249 0.699844
C47   C     C_R   0.248729 0.111495 0.498758 0.702836
C48   C     C_R   0.251224 0.888506 0.501249 0.699841
C49   C     C_R   0.611068 0.749270 0.222685 0.855540
C50   C     C_R   0.611068 0.250732 0.222685 0.854991
C51   C     C_R   0.111068 0.249270 0.222685 0.855702
C52   C     C_R   0.111069 0.750731 0.222685 0.854829
C53   C     C_R   0.888105 0.750263 0.777079 0.871352
C54   C     C_R   0.888107 0.249738 0.777078 0.873786
C55   C     C_R   0.388105 0.250263 0.777079 0.871420
C56   C     C_2   0.939400 0.247623 0.887502 -0.331665
C57   C     C_R   0.388107 0.749738 0.777078 0.873718
C58   C     C_2   0.047257 0.789129 0.053940 0.197970
C59   C     C_2   0.047275 0.210884 0.053943 0.196563
C60   C     C_2   0.547257 0.289130 0.053940 0.197825
C61   C     C_2   0.547276 0.710885 0.053943 0.196708
C62   C     C_2   0.057437 0.750082 0.111383 -0.288771
C63   C     C_2   0.057437 0.249923 0.111382 -0.288405
C64   C     C_2   0.557436 0.250082 0.111383 -0.288796
C65   C     C_2   0.557438 0.749923 0.111382 -0.288379
C66   C     C_2   0.995939 0.784031 0.942262 -0.158960
C67   C     C_2   0.439395 0.252380 0.887504 -0.333153
C68   C     C_2   0.995960 0.215985 0.942266 -0.158987
C69   C     C_2   0.495939 0.284031 0.942262 -0.158721
C70   C     C_2   0.495960 0.715986 0.942266 -0.159226
C71   C     C_3   0.087477 0.839334 0.099122 -0.779048
C72   C     C_3   0.087509 0.160683 0.099128 -0.775940
C73   C     C_3   0.587475 0.339335 0.099122 -0.778929
C74   C     C_3   0.587510 0.660684 0.099128 -0.776060
C75   C     C_3   0.015243 0.660193 0.433045 -0.714427
C76   C     C_3   0.015279 0.339821 0.433103 -0.714460
C77   C     C_3   0.515312 0.160168 0.433168 -0.715024
C78   C     C_2   0.439400 0.747624 0.887502 -0.331683
C79   C     C_3   0.515212 0.839798 0.432985 -0.713865
C80   C     C_2   0.006993 0.712107 0.459722 0.115822
F1    F     F_    0.792698 0.463992 0.603561 -0.591007
F2    F     F_    0.013924 0.235013 0.599254 -0.670271
F3    F     F_    0.513921 0.264997 0.599247 -0.670762
F4    F     F_    0.513930 0.735034 0.599264 -0.670185
F5    F     F_    0.707552 0.536049 0.518618 -0.592248
F6    F     F_    0.292698 0.963992 0.603561 -0.591009
F7    F     F_    0.207552 0.036049 0.518618 -0.592252
F8    F     F_    0.881269 0.697025 0.361670 -0.654640
F9    F     F_    0.881290 0.303007 0.361706 -0.654102
F10   F     F_    0.381312 0.196968 0.361750 -0.654632
F11   F     F_    0.381249 0.802954 0.361629 -0.654111
F12   F     F_    0.013926 0.764974 0.599257 -0.670678
H1    H     H_    0.860977 0.046755 0.605272 0.185091
H2    H     H_    0.027331 0.285226 0.076487 0.133232
H3    H     H_    0.527341 0.214777 0.076492 0.132582
H4    H     H_    0.527331 0.785226 0.076487 0.133146
H5    H     H_    0.003744 0.808733 0.903563 0.191342
H6    H     H_    0.003776 0.191294 0.903573 0.191422
H7    H     H_    0.503743 0.308734 0.903563 0.191463
H8    H     H_    0.503777 0.691294 0.903573 0.191301
H9    H     H_    0.927480 0.729228 0.922576 0.163831
H10   H     H_    0.927476 0.270766 0.922571 0.164216
H11   H     H_    0.427480 0.229228 0.922576 0.163828
H12   H     H_    0.860968 0.953233 0.617296 0.183860
H13   H     H_    0.427476 0.770766 0.922571 0.164219
H14   H     H_    0.044732 0.788065 0.511696 0.186186
H15   H     H_    0.044723 0.211935 0.511681 0.187412
H16   H     H_    0.544715 0.288063 0.511664 0.186103
H17   H     H_    0.544739 0.711933 0.511710 0.187495
H18   H     H_    0.726679 0.454391 0.370308 0.145139
H19   H     H_    0.772035 0.545568 0.415469 0.151382
H20   H     H_    0.226679 0.954391 0.370308 0.145136
H21   H     H_    0.272035 0.045568 0.415469 0.151388
H22   H     H_    0.065146 0.868018 0.038636 0.215590
H23   H     H_    0.360969 0.546762 0.617303 0.183883
H24   H     H_    0.082432 0.855578 0.149215 0.230838
H25   H     H_    0.145102 0.833777 0.142718 0.272167
H26   H     H_    0.065190 0.132004 0.038643 0.215485
H27   H     H_    0.145133 0.166250 0.142729 0.271854
H28   H     H_    0.082462 0.144428 0.149214 0.232133
H29   H     H_    0.565145 0.368019 0.038636 0.215719
H30   H     H_    0.582430 0.355578 0.149216 0.230824
H31   H     H_    0.645101 0.333778 0.142718 0.272133
H32   H     H_    0.565191 0.632005 0.038643 0.215356
H33   H     H_    0.645134 0.666251 0.142729 0.271889
H34   H     H_    0.360976 0.453241 0.605277 0.185055
H35   H     H_    0.582463 0.644429 0.149214 0.232145
H36   H     H_    0.978195 0.631837 0.420737 0.249103
H37   H     H_    0.002034 0.662432 0.361484 0.259536
H38   H     H_    0.071042 0.645749 0.496492 0.214580
H39   H     H_    0.978244 0.368181 0.420818 0.249612
H40   H     H_    0.071084 0.354250 0.496557 0.214150
H41   H     H_    0.002065 0.337596 0.361539 0.259566
H42   H     H_    0.478289 0.131805 0.420906 0.249167
H43   H     H_    0.502094 0.162386 0.361600 0.259572
H44   H     H_    0.571124 0.145749 0.496629 0.214294
H45   H     H_    0.695817 0.039130 0.455739 0.153490
H46   H     H_    0.478154 0.868150 0.420656 0.249547
H47   H     H_    0.571006 0.854249 0.496426 0.214434
H48   H     H_    0.502007 0.837552 0.361428 0.259530
H49   H     H_    0.695807 0.960884 0.436015 0.154717
H50   H     H_    0.195810 0.539119 0.436014 0.154702
H51   H     H_    0.195814 0.460872 0.455733 0.153496
H52   H     H_    0.027341 0.714777 0.076493 0.132494
O1    O     O_3   0.750030 0.750030 0.500000 -0.508627
O2    O     O_R   0.750010 0.364550 0.560050 -0.581803
O3    O     O_R   0.250010 0.135450 0.560050 -0.581153
O4    O     O_R   0.250010 0.864550 0.560050 -0.581807
O5    O     O_R   0.605390 0.780070 0.439910 -0.643928
O6    O     O_R   0.605390 0.219930 0.439910 -0.643762
O7    O     O_R   0.105390 0.280070 0.439910 -0.644149
O8    O     O_R   0.105390 0.719930 0.439910 -0.643540
O9    O     O_R   0.834580 0.719970 0.439940 -0.601560
O10   O     O_R   0.834580 0.280030 0.439940 -0.600885
O11   O     O_R   0.334580 0.219970 0.439940 -0.601474
O12   O     O_3   0.750030 0.249970 0.500000 -0.508644
O13   O     O_R   0.334580 0.780030 0.439940 -0.600971
O14   O     O_R   0.665460 0.720000 0.560050 -0.620656
O15   O     O_R   0.665460 0.280000 0.560050 -0.624057
O16   O     O_R   0.165460 0.220000 0.560050 -0.620657
O17   O     O_R   0.165460 0.780000 0.560050 -0.624056
O18   O     O_R   0.894670 0.780060 0.560110 -0.602037
O19   O     O_R   0.894670 0.219940 0.560110 -0.602189
O20   O     O_R   0.394670 0.280060 0.560110 -0.602328
O21   O     O_R   0.394670 0.719940 0.560110 -0.601896
O22   O     O_R   0.689950 0.864610 0.439940 -0.645214
O23   O     O_3   0.250030 0.250030 0.500000 -0.508649
O24   O     O_R   0.689950 0.135390 0.439940 -0.644971
O25   O     O_R   0.189950 0.364610 0.439940 -0.645023
O26   O     O_R   0.189950 0.635390 0.439940 -0.645162
O27   O     O_R   0.750020 0.635440 0.439910 -0.676221
O28   O     O_R   0.750020 0.364560 0.439910 -0.675152
O29   O     O_R   0.250020 0.135440 0.439910 -0.676213
O30   O     O_R   0.250020 0.864560 0.439910 -0.675159
O31   O     O_R   0.605400 0.780060 0.270840 -0.640528
O32   O     O_R   0.605400 0.219940 0.270840 -0.640506
O33   O     O_R   0.105400 0.280060 0.270840 -0.640227
O34   O     O_3   0.250030 0.749970 0.500000 -0.508622
O35   O     O_R   0.105400 0.719940 0.270840 -0.640808
O36   O     O_R   0.834560 0.720000 0.729150 -0.633036
O37   O     O_R   0.834560 0.280000 0.729150 -0.629652
O38   O     O_R   0.334560 0.220000 0.729150 -0.633076
O39   O     O_R   0.334560 0.780000 0.729150 -0.629612
O40   O     O_R   0.665490 0.719970 0.270840 -0.627286
O41   O     O_R   0.665490 0.280030 0.270840 -0.627530
O42   O     O_R   0.165490 0.219970 0.270840 -0.627324
O43   O     O_R   0.165490 0.780030 0.270840 -0.627492
O44   O     O_R   0.894650 0.780070 0.729170 -0.640378
O45   O     O_R   0.810120 0.864610 0.560110 -0.640695
O46   O     O_R   0.894650 0.219930 0.729170 -0.640602
O47   O     O_R   0.394650 0.280070 0.729170 -0.640132
O48   O     O_R   0.394650 0.719930 0.729170 -0.640848
O49   O     O_R   0.810120 0.135390 0.560110 -0.641126
O50   O     O_R   0.310120 0.364610 0.560110 -0.641040
O51   O     O_R   0.310120 0.635390 0.560110 -0.640779
O52   O     O_R   0.750010 0.635450 0.560050 -0.581158
Zn1   Zn    Zn3+2 0.835880 0.792950 0.585850 1.000455
Zn2   Zn    Zn3+2 0.750030 0.292900 0.414160 1.002799
Zn3   Zn    Zn3+2 0.250030 0.207100 0.414160 1.002128
Zn4   Zn    Zn3+2 0.250030 0.792900 0.414160 1.002725
Zn5   Zn    Zn3+2 0.750010 0.707110 0.585820 1.027772
Zn6   Zn    Zn3+2 0.750010 0.292890 0.585820 1.027526
Zn7   Zn    Zn3+2 0.250010 0.207110 0.585820 1.027681
Zn8   Zn    Zn3+2 0.250010 0.792890 0.585820 1.027617
Zn9   Zn    Zn3+2 0.835880 0.207050 0.585850 1.001607
Zn10  Zn    Zn3+2 0.335880 0.292950 0.585850 1.000315
Zn11  Zn    Zn3+2 0.335880 0.707050 0.585850 1.001748
Zn12  Zn    Zn3+2 0.664180 0.792950 0.414160 0.970128
Zn13  Zn    Zn3+2 0.664180 0.207050 0.414160 0.968895
Zn14  Zn    Zn3+2 0.164180 0.292950 0.414160 0.970227
Zn15  Zn    Zn3+2 0.164180 0.707050 0.414160 0.968796
Zn16  Zn    Zn3+2 0.750030 0.707100 0.414160 1.002054

loop_
_geom_bond_atom_site_label_1
_geom_bond_atom_site_label_2
_ccdc_geom_bond_type
C61   C70   S    
C58   C62   D    
C79   H47   S    
C21   C26   D    
C30   H34   S    
O7    Zn14  S    
O34   Zn8   S    
C70   C78   D    
C1    C8    S    
C50   C64   S    
O17   Zn8   S    
C74   H32   S    
O37   Zn6   S    
C49   O31   A    
C4    C8    D    
C34   O17   A    
O12   Zn6   S    
O16   Zn7   S    
C67   H11   S    
C57   C78   S    
O18   Zn1   S    
O44   Zn1   S    
C49   C65   S    
C30   C35   D    
C78   H13   S    
O39   Zn8   S    
O31   Zn12  S    
C66   H5    S    
C50   O32   A    
C1    O14   A    
C53   O44   A    
C18   C19   S    
C3    C7    D    
C10   C15   D    
C9    F8    S    
C14   C36   S    
O10   Zn2   S    
C76   H39   S    
C58   C71   S    
C74   H33   S    
O29   Zn3   S    
C20   C25   D    
C6    C23   S    
C41   O24   A    
C29   C33   D    
C60   C73   S    
O32   Zn13  S    
C43   O51   A    
C75   H36   S    
C17   C39   S    
C4    C13   S    
C42   O50   A    
C35   C42   S    
C15   C37   S    
C41   O49   A    
C20   H20   S    
C58   C66   S    
C65   H4    S    
O26   Zn15  S    
C10   F9    S    
C26   F7    S    
C73   H31   S    
C71   H24   S    
C6    H15   S    
C1    O5    A    
C52   O43   A    
O23   Zn7   S    
O41   Zn2   S    
C31   H45   S    
C31   C41   S    
C75   C80   S    
C40   O22   A    
C75   H38   S    
C59   C72   S    
C37   O19   A    
O1    Zn16  S    
C38   O20   A    
C79   H48   S    
C29   H23   S    
C45   C53   S    
C13   F11   S    
C36   O18   A    
C2    C6    D    
O22   Zn12  S    
C38   O11   A    
O34   Zn11  S    
O24   Zn13  S    
O5    Zn12  S    
C43   O26   A    
C70   H8    S    
C36   O9    A    
O40   Zn16  S    
C15   F2    S    
C48   O30   A    
C5    H14   S    
C7    C12   S    
O50   Zn10  S    
C47   O3    A    
C44   O52   A    
O49   Zn9   S    
C71   H25   S    
C27   C31   D    
O38   Zn7   S    
C33   C43   S    
O23   Zn10  S    
C12   O6    A    
C28   C32   D    
C51   C63   S    
O23   Zn14  S    
C4    C79   S    
C21   H21   S    
O36   Zn5   S    
C34   O8    A    
O35   Zn15  S    
C56   C68   D    
O19   Zn9   S    
C16   F3    S    
C71   H22   S    
C67   C69   D    
C9    C80   S    
C55   O47   A    
O33   Zn14  S    
C39   O21   A    
C9    C14   D    
C22   F1    S    
C5    C34   S    
O1    Zn1   S    
C29   C30   S    
C42   O25   A    
C59   C68   S    
C49   O40   A    
C11   C16   D    
C28   H12   S    
O46   Zn9   S    
C74   H35   S    
C63   H2    S    
C23   O16   A    
C72   H28   S    
C35   H51   S    
C54   O37   A    
C48   O4    A    
C5    C80   D    
O28   Zn2   S    
O12   Zn9   S    
O21   Zn11  S    
C25   C48   S    
C14   F12   S    
C32   H49   S    
C47   O29   A    
C45   H9    S    
C26   C47   S    
C57   O48   A    
C69   H7    S    
C22   C46   S    
O8    Zn15  S    
C73   H29   S    
C2    C76   S    
C24   C44   S    
O48   Zn11  S    
O42   Zn3   S    
C27   H1    S    
C77   H42   S    
C2    C10   S    
C53   O36   A    
C57   O39   A    
O11   Zn3   S    
O4    Zn8   S    
C24   F5    S    
O45   Zn1   S    
O34   Zn4   S    
C54   O46   A    
O12   Zn13  S    
C18   C22   D    
O30   Zn4   S    
C37   O10   A    
O12   Zn2   S    
C18   H18   S    
C64   H3    S    
C62   H52   S    
O15   Zn6   S    
O9    Zn16  S    
C55   C67   S    
C76   H41   S    
C54   C56   S    
C19   H19   S    
C61   C74   S    
O6    Zn13  S    
C59   C63   D    
C13   C17   D    
O43   Zn4   S    
C60   C64   D    
O13   Zn4   S    
C17   F4    S    
O3    Zn7   S    
C19   C24   D    
C52   O35   A    
C56   H10   S    
O2    Zn6   S    
C51   O42   A    
O20   Zn10  S    
C8    H17   S    
C33   H50   S    
O1    Zn5   S    
O27   Zn16  S    
C76   H40   S    
C11   F10   S    
C46   O2    A    
C60   C69   S    
O25   Zn14  S    
C40   O45   A    
C72   H27   S    
C25   F6    S    
C55   O38   A    
C46   O28   A    
O34   Zn15  S    
C32   C40   S    
C12   O15   A    
C68   H6    S    
C44   O27   A    
C3    C11   S    
C23   O7    A    
C77   H44   S    
C61   C65   D    
C79   H46   S    
O51   Zn11  S    
C20   C21   S    
C73   H30   S    
C72   H26   S    
C45   C66   D    
O14   Zn5   S    
O23   Zn3   S    
C7    H16   S    
C52   C62   S    
C77   H43   S    
O52   Zn5   S    
C51   O33   A    
C50   O41   A    
O47   Zn10  S    
O1    Zn12  S    
C39   O13   A    
C75   H37   S    
C16   C38   S    
C27   C28   S    
C3    C77   S    
