data_mof_unit_45947.cif
_audit_creation_date              2012-12-10T16:56:33-0500
_audit_creation_method            fapswitch 2.2
_symmetry_space_group_name_H-M    P1
_symmetry_Int_Tables_number       1
_space_group_crystal_system       triclinic
_cell_length_a                    10.774696
_cell_length_b                    10.930691
_cell_length_c                    9.699264
_cell_angle_alpha                 90.000812
_cell_angle_beta                  90.391138
_cell_angle_gamma                 89.977786
_cell_volume                      1142.30287799

loop_
_atom_site_label
_atom_site_type_symbol
_atom_type_description
_atom_site_fract_x
_atom_site_fract_y
_atom_site_fract_z
_atom_type_partial_charge
C1    C     C_R   0.498438 0.265389 0.500053 0.885851
C2    C     C_3   0.877812 0.481503 0.501071 -0.161831
C3    C     C_3   0.926751 0.606099 0.557011 -0.448825
C4    C     C_3   0.926992 0.466501 0.348921 0.058082
C5    C     C_2   0.498566 0.933077 0.386800 -0.140640
C6    C     C_2   0.508447 0.866629 0.502439 -0.301362
C7    C     C_2   0.504115 0.067050 0.386946 -0.105242
C8    C     C_2   0.492441 0.133415 0.502275 -0.274551
C9    C     C_2   0.428480 0.429546 0.921612 -0.024399
C10   C     C_2   0.427092 0.430889 0.077282 -0.014406
C11   C     C_R   0.260055 0.497316 0.499436 0.848429
C12   C     C_R   0.501770 0.734624 0.500111 0.838584
C13   C     C_R   0.739549 0.489373 0.500524 0.871895
C14   C     C_3   0.077596 0.372416 0.575924 0.106990
C15   C     C_3   0.932548 0.371912 0.589345 0.235219
C16   C     C_3   0.068686 0.605584 0.570191 -0.408186
C17   C     C_3   0.070375 0.483518 0.347186 0.159815
C18   C     C_3   0.122332 0.490624 0.498623 -0.109065
Cu1   Cu    Cu3+1 0.500030 0.500020 0.638630 1.028058
Cu2   Cu    Cu3+1 0.499970 0.499980 0.361370 0.996668
H1    H     H_    0.885394 0.540245 0.284325 0.149571
H2    H     H_    0.107178 0.690516 0.524037 0.188390
H3    H     H_    0.898310 0.680658 0.485200 0.166674
H4    H     H_    0.487765 0.888425 0.287375 0.179388
H5    H     H_    0.524373 0.907616 0.602510 0.159613
H6    H     H_    0.516139 0.111793 0.287908 0.192055
H7    H     H_    0.475560 0.092401 0.601884 0.154720
H8    H     H_    0.365845 0.366660 0.869823 0.184086
H9    H     H_    0.557437 0.559451 0.894341 0.209746
H10   H     H_    0.361841 0.370615 0.128138 0.161053
H11   H     H_    0.103058 0.293044 0.509986 0.141891
H12   H     H_    0.562096 0.554645 0.106554 0.191960
H13   H     H_    0.900067 0.285259 0.542085 0.144149
H14   H     H_    0.095429 0.608949 0.680826 0.195750
H15   H     H_    0.885233 0.630105 0.657652 0.252158
H16   H     H_    0.114625 0.403815 0.296530 0.195572
N1    N     N_2   0.498630 0.498660 0.846910 -0.264572
N2    N     N_2   0.498590 0.498630 0.153040 -0.284649
O1    O     O_R   0.500020 0.321960 0.617040 -0.551060
O2    O     O_R   0.499980 0.321920 0.382900 -0.569631
O3    O     O_R   0.317710 0.500000 0.617070 -0.572598
O4    O     O_R   0.317670 0.499960 0.382930 -0.557076
O5    O     O_R   0.500020 0.678080 0.617100 -0.587280
O6    O     O_R   0.499980 0.678040 0.382960 -0.575424
O7    O     O_R   0.682330 0.500040 0.617070 -0.513781
O8    O     O_R   0.682290 0.500000 0.382930 -0.582187
O9    O     O_3   0.140326 0.352390 0.701778 -0.668152
H17   H     H_    0.128998 0.425091 0.761021 0.349903
S1    S     S_3+6 0.877160 0.356790 0.765311 0.060167
O10   O     O_2   0.746388 0.309159 0.763717 -0.234581
O11   O     O_2   0.954649 0.264634 0.842461 -0.184131
O12   O     O_3   0.880331 0.491072 0.850065 -0.539656
H18   H     H_    0.962966 0.495192 0.895073 0.362940
O13   O     O_3   0.104827 0.586157 0.267785 -0.698337
H19   H     H_    0.056412 0.658100 0.298666 0.333130
S2    S     S_3+6 0.880519 0.323740 0.265362 0.005371
O14   O     O_2   0.981834 0.229372 0.273601 -0.285518
O15   O     O_2   0.765975 0.269920 0.328789 -0.306778
O16   O     O_3   0.849967 0.352944 0.098914 -0.406725
H20   H     H_    0.771656 0.400470 0.099196 0.362763

loop_
_geom_bond_atom_site_label_1
_geom_bond_atom_site_label_2
_ccdc_geom_bond_type
Cu2   O4    S    
Cu1   O7    S    
C11   C18   S    
C14   O9    S    
C2    C15   S    
C17   H16   S    
H12   N2    S    
C1    C8    S    
Cu2   N2    S    
C9    C10   S    
C14   C18   S    
C3    H3    S    
O9    H17   S    
S2    O16   S    
C3    H15   S    
C14   H11   S    
C10   N2    D    
S1    O12   S    
Cu1   Cu2   S    
C9    N1    D    
C17   C18   S    
C7    C8    D    
C12   O6    A    
C4    S2    S    
C13   O7    A    
C4    H1    S    
C7    H6    S    
C5    C6    D    
C5    H4    S    
Cu1   O1    S    
C4    C17   S    
Cu2   O6    S    
Cu1   O5    S    
C11   O3    A    
C12   O5    A    
C2    C3    S    
C15   S1    S    
C6    C12   S    
C13   O8    A    
Cu2   O2    S    
C6    H5    S    
S2    O14   D    
C1    O1    A    
C2    C4    S    
O16   H20   S    
O12   H18   S    
C11   O4    A    
C16   C18   S    
S1    O10   D    
H9    N1    S    
C5    C7    S    
C2    C13   S    
C10   H10   S    
C14   C15   S    
C8    H7    S    
C16   H2    S    
Cu1   N1    S    
C1    O2    A    
C16   H14   S    
O13   H19   S    
C17   O13   S    
C15   H13   S    
Cu2   O8    S    
C3    C16   S    
Cu1   O3    S    
C9    H8    S    
S2    O15   D    
S1    O11   D    
