data_mof_unit_43048.cif
_audit_creation_date              2012-12-11T16:11:43-0500
_audit_creation_method            fapswitch 2.2
_symmetry_space_group_name_H-M    P1
_symmetry_Int_Tables_number       1
_space_group_crystal_system       triclinic
_cell_length_a                    7.014277
_cell_length_b                    14.261207
_cell_length_c                    15.826639
_cell_angle_alpha                 89.887774
_cell_angle_beta                  89.667592
_cell_angle_gamma                 89.834792
_cell_volume                      1583.13503244

loop_
_atom_site_label
_atom_site_type_symbol
_atom_type_description
_atom_site_fract_x
_atom_site_fract_y
_atom_site_fract_z
_atom_type_partial_charge
O1    O     O_R   0.638960 0.835150 0.161940 -0.540127
O2    O     O_R   0.361040 0.164850 0.838060 -0.540127
O3    O     O_R   0.309170 0.846340 0.337470 -0.538135
O4    O     O_R   0.690830 0.153660 0.662530 -0.538135
O5    O     O_R   0.138810 0.664830 0.338070 -0.538792
O6    O     O_R   0.861190 0.335170 0.661930 -0.538792
C1    C     C_R   0.477488 0.868999 0.365883 0.694653
C2    C     C_R   0.522512 0.131001 0.634117 0.694653
O7    O     O_R   0.309250 0.846350 0.162570 -0.540651
O8    O     O_R   0.690750 0.153650 0.837430 -0.540651
O9    O     O_R   0.138880 0.664840 0.161920 -0.537770
O10   O     O_R   0.861120 0.335160 0.838080 -0.537771
C3    C     C_R   0.478316 0.868304 0.133527 0.672395
C4    C     C_R   0.521684 0.131696 0.866473 0.672395
O11   O     O_R   0.638880 0.835150 0.338090 -0.537789
O12   O     O_R   0.361120 0.164850 0.661910 -0.537789
O13   O     O_3   0.472380 0.690440 0.250000 -0.370044
O14   O     O_3   0.527620 0.309560 0.750000 -0.370044
V1    V     V_3+5 0.197550 0.761040 0.250010 1.391397
V2    V     V_3+5 0.802450 0.238960 0.749990 1.391396
O15   O     O_R   0.809160 0.653640 0.162540 -0.540408
O16   O     O_R   0.190840 0.346360 0.837460 -0.540408
C5    C     C_R   0.978286 0.633346 0.132583 0.735358
C6    C     C_R   0.021714 0.366654 0.867417 0.735359
O17   O     O_R   0.809090 0.653640 0.337440 -0.537503
O18   O     O_R   0.190910 0.346360 0.662560 -0.537503
C7    C     C_R   0.977511 0.632227 0.366776 0.699899
C8    C     C_R   0.022489 0.367773 0.633224 0.699899
V3    V     V_3+5 0.697540 0.738950 0.250000 1.390637
V4    V     V_3+5 0.302460 0.261050 0.750000 1.390637
O19   O     O_3   0.972580 0.809550 0.250010 -0.371661
O20   O     O_3   0.027420 0.190450 0.749990 -0.371661
C9    C     C_3   0.143779 0.561980 0.506107 -0.171369
C10   C     C_3   0.856221 0.438020 0.493893 -0.171370
C11   C     C_3   0.988973 0.544459 0.574920 -0.191676
C12   C     C_3   0.011027 0.455541 0.425080 -0.191676
C13   C     C_3   0.012316 0.437730 0.562296 -0.048693
C14   C     C_3   0.987684 0.562270 0.437704 -0.048693
C15   C     C_3   0.165020 0.454908 0.494246 0.232128
C16   C     C_3   0.834980 0.545092 0.505754 0.232127
C17   C     C_3   0.881123 0.428563 0.018106 0.149021
C18   C     C_3   0.118877 0.571437 0.981893 0.149021
C19   C     C_3   0.049381 0.461024 0.073000 0.139434
C20   C     C_3   0.950618 0.538976 0.927000 0.139435
C21   C     C_3   0.989784 0.564365 0.061047 -0.128108
C22   C     C_3   0.010216 0.435635 0.938952 -0.128107
C23   C     C_3   0.821344 0.532955 0.006065 0.120617
C24   C     C_3   0.178655 0.467046 0.993934 0.120616
C25   C     C_3   0.643763 0.014765 0.444744 -0.174149
C26   C     C_3   0.356237 0.985235 0.555256 -0.174149
C27   C     C_3   0.489252 0.088117 0.469751 -0.190215
C28   C     C_3   0.510748 0.911883 0.530249 -0.190215
C29   C     C_3   0.512754 0.060526 0.563568 -0.048075
C30   C     C_3   0.487246 0.939474 0.436432 -0.048075
C31   C     C_3   0.665179 0.987989 0.538914 0.229049
C32   C     C_3   0.334821 0.012011 0.461086 0.229049
C33   C     C_3   0.676328 0.971110 0.019944 -0.113440
C34   C     C_3   0.323672 0.028890 0.980056 -0.113440
C35   C     C_3   0.582053 0.959628 0.932305 -0.142611
C36   C     C_3   0.417947 0.040372 0.067695 -0.142611
C37   C     C_3   0.510263 0.061509 0.937403 -0.002022
C38   C     C_3   0.489737 0.938491 0.062597 -0.002022
C39   C     C_3   0.604441 0.073796 0.024255 -0.148041
C40   C     C_3   0.395560 0.926204 0.975745 -0.148041
H1    H     H_    0.978571 0.580952 0.636646 0.113933
H2    H     H_    0.021429 0.419048 0.363354 0.113933
H3    H     H_    0.649851 0.926698 0.876136 0.098788
H4    H     H_    0.350149 0.073302 0.123864 0.098788
H5    H     H_    0.822203 0.947170 0.036539 0.110048
H6    H     H_    0.177798 0.052830 0.963461 0.110048
H7    H     H_    0.691157 0.134669 0.044103 0.107739
H8    H     H_    0.308843 0.865331 0.955897 0.107739
H9    H     H_    0.256818 0.615561 0.511379 0.120557
H10   H     H_    0.743182 0.384439 0.488621 0.120557
C41   C     C_3   0.351131 0.401351 0.486263 -0.804981
H11   H     H_    0.430834 0.426669 0.429973 0.206244
H12   H     H_    0.436823 0.412265 0.544035 0.222171
H13   H     H_    0.321458 0.325409 0.479010 0.195699
C42   C     C_3   0.648869 0.598649 0.513737 -0.804981
H14   H     H_    0.569166 0.573331 0.570027 0.206244
H15   H     H_    0.678542 0.674591 0.520990 0.195700
H16   H     H_    0.563177 0.587735 0.455964 0.222171
C43   C     C_3   0.105551 0.419020 0.158033 -0.802344
H17   H     H_    0.145971 0.344285 0.149959 0.214391
H18   H     H_    0.228380 0.458054 0.184231 0.209810
H19   H     H_    0.983350 0.424063 0.202639 0.198751
C44   C     C_3   0.894448 0.580980 0.841967 -0.802347
H20   H     H_    0.854016 0.655714 0.850041 0.214392
H21   H     H_    0.016653 0.575943 0.797362 0.198752
H22   H     H_    0.771627 0.541942 0.815766 0.209810
C45   C     C_3   0.776268 0.338682 0.041303 -0.814021
H23   H     H_    0.694301 0.348293 0.100791 0.213326
H24   H     H_    0.682970 0.316400 0.988993 0.219704
H25   H     H_    0.882191 0.281862 0.051423 0.198041
C46   C     C_3   0.223732 0.661318 0.958696 -0.814021
H26   H     H_    0.305698 0.651707 0.899209 0.213326
H27   H     H_    0.117808 0.718139 0.948577 0.198042
H28   H     H_    0.317029 0.683600 0.011007 0.219703
C47   C     C_3   0.636363 0.587078 0.007396 -0.760665
H29   H     H_    0.554234 0.567969 0.951024 0.226803
H30   H     H_    0.556610 0.574162 0.066896 0.227643
H31   H     H_    0.667288 0.663266 0.002798 0.197608
C48   C     C_3   0.363636 0.412922 0.992603 -0.760665
H32   H     H_    0.332710 0.336734 0.997201 0.197609
H33   H     H_    0.445766 0.432030 0.048974 0.226802
H34   H     H_    0.443388 0.425837 0.933103 0.227643
H35   H     H_    0.479477 0.160850 0.444995 0.107950
H36   H     H_    0.520523 0.839150 0.555005 0.107950
H37   H     H_    0.756876 0.027671 0.397139 0.122811
H38   H     H_    0.243124 0.972329 0.602861 0.122811
C49   C     C_3   0.850920 0.971772 0.585198 -0.797969
H39   H     H_    0.930244 0.913233 0.555004 0.202742
H40   H     H_    0.937184 0.036741 0.582963 0.222635
H41   H     H_    0.820751 0.953407 0.652116 0.199277
C50   C     C_3   0.149080 0.028228 0.414802 -0.797969
H42   H     H_    0.069756 0.086767 0.444996 0.202742
H43   H     H_    0.179249 0.046593 0.347884 0.199277
H44   H     H_    0.062816 0.963259 0.417037 0.222635

loop_
_geom_bond_atom_site_label_1
_geom_bond_atom_site_label_2
_ccdc_geom_bond_type
V4    O20   S    
C44   H20   S    
C5    C21   S    
C10   C13   S    
O13   V3    S    
C46   H26   S    
O4    C2    A    
V1    O19   S    
C46   H28   S    
C33   C38   S    
O9    V1    S    
C35   C40   S    
C9    C15   S    
C36   C39   S    
C10   C16   S    
C11   C13   S    
O3    C1    A    
C9    C11   S    
C12   H2    S    
C33   C35   S    
C11   H1    S    
C7    C14   S    
O12   V4    S    
C50   H42   S    
C19   C43   S    
C26   H38   S    
C23   C47   S    
C36   C38   S    
C27   C32   S    
C37   C39   S    
O7    C3    A    
C38   C40   S    
C35   H3    S    
O5    C7    A    
O7    V1    S    
O6    C8    A    
C3    C38   S    
C49   H39   S    
C20   C22   S    
C25   C27   S    
C20   C23   S    
C26   C28   S    
C17   C22   S    
O3    V1    S    
O14   V4    S    
C15   C41   S    
C49   H41   S    
C20   C44   S    
C19   C24   S    
C10   C12   S    
C28   C31   S    
C31   C49   S    
C34   C37   S    
C21   C23   S    
C2    O12   A    
O17   V3    S    
C17   C19   S    
C18   C20   S    
C27   H35   S    
C28   C30   S    
O11   V3    S    
C22   C24   S    
C29   C31   S    
C34   C40   S    
C30   C32   S    
C35   C37   S    
C26   C29   S    
C18   C46   S    
C49   H40   S    
O8    C4    A    
O8    V2    S    
C45   H23   S    
C42   H15   S    
C34   H6    S    
C1    O11   A    
C50   H43   S    
C25   C31   S    
C4    C37   S    
O15   V3    S    
C26   C32   S    
C27   C29   S    
C18   C21   S    
C41   H11   S    
C45   H24   S    
C19   C21   S    
C43   H17   S    
C50   H44   S    
O10   V2    S    
O1    V3    S    
C43   H19   S    
C17   C23   S    
C16   C42   S    
C48   H33   S    
C18   C24   S    
C41   H12   S    
C28   H36   S    
C10   H10   S    
C9    H9    S    
C17   C45   S    
C39   H7    S    
O18   V4    S    
C44   H21   S    
O16   C6    A    
O1    C3    A    
C12   C14   S    
C25   H37   S    
V2    O20   S    
O16   V4    S    
C43   H18   S    
C12   C15   S    
C33   C39   S    
C2    C29   S    
C42   H16   S    
C46   H27   S    
O5    V1    S    
O17   C7    A    
O6    V2    S    
O10   C6    A    
O18   C8    A    
C9    C14   S    
C47   H29   S    
O2    V4    S    
C6    C22   S    
O15   C5    A    
C11   C16   S    
V3    O19   S    
C45   H25   S    
C14   C16   S    
C24   C48   S    
C8    C13   S    
O9    C5    A    
O13   V1    S    
C32   C50   S    
C48   H34   S    
O14   V2    S    
C40   H8    S    
O2    C4    A    
C41   H13   S    
C42   H14   S    
O4    V2    S    
C47   H31   S    
C36   H4    S    
C13   C15   S    
C44   H22   S    
C48   H32   S    
C1    C30   S    
C33   H5    S    
C34   C36   S    
C47   H30   S    
C25   C30   S    
