data_mof_unit_22284.cif
_audit_creation_date              2012-12-11T14:40:17-0500
_audit_creation_method            fapswitch 2.2
_symmetry_space_group_name_H-M    P1
_symmetry_Int_Tables_number       1
_space_group_crystal_system       triclinic
_cell_length_a                    19.603484
_cell_length_b                    10.926641
_cell_length_c                    19.426873
_cell_angle_alpha                 90.17913
_cell_angle_beta                  97.523853
_cell_angle_gamma                 90.438787
_cell_volume                      4125.25747503

loop_
_atom_site_label
_atom_site_type_symbol
_atom_type_description
_atom_site_fract_x
_atom_site_fract_y
_atom_site_fract_z
_atom_type_partial_charge
C1    C     C_R   0.707295 0.000914 0.366450 0.548980
C2    C     C_3   0.246554 0.422325 0.572342 0.066321
C3    C     C_2   0.716677 0.129787 0.598109 0.214065
C4    C     C_3   0.252002 0.915212 0.430656 0.033689
C5    C     C_3   0.749322 0.907643 0.568349 0.032259
C6    C     C_3   0.709077 0.505476 0.467528 0.003183
C7    C     C_3   0.277699 0.532550 0.540022 -0.000809
C8    C     C_3   0.279720 0.040111 0.454867 0.003533
C9    C     C_3   0.726953 0.034399 0.545070 0.003267
C10   C     C_3   0.776996 0.539095 0.513851 -0.130334
C11   C     C_3   0.205715 0.561082 0.499809 -0.149952
C12   C     C_3   0.332317 0.977988 0.509770 -0.101220
C13   C     C_R   0.293782 0.003367 0.634328 0.557537
C14   C     C_3   0.670932 0.977452 0.491002 -0.101420
C15   C     C_3   0.816565 0.444472 0.474809 -0.130976
C16   C     C_3   0.175015 0.448083 0.533345 -0.124241
C17   C     C_3   0.303660 0.851491 0.485054 -0.107804
C18   C     C_3   0.693936 0.848579 0.515010 -0.102636
C19   C     C_3   0.800688 0.343149 0.525547 -0.121926
C20   C     C_3   0.192534 0.364821 0.474047 -0.117411
C21   C     C_3   0.249470 0.855752 0.535699 -0.103328
C22   C     C_3   0.746943 0.844689 0.463043 -0.099377
C23   C     C_3   0.761478 0.435834 0.563826 0.047940
C24   C     C_R   0.207165 0.501183 0.366682 0.565478
C25   C     C_3   0.222881 0.476366 0.441005 0.038602
C26   C     C_3   0.278238 0.980788 0.560177 0.028685
C27   C     C_3   0.724015 0.972939 0.439534 0.032561
C28   C     C_3   0.484316 0.286239 0.981310 -0.098653
C29   C     C_3   0.438156 0.250379 0.036565 -0.126603
C30   C     C_3   0.984294 0.786249 0.981313 -0.099298
C31   C     C_3   0.938142 0.750345 0.036567 -0.127945
C32   C     C_3   0.542408 0.204913 0.016065 -0.103932
C33   C     C_3   0.409596 0.138997 0.991905 -0.148968
C34   C     C_3   0.042403 0.704955 0.016064 -0.102902
C35   C     C_R   0.775252 0.454858 0.637938 0.563928
C36   C     C_3   0.909604 0.638954 0.991902 -0.148313
C37   C     C_3   0.496073 0.169234 0.070789 0.050132
C38   C     C_3   0.456403 0.175102 0.937770 0.042680
C39   C     C_3   0.996076 0.669234 0.070786 0.050484
C40   C     C_3   0.956403 0.675102 0.937769 0.044386
C41   C     C_R   0.535374 0.180030 0.338065 0.540279
C42   C     C_R   0.465202 0.180204 0.662363 0.554453
C43   C     C_R   0.035125 0.679888 0.337884 0.534485
C44   C     C_R   0.964915 0.680103 0.662147 0.556538
C45   C     C_3   0.468281 0.057553 0.027859 -0.112537
C46   C     C_3   0.732093 0.313283 0.479996 -0.113748
C47   C     C_3   0.514301 0.093703 0.972174 -0.098408
C48   C     C_3   0.968307 0.557542 0.027852 -0.113391
C49   C     C_3   0.014319 0.593736 0.972169 -0.098789
C50   C     C_1   0.762270 0.424389 0.903762 -0.001139
C51   C     C_1   0.242548 0.408165 0.100537 -0.006218
C52   C     C_1   0.262283 0.924419 0.903773 -0.003383
C53   C     C_1   0.742541 0.908181 0.100530 -0.006839
C54   C     C_1   0.747343 0.406962 0.034428 -0.047230
C55   C     C_1   0.266327 0.358502 0.974570 -0.045045
C56   C     C_1   0.247361 0.907007 0.034442 -0.046788
C57   C     C_3   0.264548 0.340303 0.513556 -0.126420
C58   C     C_1   0.766321 0.858515 0.974566 -0.045197
C59   C     C_1   0.753709 0.414030 0.963487 -0.046720
C60   C     C_1   0.255379 0.382268 0.043455 -0.046512
C61   C     C_1   0.253726 0.914071 0.963500 -0.047017
C62   C     C_1   0.755371 0.882285 0.043449 -0.046612
C63   C     C_1   0.742750 0.394124 0.094948 -0.002564
C64   C     C_1   0.272855 0.338705 0.914880 -0.010983
C65   C     C_1   0.242763 0.894163 0.094962 -0.002876
C66   C     C_1   0.772851 0.838714 0.914878 -0.011161
C67   C     C_R   0.740965 0.369551 0.359056 0.558079
C68   C     C_3   0.197849 0.918738 0.480880 -0.148534
C69   C     C_R   0.258879 0.369551 0.641004 0.579076
C70   C     C_R   0.239966 0.864806 0.361239 0.538845
C71   C     C_R   0.760695 0.862353 0.638117 0.562628
C72   C     C_R   0.722608 0.950383 0.164614 0.558728
C73   C     C_R   0.277873 0.952407 0.836027 0.549102
C74   C     C_R   0.222612 0.450373 0.164619 0.559191
C75   C     C_R   0.777869 0.452399 0.836024 0.537910
C76   C     C_R   0.528207 0.178171 0.142076 0.545484
C77   C     C_R   0.436541 0.182594 0.863036 0.535597
C78   C     C_R   0.028210 0.678171 0.142073 0.546340
C79   C     C_3   0.802426 0.902774 0.517170 -0.152620
C80   C     C_R   0.936541 0.682594 0.863036 0.538927
C81   C     C_R   0.735979 0.360109 0.164402 0.546061
C82   C     C_R   0.277863 0.310482 0.843836 0.536382
C83   C     C_R   0.235986 0.860131 0.164412 0.547702
C84   C     C_R   0.777862 0.810485 0.843836 0.538374
C85   C     C_1   0.487239 0.172831 0.595531 0.029569
C86   C     C_1   0.515075 0.172790 0.405646 0.037194
C87   C     C_1   0.986166 0.672024 0.594975 -0.010582
C88   C     C_1   0.014035 0.671886 0.405118 -0.012820
C89   C     C_1   0.505703 0.170095 0.465418 -0.001409
C90   C     C_3   0.748831 0.413413 0.429522 0.072600
C91   C     C_1   0.497650 0.170104 0.536068 -0.006046
C92   C     C_1   0.004196 0.668353 0.464733 -0.060906
C93   C     C_1   0.996105 0.668405 0.535384 -0.059969
C94   C     C_3   0.693093 0.406365 0.519129 -0.135031
C95   C     C_3   0.295062 0.451482 0.479946 -0.121067
C96   C     C_3   0.225869 0.045572 0.506505 -0.157789
C97   C     C_3   0.780072 0.032337 0.492615 -0.158733
C98   C     C_2   0.654730 0.587627 0.432110 0.217755
C99   C     C_2   0.330263 0.611407 0.582495 0.218967
C100  C     C_2   0.293140 0.137216 0.404048 0.210178
Cr1   Cr    Cr6+3 0.765830 0.160660 0.268180 1.023969
Cr2   Cr    Cr6+3 0.384070 0.324050 0.751550 1.057240
Cr3   Cr    Cr6+3 0.115930 0.824050 0.248450 1.021256
Cr4   Cr    Cr6+3 0.884070 0.824050 0.751550 1.024223
Cr5   Cr    Cr6+3 0.234170 0.160660 0.731820 1.021751
Cr6   Cr    Cr6+3 0.265830 0.660660 0.268180 1.039510
Cr7   Cr    Cr6+3 0.734170 0.660660 0.731820 1.033805
Cr8   Cr    Cr6+3 0.612110 0.009150 0.248770 1.050846
Cr9   Cr    Cr6+3 0.387890 0.009150 0.751230 1.051600
Cr10  Cr    Cr6+3 0.112110 0.509150 0.248770 1.021243
Cr11  Cr    Cr6+3 0.887890 0.509150 0.751230 1.025974
Cr12  Cr    Cr6+3 0.615930 0.324050 0.248450 1.067133
H1    H     H_    0.708123 0.225985 0.460575 0.115482
H2    H     H_    0.616982 0.007825 0.478500 0.128122
H3    H     H_    0.796087 0.631330 0.531250 0.109098
H4    H     H_    0.178955 0.649422 0.490030 0.099637
H5    H     H_    0.866470 0.461328 0.455149 0.126681
H6    H     H_    0.126397 0.446647 0.556929 0.132564
H7    H     H_    0.335554 0.772261 0.474017 0.124424
H8    H     H_    0.658564 0.774543 0.527139 0.127599
H9    H     H_    0.838114 0.276757 0.551426 0.116466
H10   H     H_    0.157545 0.295413 0.446107 0.126777
H11   H     H_    0.234141 0.786267 0.572136 0.175124
H12   H     H_    0.293503 0.254889 0.525101 0.127083
H13   H     H_    0.756855 0.769532 0.427314 0.171297
H14   H     H_    0.597516 0.231978 0.027174 0.123131
H15   H     H_    0.354547 0.112878 0.980029 0.108650
H16   H     H_    0.097506 0.732056 0.027173 0.123764
H17   H     H_    0.854560 0.612801 0.980025 0.109404
H18   H     H_    0.491128 0.380393 0.961840 0.144824
H19   H     H_    0.407520 0.313785 0.064791 0.131385
H20   H     H_    0.991084 0.880412 0.961847 0.142784
H21   H     H_    0.907493 0.813725 0.064795 0.129292
H22   H     H_    0.461791 0.964373 0.048774 0.132289
H23   H     H_    0.142760 0.893287 0.467392 0.132522
H24   H     H_    0.545524 0.030273 0.944572 0.139985
H25   H     H_    0.961837 0.464353 0.048763 0.129969
H26   H     H_    0.045555 0.530333 0.944565 0.138271
H27   H     H_    0.611479 0.613237 0.458421 0.093687
H28   H     H_    0.377546 0.636172 0.562473 0.094558
H29   H     H_    0.251057 0.171078 0.367426 0.126554
H30   H     H_    0.760452 0.164081 0.632918 0.115620
H31   H     H_    0.856232 0.870934 0.530011 0.131266
H32   H     H_    0.643074 0.390155 0.538673 0.152028
H33   H     H_    0.343865 0.452481 0.456677 0.148367
H34   H     H_    0.192608 0.121942 0.518710 0.126050
H35   H     H_    0.816370 0.104261 0.479695 0.128496
H36   H     H_    0.387499 0.001648 0.523144 0.128721
O1    O     O_R   0.783230 0.287800 0.346510 -0.538382
O2    O     O_R   0.454570 0.285140 0.836900 -0.510874
O3    O     O_R   0.045430 0.785140 0.163100 -0.510839
O4    O     O_R   0.954570 0.785140 0.836900 -0.514275
O5    O     O_R   0.677850 0.374730 0.185500 -0.486698
O6    O     O_R   0.322150 0.374730 0.814500 -0.487136
O7    O     O_R   0.177850 0.874730 0.185500 -0.493671
O8    O     O_R   0.822150 0.874730 0.814500 -0.499008
O9    O     O_3   0.664630 0.164620 0.255130 -0.291057
O10   O     O_3   0.335370 0.164620 0.744870 -0.336422
O11   O     O_3   0.164630 0.664620 0.255130 -0.277846
O12   O     O_R   0.216770 0.287800 0.653490 -0.533997
O13   O     O_3   0.835370 0.664620 0.744870 -0.303672
O14   O     O_R   0.760130 0.037060 0.338610 -0.499538
O15   O     O_R   0.239870 0.037060 0.661390 -0.493911
O16   O     O_R   0.260130 0.537060 0.338610 -0.495561
O17   O     O_R   0.739870 0.537060 0.661390 -0.499876
O18   O     O_R   0.666620 0.921370 0.332440 -0.470870
O19   O     O_R   0.333380 0.921370 0.667560 -0.460050
O20   O     O_R   0.166620 0.421370 0.332440 -0.519982
O21   O     O_R   0.833380 0.421370 0.667560 -0.519383
O22   O     O_R   0.557170 0.082420 0.312350 -0.520983
O23   O     O_R   0.283230 0.787800 0.346510 -0.523126
O24   O     O_R   0.442830 0.082420 0.687650 -0.512014
O25   O     O_R   0.057170 0.582420 0.312350 -0.513848
O26   O     O_R   0.942830 0.582420 0.687650 -0.487944
O27   O     O_R   0.548310 0.285980 0.316250 -0.497898
O28   O     O_R   0.451690 0.285980 0.683750 -0.498484
O29   O     O_R   0.048310 0.785980 0.316250 -0.508867
O30   O     O_R   0.951690 0.785980 0.683750 -0.504278
O31   O     O_R   0.680520 0.375500 0.327470 -0.465912
O32   O     O_R   0.319480 0.375500 0.672530 -0.469937
O33   O     O_R   0.180520 0.875500 0.327470 -0.509370
O34   O     O_R   0.716770 0.787800 0.653490 -0.512272
O35   O     O_R   0.819480 0.875500 0.672530 -0.504377
O36   O     O_R   0.780350 0.286970 0.193350 -0.510115
O37   O     O_R   0.219650 0.286970 0.806650 -0.492925
O38   O     O_R   0.280350 0.786970 0.193350 -0.503110
O39   O     O_R   0.719650 0.786970 0.806650 -0.487234
O40   O     O_R   0.757460 0.036290 0.196640 -0.492050
O41   O     O_R   0.242540 0.036290 0.803360 -0.509919
O42   O     O_R   0.257460 0.536290 0.196640 -0.487125
O43   O     O_R   0.742540 0.536290 0.803360 -0.510096
O44   O     O_R   0.663740 0.920540 0.179290 -0.493826
O45   O     O_R   0.554500 0.081650 0.170370 -0.501614
O46   O     O_R   0.336260 0.920540 0.820710 -0.494181
O47   O     O_R   0.163740 0.420540 0.179290 -0.503538
O48   O     O_R   0.836260 0.420540 0.820710 -0.510004
O49   O     O_2   0.658292 0.625219 0.373604 -0.486258
O50   O     O_2   0.320677 0.646864 0.640050 -0.475330
O51   O     O_2   0.350967 0.178713 0.403597 -0.523185
O52   O     O_2   0.659185 0.167563 0.603258 -0.527598
O53   O     O_R   0.445500 0.081650 0.829630 -0.491688
O54   O     O_R   0.054500 0.581650 0.170370 -0.501116
O55   O     O_R   0.945500 0.581650 0.829630 -0.492935
O56   O     O_R   0.545430 0.285140 0.163100 -0.509338

loop_
_geom_bond_atom_site_label_1
_geom_bond_atom_site_label_2
_ccdc_geom_bond_type
C58   C62   S    
C21   C26   S    
Cr7   O17   S    
Cr8   O22   S    
C47   H24   S    
C67   O1    A    
Cr11  O26   S    
C33   C45   S    
Cr6   O23   S    
C14   C18   S    
C19   C23   S    
C2    C7    S    
C95   H33   S    
C51   C74   S    
C4    C8    S    
Cr2   O10   S    
C4    C70   S    
C85   C91   T    
C19   C46   S    
C81   O5    A    
Cr8   O45   S    
C29   H19   S    
C7    C11   S    
C41   C86   S    
C45   H22   S    
C68   C96   S    
C7    C99   S    
C48   H25   S    
C63   C81   S    
C50   C59   T    
C6    C98   S    
C28   C29   S    
C24   O20   A    
C44   O26   A    
C22   C79   S    
C15   C19   S    
C52   C61   T    
C69   O32   A    
C30   C31   S    
C65   C83   S    
Cr5   O12   S    
C83   O7    A    
C54   C63   T    
C11   C25   S    
Cr2   O28   S    
C40   C49   S    
Cr7   O39   S    
C33   H15   S    
C69   O12   A    
Cr2   O32   S    
C53   C62   T    
C32   H14   S    
C72   O40   A    
C8    C96   S    
Cr9   O19   S    
C35   O17   A    
C74   O42   A    
Cr10  O20   S    
C58   C66   T    
C79   H31   S    
C88   C92   T    
C29   C33   S    
C6    C94   S    
Cr11  O13   S    
C12   C17   S    
Cr5   O15   S    
C83   O38   A    
Cr6   O16   S    
C14   C27   S    
C89   C91   S    
C2    C69   S    
C2    C16   S    
Cr2   O6    S    
C20   H10   S    
C46   H1    S    
Cr9   O24   S    
C31   H21   S    
Cr11  O48   S    
C55   C60   S    
C75   O48   A    
C41   O27   A    
Cr1   O9    S    
C44   C87   S    
C18   C22   S    
C49   H26   S    
C97   H35   S    
C71   O34   A    
C24   O16   A    
C3    H30   S    
Cr9   O10   S    
Cr10  O11   S    
C78   O3    A    
C13   O15   A    
C54   C59   S    
C45   C47   S    
C26   C96   S    
Cr4   O30   S    
C2    C57   S    
Cr12  O9    S    
C30   C34   S    
C82   O37   A    
C34   C39   S    
C39   C78   S    
Cr7   O13   S    
C36   C40   S    
C24   C25   S    
Cr6   O38   S    
C43   O29   A    
C52   C73   S    
C76   O45   A    
Cr11  O55   S    
Cr4   O13   S    
C4    C68   S    
C22   H13   S    
Cr8   O9    S    
Cr7   O34   S    
C6    C90   S    
C67   C90   S    
C17   C21   S    
C15   H5    S    
C12   C26   S    
Cr11  O21   S    
C82   O6    A    
C21   H11   S    
C75   O43   A    
C9    C14   S    
C5    C9    S    
C3    C9    S    
C16   H6    S    
C11   C16   S    
C70   O33   A    
Cr5   O10   S    
C46   C94   S    
C28   C32   S    
C8    C12   S    
C64   C82   S    
C55   C64   T    
Cr12  O27   S    
C40   C80   S    
C3    O52   D    
C30   C40   S    
Cr9   O46   S    
C56   C61   S    
C42   C85   S    
C16   C20   S    
C32   C37   S    
Cr4   O8    S    
C11   H4    S    
Cr1   O14   S    
C38   C47   S    
Cr4   O4    S    
Cr1   O36   S    
C42   O24   A    
Cr2   O2    S    
Cr12  O31   S    
C4    C17   S    
Cr3   O7    S    
C48   C49   S    
C37   C76   S    
C1    O14   A    
C25   C95   S    
C23   C35   S    
C22   C27   S    
C21   C68   S    
C57   C95   S    
C35   O21   A    
C32   C47   S    
C99   H28   S    
C5    C79   S    
C43   C88   S    
C44   O30   A    
Cr1   O40   S    
C18   H8    S    
C7    C95   S    
Cr6   O42   S    
Cr10  O25   S    
C56   C65   T    
C80   O4    A    
Cr8   O18   S    
C74   O47   A    
C19   H9    S    
C34   C49   S    
C9    C97   S    
C98   O49   D    
Cr3   O33   S    
C79   C97   S    
C68   H23   S    
Cr12  O5    S    
C78   O54   A    
C86   C89   T    
C77   O53   A    
C77   O2    A    
C6    C10   S    
C76   O56   A    
C46   C90   S    
C38   C77   S    
Cr3   O3    S    
C10   C23   S    
C96   H34   S    
C41   O22   A    
Cr5   O37   S    
C33   C38   S    
C23   C94   S    
Cr10  O54   S    
C98   H27   S    
C10   C15   S    
C94   H32   S    
C12   H36   S    
Cr9   O53   S    
C100  H29   S    
C20   C57   S    
C5    C71   S    
C14   H2    S    
C50   C75   S    
C15   C90   S    
C84   O8    A    
Cr3   O11   S    
C43   O25   A    
C1    O18   A    
C5    C18   S    
C30   H20   S    
C87   C93   T    
C99   O50   D    
Cr1   O1    S    
C92   C93   S    
C36   H17   S    
Cr5   O41   S    
C31   C39   S    
C36   C48   S    
C28   H18   S    
C70   O23   A    
C8    C100  S    
C13   C26   S    
C67   O31   A    
C13   O19   A    
C27   C97   S    
C17   H7    S    
C66   C84   S    
Cr7   O43   S    
C80   O55   A    
C100  O51   D    
Cr4   O35   S    
C34   H16   S    
C20   C25   S    
C29   C37   S    
Cr10  O47   S    
C1    C27   S    
Cr12  O56   S    
C31   C36   S    
Cr8   O44   S    
C84   O39   A    
C42   O28   A    
C51   C60   T    
C81   O36   A    
Cr3   O29   S    
C28   C38   S    
C73   O46   A    
C53   C72   S    
C37   C45   S    
C72   O44   A    
C73   O41   A    
C10   H3    S    
Cr6   O11   S    
C39   C48   S    
C57   H12   S    
C71   O35   A    
