data_mof_unit_49719.cif
_audit_creation_date              2012-12-11T14:55:38-0500
_audit_creation_method            fapswitch 2.2
_symmetry_space_group_name_H-M    P1
_symmetry_Int_Tables_number       1
_space_group_crystal_system       triclinic
_cell_length_a                    8.271381
_cell_length_b                    15.031543
_cell_length_c                    19.170581
_cell_angle_alpha                 100.11778
_cell_angle_beta                  91.982892
_cell_angle_gamma                 99.789807
_cell_volume                      2307.1623666

loop_
_atom_site_label
_atom_site_type_symbol
_atom_type_description
_atom_site_fract_x
_atom_site_fract_y
_atom_site_fract_z
_atom_type_partial_charge
Ba1   Ba    Ba6+2 0.854510 0.539840 0.465770 1.757820
Ba2   Ba    Ba6+2 0.335330 0.460240 0.534240 1.740242
C1    C     C_3   0.722488 0.879894 0.303005 -0.325098
C2    C     C_3   0.667091 0.784606 0.319800 0.363951
C3    C     C_3   0.459323 0.315390 0.315497 0.335507
C4    C     C_3   0.403056 0.283480 0.236947 0.373177
C5    C     C_3   0.060930 0.267262 0.726216 0.344027
C6    C     C_3   0.110898 0.251408 0.800205 -0.254171
C7    C     C_3   0.550479 0.203795 0.696157 0.266159
C8    C     C_3   0.620726 0.157562 0.753649 -0.257166
C9    C     C_R   0.066623 0.544037 0.801703 -0.145022
C10   C     C_R   0.025452 0.531245 0.727814 -0.023038
C11   C     C_R   0.851913 0.416359 0.810004 -0.158205
C12   C     C_3   0.129187 0.725148 0.271533 0.317367
C13   C     C_R   0.786327 0.421631 0.742988 -0.000578
C14   C     C_R   0.343120 0.576055 0.189449 -0.161151
C15   C     C_R   0.411864 0.569431 0.255614 0.010501
C16   C     C_R   0.132777 0.447153 0.198335 -0.140740
C17   C     C_R   0.170776 0.464205 0.272756 0.034554
C18   C     C_R   0.986299 0.482650 0.844871 0.011910
C19   C     C_R   0.881591 0.471347 0.700028 -0.233705
C20   C     C_R   0.210209 0.508491 0.154733 0.001470
C21   C     C_R   0.317424 0.521110 0.299594 -0.257738
C22   C     C_R   0.756882 0.437930 0.959458 -0.101472
C23   C     C_3   0.101061 0.748857 0.198580 -0.306439
C24   C     C_R   0.649766 0.405827 0.007331 -0.065083
C25   C     C_R   0.700983 0.421684 0.078215 0.001498
C26   C     C_R   0.861549 0.463881 0.099479 -0.081272
C27   C     C_R   0.983418 0.475976 0.050626 0.019926
C28   C     C_R   0.928457 0.465906 0.976910 0.053656
C29   C     C_R   0.153461 0.502956 0.075311 -0.001655
C30   C     C_R   0.266533 0.524283 0.022736 0.050690
C31   C     C_R   0.211640 0.512165 0.948998 0.019897
C32   C     C_R   0.041982 0.486468 0.924301 0.004726
C33   C     C_R   0.437295 0.556751 0.040289 -0.119299
C34   C     C_3   0.135084 0.770891 0.698440 0.713813
C35   C     C_R   0.540647 0.592155 0.992168 -0.037808
C36   C     C_R   0.490730 0.570063 0.920872 0.004576
C37   C     C_R   0.333171 0.522260 0.900102 -0.086823
C38   C     C_R   0.757339 0.236558 0.525910 -0.273128
C39   C     C_R   0.849098 0.178858 0.552241 -0.005163
C40   C     C_R   0.789023 0.084266 0.541701 -0.136426
C41   C     C_R   0.635681 0.045733 0.503331 0.011087
C42   C     C_R   0.552262 0.105976 0.473036 -0.102996
C43   C     C_R   0.612171 0.199733 0.484571 0.024962
C44   C     C_R   0.409037 0.908282 0.456264 -0.076959
C45   C     C_3   0.180448 0.830637 0.773057 -0.263306
C46   C     C_R   0.344006 0.815019 0.446032 0.057472
C47   C     C_R   0.579493 0.789384 0.513130 0.039232
C48   C     C_R   0.646344 0.882886 0.522570 -0.090810
C49   C     C_R   0.564465 0.944576 0.493183 0.019219
C50   C     C_R   0.431792 0.755190 0.472563 -0.205484
C51   C     C_3   0.944621 0.255150 0.376472 0.334282
C52   C     C_3   0.911073 0.150767 0.357287 -0.365693
C53   C     C_3   0.703025 0.654573 0.676676 0.440813
C54   C     C_3   0.731240 0.669666 0.757684 0.399661
H1    H     H_    0.722573 0.782929 0.373049 0.052539
H2    H     H_    0.314567 0.857416 0.779786 0.170442
H3    H     H_    0.117123 0.890792 0.778528 0.099465
H4    H     H_    0.829739 0.279387 0.391573 -0.003248
H5    H     H_    0.038230 0.276350 0.421876 0.056213
H6    H     H_    0.810628 0.127358 0.314708 0.172705
H7    H     H_    0.874427 0.120476 0.404192 0.052291
H8    H     H_    0.023802 0.125888 0.338456 0.128249
H9    H     H_    0.799113 0.618590 0.652349 -0.239139
H10   H     H_    0.585692 0.608150 0.661567 0.070083
H11   H     H_    0.858511 0.895439 0.302819 0.152786
H12   H     H_    0.862115 0.692196 0.773705 -0.098704
H13   H     H_    0.695453 0.603037 0.775035 -0.067590
H14   H     H_    0.531032 0.772689 0.320720 -0.102289
H15   H     H_    0.681896 0.932178 0.343768 0.059199
H16   H     H_    0.361051 0.347642 0.342182 -0.107833
H17   H     H_    0.573228 0.367591 0.320515 0.064921
H18   H     H_    0.281863 0.236947 0.231628 0.028255
H19   H     H_    0.389235 0.344086 0.213108 -0.100892
H20   H     H_    0.667768 0.883732 0.250130 0.137316
H21   H     H_    0.124325 0.692686 0.156425 0.079228
H22   H     H_    0.119557 0.338490 0.722719 0.062934
H23   H     H_    0.925724 0.260965 0.720342 -0.089989
H24   H     H_    0.057398 0.297297 0.841215 0.026430
H25   H     H_    0.246102 0.268587 0.810413 0.133310
H26   H     H_    0.652874 0.228989 0.664552 -0.103776
H27   H     H_    0.050006 0.658011 0.273271 0.077426
H28   H     H_    0.718144 0.207745 0.787348 0.044564
H29   H     H_    0.166436 0.598567 0.823667 0.124954
H30   H     H_    0.794374 0.360832 0.834391 0.063772
H31   H     H_    0.397173 0.633360 0.165881 0.077011
H32   H     H_    0.038419 0.389170 0.176051 0.090727
H33   H     H_    0.838428 0.466884 0.645410 0.068159
H34   H     H_    0.361810 0.524432 0.353905 0.065663
H35   H     H_    0.696999 0.446773 0.911505 0.068858
H36   H     H_    0.521235 0.380022 0.990955 0.093772
H37   H     H_    0.612922 0.408322 0.117265 0.134829
H38   H     H_    0.260485 0.720474 0.279469 -0.063193
H39   H     H_    0.887899 0.488913 0.154733 0.132980
H40   H     H_    0.498677 0.550144 0.088599 0.067063
H41   H     H_    0.576705 0.584258 0.881391 0.126744
H42   H     H_    0.306020 0.493695 0.845313 0.128824
H43   H     H_    0.331803 0.950228 0.436476 0.065880
H44   H     H_    0.866779 0.042935 0.562177 0.115282
H45   H     H_    0.760668 0.905358 0.554068 0.136687
H46   H     H_    0.442180 0.082801 0.438700 0.073072
H47   H     H_    0.379607 0.682935 0.465849 0.064391
H48   H     H_    0.972200 0.758514 0.190281 0.168167
H49   H     H_    0.805115 0.309423 0.532991 0.056091
H50   H     H_    0.185381 0.813181 0.194043 0.130535
H51   H     H_    0.005463 0.739128 0.690966 -0.108650
O1    O     O_2   0.872980 0.435970 0.325550 -0.436795
O2    O     O_3   0.705270 0.737331 0.651489 -0.551758
O3    O     O_3   0.088904 0.794571 0.323218 -0.611839
O4    O     O_2   0.316730 0.564060 0.674500 -0.440643
O5    O     O_3   0.068160 0.555880 0.585710 -0.472293
O6    O     O_3   0.525240 0.395830 0.629120 -0.462349
O7    O     O_3   0.240961 0.707604 0.681643 -0.570199
O8    O     O_3   0.608030 0.388080 0.462570 -0.493567
O9    O     O_3   0.102340 0.346310 0.592780 -0.497111
O10   O     O_2   0.178539 0.185199 0.540124 -0.458265
O11   O     O_3   0.112988 0.203452 0.673014 -0.581381
O12   O     O_3   0.121550 0.444190 0.414290 -0.502863
O13   O     O_3   0.581680 0.612000 0.537440 -0.517422
O14   O     O_2   0.334450 0.276040 0.463130 -0.454457
O15   O     O_3   0.487796 0.240128 0.345374 -0.617086
O16   O     O_2   0.469510 0.450496 0.757750 -0.512084
O17   O     O_3   0.467994 0.273957 0.728120 -0.595829
O18   O     O_3   0.664480 0.604250 0.370890 -0.494487
O19   O     O_2   0.733641 0.542650 0.243818 -0.497398
O20   O     O_3   0.000794 0.289981 0.317018 -0.616941
O21   O     O_3   0.718851 0.718821 0.267992 -0.591227
O22   O     O_2   0.855250 0.723990 0.536920 -0.394920
O23   O     O_3   0.087370 0.653760 0.407230 -0.489185
O24   O     O_2   0.008287 0.816376 0.453630 -0.420150
P1    P     P_3+3 0.039940 0.410170 0.336360 1.006128
P2    P     P_3+3 0.679300 0.712470 0.558210 1.106721
P3    P     P_3+3 0.132681 0.771266 0.407402 1.028727
P4    P     P_3+3 0.149780 0.589910 0.663640 1.041782
P5    P     P_3+3 0.058667 0.227783 0.590058 0.976890
P6    P     P_3+3 0.630706 0.609928 0.282518 0.932637
P7    P     P_3+3 0.512291 0.273493 0.437815 0.962828
P8    P     P_3+3 0.566182 0.382561 0.715549 0.938043
C55   C     C_1   0.134257 0.784497 0.832483 0.331028
N1    N     N_1   0.097894 0.750686 0.880807 -0.223528
S1    S     S_3+6 0.620843 0.750221 0.805402 -0.060122
O25   O     O_2   0.443315 0.706707 0.803243 -0.334874
O26   O     O_2   0.689691 0.774244 0.881294 -0.292933
O27   O     O_3   0.639408 0.846460 0.770659 -0.463799
H52   H     H_    0.618897 0.894959 0.809751 0.359889
S2    S     S_3+6 0.546724 0.225143 0.188347 -0.056023
O28   O     O_2   0.550199 0.135146 0.211815 -0.270535
O29   O     O_2   0.494550 0.207524 0.110553 -0.279807
O30   O     O_3   0.734983 0.290507 0.202353 -0.536774
H53   H     H_    0.807438 0.253046 0.175182 0.359251
C56   C     C_1   0.055328 0.156374 0.809166 0.351235
N2    N     N_1   0.012927 0.081555 0.816995 -0.247072
C57   C     C_1   0.432454 0.135057 0.646803 0.367408
N3    N     N_1   0.341143 0.079379 0.608669 -0.199016
C58   C     C_1   0.693438 0.078573 0.721301 0.256528
N4    N     N_1   0.749023 0.016006 0.695628 -0.211821
C59   C     C_1   0.495724 0.125844 0.800778 0.338380
N5    N     N_1   0.398675 0.100435 0.838246 -0.256893
C60   C     C_1   0.705102 0.640440 0.014983 0.328341
N6    N     N_1   0.837014 0.679282 0.033271 -0.259803
S3    S     S_3+6 0.171901 0.846149 0.637167 -0.046556
O31   O     O_2   0.338043 0.906591 0.654283 -0.326358
O32   O     O_2   0.172231 0.786663 0.566358 -0.288158
O33   O     O_3   0.024716 0.910488 0.636275 -0.514867
H54   H     H_    0.063330 0.965813 0.673144 0.351083

loop_
_geom_bond_atom_site_label_1
_geom_bond_atom_site_label_2
_ccdc_geom_bond_type
C44   H43   S    
O19   P6    D    
O33   H54   S    
C39   C40   A    
O17   P8    S    
C1    H15   S    
S2    O28   D    
S1    O27   S    
C53   C54   S    
O24   P3    D    
C34   O7    S    
C2    H14   S    
O27   H52   S    
C5    C6    S    
C50   H47   S    
C19   H33   S    
C33   H40   S    
Ba2   O5    S    
C24   C25   A    
C31   C37   A    
C26   H39   S    
C23   H21   S    
C35   C60   S    
C46   P3    S    
C58   N4    T    
C6    C56   S    
C35   C36   A    
C22   C24   A    
Ba1   Ba2   S    
C3    H16   S    
Ba1   O22   S    
Ba1   O5    S    
C3    C4    S    
Ba2   O6    S    
C52   H7    S    
C24   H36   S    
O16   P8    D    
C7    O17   S    
C34   C45   S    
O13   P2    S    
Ba1   O12   S    
O20   P1    S    
C51   O20   S    
Ba2   O9    S    
C14   C15   A    
C10   P4    S    
C11   H30   S    
C14   H31   S    
O7    P4    S    
O6    P8    S    
C7    C8    S    
C8    C59   S    
C13   P8    S    
C7    H26   S    
C9    H29   S    
C54   S1    S    
Ba1   P1    S    
C53   O2    S    
C34   H51   S    
C34   S3    S    
C5    O11   S    
O23   P3    S    
C51   H5    S    
C12   H27   S    
C36   H41   S    
Ba1   P2    S    
C53   H9    S    
C51   H4    S    
C23   H50   S    
C4    H18   S    
S3    O32   D    
C38   C43   A    
Ba2   O4    S    
C44   C46   A    
C9    C18   A    
C20   C29   S    
C28   C32   A    
O2    P2    S    
C6    H25   S    
C30   C33   A    
C4    H19   S    
S2    O30   S    
C55   N1    T    
O15   P7    S    
Ba1   O23   S    
C8    C58   S    
Ba2   O13   S    
C16   C17   A    
C37   H42   S    
C52   H6    S    
O18   P6    S    
C51   C52   S    
C3    O15   S    
C16   H32   S    
Ba1   O13   S    
O14   P7    D    
C2    H1    S    
C17   C21   A    
C41   C42   A    
C27   C28   A    
C40   H44   S    
S3    O33   S    
Ba2   O8    S    
C29   C30   A    
O8    P7    S    
C46   C50   A    
Ba2   O12   S    
C47   C50   A    
C31   C32   A    
C21   H34   S    
C48   C49   A    
C15   C21   A    
C1    H20   S    
C57   N3    T    
O21   P6    S    
O22   P2    D    
C38   C39   A    
C7    C57   S    
C54   H13   S    
C5    H22   S    
C59   N5    T    
S1    O26   D    
O3    P3    S    
C40   C41   A    
O5    P4    S    
C1    C2    S    
C22   H35   S    
C53   H10   S    
O11   P5    S    
C42   C43   A    
C33   C35   A    
C5    H23   S    
S3    O31   D    
Ba2   O14   S    
C17   P1    S    
C12   O3    S    
C47   P2    S    
C26   C27   A    
C2    O21   S    
C14   C20   A    
C11   C18   A    
S2    O29   D    
C16   C20   A    
C1    H11   S    
Ba1   O18   S    
O12   P1    S    
C9    C10   A    
C23   H48   S    
O9    P5    S    
Ba2   P4    S    
O30   H53   S    
C60   N6    T    
C11   C13   A    
C18   C32   S    
C27   C29   A    
C54   H12   S    
C30   C31   A    
C45   H2    S    
C4    S2    S    
O4    P4    D    
C36   C37   A    
C52   H8    S    
C41   C49   S    
C44   C49   A    
C8    H28   S    
C43   P7    S    
C12   C23   S    
C3    H17   S    
C22   C28   A    
O1    P1    D    
C25   H37   S    
Ba1   O1    S    
C45   H3    S    
C10   C19   A    
C13   C19   A    
C45   C55   S    
C56   N2    T    
C48   H45   S    
C47   C48   A    
C25   C26   A    
C6    H24   S    
S1    O25   D    
C15   P6    S    
Ba1   O8    S    
O10   P5    D    
C12   H38   S    
C39   P5    S    
C38   H49   S    
C42   H46   S    
