data_mof_unit_56854.cif
_audit_creation_date              2012-12-11T14:52:32-0500
_audit_creation_method            fapswitch 2.2
_symmetry_space_group_name_H-M    P1
_symmetry_Int_Tables_number       1
_space_group_crystal_system       triclinic
_cell_length_a                    18.838287
_cell_length_b                    10.943615
_cell_length_c                    18.799374
_cell_angle_alpha                 90.066005
_cell_angle_beta                  90.737442
_cell_angle_gamma                 90.219207
_cell_volume                      3875.30722599

loop_
_atom_site_label
_atom_site_type_symbol
_atom_type_description
_atom_site_fract_x
_atom_site_fract_y
_atom_site_fract_z
_atom_type_partial_charge
C1    C     C_R   0.271513 0.043314 0.853132 0.549786
C2    C     C_R   0.728246 0.043214 0.146686 0.549369
C3    C     C_R   0.771502 0.543358 0.853116 0.537995
C4    C     C_R   0.228229 0.543192 0.146672 0.548761
C5    C     C_3   0.546533 0.748915 0.967955 -0.140882
C6    C     C_3   0.489544 0.715665 0.023348 -0.118475
C7    C     C_3   0.046981 0.249631 0.967851 -0.140534
C8    C     C_3   0.990159 0.215429 0.023223 -0.118580
C9    C     C_R   0.306125 0.539961 0.964518 -0.157113
C10   C     C_R   0.697290 0.533024 0.036135 -0.120265
C11   C     C_R   0.806013 0.039698 0.964496 -0.157661
C12   C     C_R   0.197534 0.032524 0.036241 -0.120597
C13   C     C_R   0.302462 0.527559 0.038254 -0.145097
C14   C     C_R   0.701837 0.515463 0.962977 -0.144830
C15   C     C_R   0.802387 0.027277 0.038233 -0.144820
C16   C     C_R   0.202073 0.014933 0.963087 -0.145969
C17   C     C_R   0.246865 0.582836 0.075360 0.041782
C18   C     C_R   0.750313 0.584630 0.923220 0.025489
C19   C     C_R   0.746976 0.082962 0.075418 0.042168
C20   C     C_R   0.250331 0.084455 0.923263 0.023675
C21   C     C_R   0.198438 0.657345 0.038991 -0.137001
C22   C     C_R   0.789597 0.677811 0.956002 -0.140736
C23   C     C_R   0.698786 0.158037 0.039149 -0.136174
C24   C     C_R   0.289410 0.177944 0.955982 -0.141039
C25   C     C_R   0.200906 0.666916 0.966299 -0.126444
C26   C     C_R   0.785643 0.694138 0.028496 -0.138438
C27   C     C_R   0.701247 0.167735 0.966454 -0.125502
C28   C     C_R   0.285450 0.194330 0.028475 -0.137730
C29   C     C_R   0.254150 0.607790 0.928001 0.030418
C30   C     C_R   0.741546 0.619235 0.069500 0.071394
C31   C     C_R   0.754219 0.108045 0.928063 0.030814
C32   C     C_R   0.241580 0.119115 0.069537 0.072570
C33   C     C_R   0.520668 0.723227 0.543770 -0.136549
C34   C     C_R   0.527185 0.721080 0.471134 -0.117758
C35   C     C_R   0.028402 0.231601 0.545211 -0.134570
C36   C     C_R   0.036356 0.227556 0.472620 -0.112204
C37   C     C_R   0.518603 0.828441 0.431170 0.036289
C38   C     C_R   0.503919 0.832316 0.578280 0.027041
C39   C     C_R   0.017390 0.328409 0.430269 0.035182
C40   C     C_R   0.999798 0.335491 0.576711 0.025247
C41   C     C_R   0.508379 0.940055 0.466127 -0.147854
C42   C     C_R   0.502451 0.942173 0.539941 -0.147592
C43   C     C_R   0.993835 0.436134 0.462070 -0.151190
C44   C     C_R   0.984788 0.439645 0.535342 -0.137338
C45   C     C_R   0.471146 0.822291 0.855040 0.568779
C46   C     C_R   0.531205 0.821049 0.143668 0.584387
C47   C     C_R   0.971138 0.322299 0.855042 0.568468
C48   C     C_R   0.031269 0.321034 0.143639 0.583739
C49   C     C_R   0.184097 0.584984 0.544032 -0.131237
C50   C     C_R   0.791047 0.687325 0.474238 -0.133347
C51   C     C_R   0.684214 0.092415 0.543071 -0.130115
C52   C     C_R   0.324428 0.089068 0.452236 -0.126364
C53   C     C_R   0.178115 0.578725 0.471580 -0.135814
C54   C     C_R   0.790679 0.678880 0.546713 -0.150981
C55   C     C_R   0.679214 0.088746 0.470602 -0.133587
C56   C     C_R   0.333520 0.063462 0.523270 -0.144499
C57   C     C_R   0.239068 0.566429 0.429715 0.022543
C58   C     C_R   0.746139 0.594070 0.579067 0.015597
C59   C     C_R   0.739917 0.068818 0.429450 0.022699
C60   C     C_R   0.278560 0.010494 0.561763 0.012284
C61   C     C_R   0.306525 0.554563 0.461545 -0.031369
C62   C     C_R   0.692735 0.532526 0.538602 -0.024491
C63   C     C_R   0.806482 0.050179 0.462270 -0.037017
C64   C     C_R   0.215127 0.972759 0.525637 -0.026922
C65   C     C_R   0.312169 0.562305 0.534707 -0.134250
C66   C     C_R   0.693027 0.542854 0.465295 -0.146396
C67   C     C_R   0.811233 0.055851 0.535631 -0.141942
C68   C     C_R   0.205964 0.001997 0.454303 -0.147737
C69   C     C_R   0.251216 0.583178 0.575283 0.018090
C70   C     C_R   0.743926 0.616213 0.433042 0.021008
C71   C     C_R   0.750564 0.082560 0.575430 0.014788
C72   C     C_R   0.258648 0.066961 0.419106 0.018800
C73   C     C_R   0.261624 0.640370 0.853335 0.551912
C74   C     C_R   0.736829 0.645356 0.145129 0.586349
C75   C     C_R   0.761642 0.140439 0.853361 0.548891
C76   C     C_R   0.236856 0.145257 0.145159 0.583957
C77   C     C_R   0.290415 0.996391 0.638209 0.556611
C78   C     C_R   0.727495 0.043340 0.355339 0.553071
C79   C     C_R   0.769784 0.548258 0.647323 0.541358
C80   C     C_R   0.227176 0.542631 0.355516 0.554360
C81   C     C_R   0.471813 0.823915 0.648054 0.537512
C82   C     C_R   0.534316 0.822836 0.355659 0.560435
C83   C     C_R   0.970598 0.324277 0.647380 0.549328
C84   C     C_R   0.033552 0.322831 0.355133 0.560241
C85   C     C_R   0.259797 0.634353 0.644774 0.545150
C86   C     C_R   0.738748 0.641929 0.358414 0.559083
C87   C     C_R   0.759654 0.134020 0.644887 0.551896
C88   C     C_R   0.241565 0.132298 0.354344 0.558257
C89   C     C_3   0.459130 0.908424 0.030285 -0.009960
C90   C     C_3   0.515239 0.941932 0.975013 -0.003044
C91   C     C_3   0.958831 0.407719 0.030343 -0.010389
C92   C     C_3   0.014774 0.442186 0.975100 -0.002652
C93   C     C_3   0.434978 0.798260 0.984857 -0.105306
C94   C     C_3   0.570130 0.860402 0.013721 -0.148947
C95   C     C_3   0.935201 0.297356 0.984820 -0.104914
C96   C     C_3   0.070055 0.361311 0.013722 -0.148898
C97   C     C_3   0.492497 0.831294 0.929856 0.054428
C98   C     C_3   0.512602 0.826852 0.068177 0.043424
C99   C     C_3   0.992549 0.331351 0.929837 0.054976
C100  C     C_3   0.012691 0.326813 0.068148 0.042783
Cr1   Cr    Cr6+3 0.229630 0.835900 0.747350 1.058252
Cr2   Cr    Cr6+3 0.770370 0.835900 0.252650 1.045392
Cr3   Cr    Cr6+3 0.729630 0.335900 0.747350 1.061797
Cr4   Cr    Cr6+3 0.270370 0.335900 0.252650 1.047341
Cr5   Cr    Cr6+3 0.387410 0.989850 0.750850 1.067012
Cr6   Cr    Cr6+3 0.612590 0.989850 0.249150 1.027001
Cr7   Cr    Cr6+3 0.887410 0.489850 0.750850 1.071517
Cr8   Cr    Cr6+3 0.112590 0.489850 0.249150 1.029142
Cr9   Cr    Cr6+3 0.385800 0.677120 0.749340 1.023672
Cr10  Cr    Cr6+3 0.614200 0.677120 0.250660 1.038411
Cr11  Cr    Cr6+3 0.885800 0.177120 0.749340 1.026739
Cr12  Cr    Cr6+3 0.114200 0.177120 0.250660 1.037435
H1    H     H_    0.378945 0.774348 0.972013 0.137990
H2    H     H_    0.625877 0.885988 0.027001 0.123861
H3    H     H_    0.879278 0.272733 0.971963 0.138750
H4    H     H_    0.125681 0.387621 0.027028 0.124392
H5    H     H_    0.136807 0.599354 0.575178 0.154580
H6    H     H_    0.828175 0.751031 0.450813 0.153887
H7    H     H_    0.637028 0.112152 0.573378 0.150533
H8    H     H_    0.366905 0.136388 0.425224 0.145132
H9    H     H_    0.125151 0.582061 0.448560 0.151239
H10   H     H_    0.829798 0.731135 0.576813 0.141364
H11   H     H_    0.626968 0.100092 0.447053 0.146073
H12   H     H_    0.382276 0.092185 0.549065 0.135216
H13   H     H_    0.364621 0.560865 0.559216 0.147513
H14   H     H_    0.653561 0.494330 0.433462 0.130224
H15   H     H_    0.863137 0.048829 0.560948 0.146484
H16   H     H_    0.155743 0.981965 0.427797 0.130641
H17   H     H_    0.582724 0.684279 0.941157 0.131895
H18   H     H_    0.478192 0.622817 0.044164 0.129544
H19   H     H_    0.083489 0.185592 0.941001 0.132977
H20   H     H_    0.979243 0.122368 0.043951 0.129791
H21   H     H_    0.349486 0.497837 0.936387 0.129499
H22   H     H_    0.660855 0.477730 0.066607 0.121340
H23   H     H_    0.849195 0.997164 0.936298 0.128779
H24   H     H_    0.161280 0.976962 0.066766 0.121349
H25   H     H_    0.341490 0.472186 0.065804 0.119173
H26   H     H_    0.670285 0.443931 0.938296 0.127294
H27   H     H_    0.841277 0.971540 0.065722 0.119330
H28   H     H_    0.170711 0.943092 0.938466 0.127478
H29   H     H_    0.155593 0.703118 0.066044 0.127640
H30   H     H_    0.826728 0.733252 0.926411 0.136939
H31   H     H_    0.656117 0.204158 0.066282 0.127569
H32   H     H_    0.326371 0.233633 0.926334 0.137766
H33   H     H_    0.161271 0.723397 0.940437 0.153267
H34   H     H_    0.818618 0.764087 0.052674 0.122288
H35   H     H_    0.661789 0.224651 0.940654 0.152807
H36   H     H_    0.318231 0.264596 0.052607 0.122756
H37   H     H_    0.524155 0.637421 0.572208 0.151692
H38   H     H_    0.539417 0.634274 0.446602 0.159705
H39   H     H_    0.040952 0.150835 0.576160 0.148122
H40   H     H_    0.057945 0.144911 0.449847 0.151192
H41   H     H_    0.504893 0.024782 0.436624 0.120211
H42   H     H_    0.493505 0.028227 0.566588 0.124161
H43   H     H_    0.981394 0.515996 0.430353 0.129942
H44   H     H_    0.962259 0.520955 0.558814 0.145819
O1    O     O_R   0.214270 0.709000 0.827470 -0.504800
O2    O     O_R   0.785730 0.709000 0.172530 -0.511524
O3    O     O_R   0.714270 0.209000 0.827470 -0.505266
O4    O     O_R   0.285730 0.209000 0.172530 -0.513589
O5    O     O_R   0.445950 0.919440 0.676520 -0.519441
O6    O     O_R   0.554050 0.919440 0.323480 -0.506410
O7    O     O_R   0.945950 0.419440 0.676520 -0.501030
O8    O     O_R   0.054050 0.419440 0.323480 -0.506145
O9    O     O_R   0.456730 0.717630 0.669840 -0.522478
O10   O     O_R   0.543270 0.717630 0.330160 -0.505272
O11   O     O_R   0.956730 0.217630 0.669840 -0.519918
O12   O     O_R   0.043270 0.217630 0.330160 -0.503232
O13   O     O_R   0.320620 0.625640 0.672920 -0.510939
O14   O     O_R   0.679380 0.625640 0.327080 -0.507948
O15   O     O_R   0.820620 0.125640 0.672920 -0.511459
O16   O     O_R   0.179380 0.125640 0.327080 -0.510285
O17   O     O_3   0.334280 0.834290 0.749180 -0.289156
O18   O     O_3   0.665720 0.834290 0.250820 -0.271466
O19   O     O_3   0.834280 0.334290 0.749180 -0.266319
O20   O     O_3   0.165720 0.334290 0.250820 -0.269938
O21   O     O_R   0.236160 0.958490 0.823130 -0.507497
O22   O     O_R   0.763840 0.958490 0.176870 -0.511189
O23   O     O_R   0.736160 0.458490 0.823130 -0.513500
O24   O     O_R   0.263840 0.458490 0.176870 -0.511514
O25   O     O_R   0.332080 0.075470 0.831280 -0.502232
O26   O     O_R   0.667920 0.075470 0.168720 -0.526348
O27   O     O_R   0.832080 0.575470 0.831280 -0.507924
O28   O     O_R   0.167920 0.575470 0.168720 -0.526699
O29   O     O_R   0.446300 0.918110 0.826620 -0.450834
O30   O     O_R   0.553700 0.918110 0.173380 -0.501427
O31   O     O_R   0.946300 0.418110 0.826620 -0.451083
O32   O     O_R   0.053700 0.418110 0.173380 -0.502112
O33   O     O_R   0.457110 0.716200 0.831760 -0.528024
O34   O     O_R   0.542890 0.716200 0.168240 -0.518853
O35   O     O_R   0.957110 0.216200 0.831760 -0.529387
O36   O     O_R   0.042890 0.216200 0.168240 -0.518799
O37   O     O_R   0.320980 0.624310 0.823030 -0.507865
O38   O     O_R   0.679020 0.624310 0.176970 -0.511466
O39   O     O_R   0.820980 0.124310 0.823030 -0.512089
O40   O     O_R   0.179020 0.124310 0.176970 -0.513553
O41   O     O_R   0.213890 0.710430 0.665540 -0.503296
O42   O     O_R   0.786110 0.710430 0.334460 -0.516308
O43   O     O_R   0.713890 0.210430 0.665540 -0.495669
O44   O     O_R   0.286110 0.210430 0.334460 -0.513029
O45   O     O_R   0.235810 0.959820 0.673020 -0.488553
O46   O     O_R   0.764190 0.959820 0.326980 -0.491022
O47   O     O_R   0.735810 0.459820 0.673020 -0.488431
O48   O     O_R   0.264190 0.459820 0.326980 -0.484911
O49   O     O_R   0.331700 0.076900 0.669350 -0.514147
O50   O     O_R   0.668300 0.076900 0.330650 -0.527730
O51   O     O_R   0.831700 0.576900 0.669350 -0.527366
O52   O     O_R   0.168300 0.576900 0.330650 -0.527036
C101  C     C_1   0.370221 0.537883 0.420640 0.210219
N1    N     N_1   0.420966 0.523896 0.387617 -0.297887
C102  C     C_1   0.638667 0.455595 0.569453 0.211790
N2    N     N_1   0.595243 0.394055 0.593877 -0.303126
C103  C     C_1   0.870598 0.030745 0.422416 0.203506
N3    N     N_1   0.921945 0.015091 0.390571 -0.292006
C104  C     C_1   0.155855 0.913597 0.559690 0.226618
N4    N     N_1   0.107888 0.866873 0.586449 -0.296482
C105  C     C_2   0.411406 0.993612 0.068805 0.230454
H45   H     H_    0.417079 0.091409 0.061862 0.092776
O53   O     O_2   0.367623 0.953270 0.109946 -0.500899
C106  C     C_2   0.531112 0.069487 0.951089 0.211475
H46   H     H_    0.540145 0.140480 0.990486 0.072791
O54   O     O_2   0.534319 0.094371 0.887996 -0.486464
C107  C     C_2   0.910679 0.491989 0.068992 0.231140
H47   H     H_    0.916547 0.589944 0.063009 0.092988
O55   O     O_2   0.866443 0.450677 0.109327 -0.500007
C108  C     C_2   0.030104 0.570044 0.951363 0.211602
H48   H     H_    0.038905 0.640949 0.990862 0.072454
O56   O     O_2   0.033163 0.595265 0.888308 -0.486415

loop_
_geom_bond_atom_site_label_1
_geom_bond_atom_site_label_2
_ccdc_geom_bond_type
C58   C62   A    
C63   C103  S    
C74   O38   A    
Cr11  O35   S    
C88   O16   A    
C73   O37   A    
C81   O9    A    
C34   C37   A    
C41   C42   A    
C14   C18   A    
C64   C104  S    
Cr1   O17   S    
C35   C36   A    
C40   C83   S    
C87   O43   A    
C6    H18   S    
Cr3   O3    S    
Cr2   O2    S    
C106  O54   D    
C5    C94   S    
C34   H38   S    
C7    C8    S    
C35   H39   S    
Cr4   O24   S    
C103  N3    T    
C56   H12   S    
C15   C19   A    
C7    C96   S    
Cr8   O8    S    
C10   H22   S    
C50   C54   A    
C7    C99   S    
Cr11  O19   S    
C107  O55   D    
C64   C68   A    
C42   H42   S    
C89   C105  S    
Cr4   O4    S    
C39   C84   S    
C48   O32   A    
C11   H23   S    
Cr2   O42   S    
C82   O10   A    
C5    C6    S    
C30   C74   S    
Cr9   O17   S    
Cr3   O23   S    
C29   C73   S    
C94   C98   S    
C95   C99   S    
Cr12  O12   S    
C73   O1    A    
C92   C96   S    
C47   C99   S    
C46   O34   A    
C3    C18   S    
C86   O14   A    
C2    O26   A    
Cr1   O41   S    
Cr5   O29   S    
C26   H34   S    
C9    C13   A    
Cr6   O26   S    
C3    O23   A    
C76   O40   A    
C11   C15   A    
Cr12  O40   S    
C14   H26   S    
Cr9   O33   S    
Cr10  O38   S    
C51   H7    S    
C62   C102  S    
Cr9   O37   S    
C23   C27   A    
C91   C100  S    
Cr3   O47   S    
C68   H16   S    
C90   C97   S    
Cr7   O51   S    
C84   O8    A    
C9    C29   A    
C53   H9    S    
C5    H17   S    
C46   C98   S    
C11   C31   A    
C49   C69   A    
C12   C32   A    
C89   C93   S    
Cr4   O44   S    
C57   C80   S    
C23   H31   S    
Cr6   O50   S    
C16   H28   S    
C8    C95   S    
C1    O21   A    
C4    O24   A    
C41   H41   S    
C43   H43   S    
C59   C78   S    
C106  H46   S    
C72   C88   S    
Cr9   O13   S    
C90   C94   S    
C15   H27   S    
Cr10  O18   S    
C25   C29   A    
C48   C100  S    
C55   H11   S    
C60   C77   S    
C28   H36   S    
Cr8   O28   S    
C27   C31   A    
C94   H2    S    
C12   C16   A    
C28   C32   A    
C62   C66   A    
Cr6   O30   S    
C107  H47   S    
Cr4   O20   S    
C10   C14   A    
C95   H3    S    
C91   C92   S    
Cr1   O45   S    
C74   O2    A    
C36   H40   S    
C39   C43   A    
C82   O6    A    
C51   C55   A    
C78   O46   A    
C105  H45   S    
C83   O11   A    
C1    O25   A    
Cr10  O34   S    
C17   C21   A    
C66   H14   S    
Cr7   O27   S    
C68   C72   A    
C65   H13   S    
C61   C101  S    
C19   C23   A    
C43   C44   A    
C78   O50   A    
C63   C67   A    
C8    H20   S    
C52   C72   A    
C77   O49   A    
Cr12  O36   S    
C10   C30   A    
C44   H44   S    
C31   C75   S    
C102  N2    T    
C45   C97   S    
C16   C20   A    
C6    C93   S    
C87   O15   A    
C22   H30   S    
Cr3   O19   S    
C101  N1    T    
Cr6   O18   S    
C75   O39   A    
Cr3   O43   S    
C4    O28   A    
C57   C61   A    
Cr12  O16   S    
Cr9   O9    S    
C58   C79   S    
C86   O42   A    
C71   C87   S    
C4    C17   S    
C52   H8    S    
Cr4   O48   S    
C45   O33   A    
C80   O52   A    
C5    C97   S    
C3    O27   A    
C26   C30   A    
C83   O7    A    
C108  O56   D    
C92   C108  S    
C38   C81   S    
C12   H24   S    
C67   H15   S    
Cr2   O22   S    
Cr5   O5    S    
C37   C82   S    
Cr2   O18   S    
C91   C107  S    
C90   C106  S    
C70   C86   S    
C6    C98   S    
C69   C85   S    
C55   C59   A    
C54   C58   A    
C75   O3    A    
Cr8   O52   S    
C21   C25   A    
C76   O4    A    
C1    C20   S    
C53   C57   A    
Cr12  O20   S    
C2    C19   S    
C50   H6    S    
C7    H19   S    
Cr8   O32   S    
C36   C39   A    
Cr8   O20   S    
C24   C28   A    
Cr7   O7    S    
C77   O45   A    
C32   C76   S    
C25   H33   S    
C51   C71   A    
C47   O35   A    
Cr5   O49   S    
Cr6   O6    S    
C105  O53   D    
C54   H10   S    
C59   C63   A    
C33   C38   A    
C13   C17   A    
C89   C98   S    
C60   C64   A    
C79   O47   A    
C88   O44   A    
C18   C22   A    
C35   C40   A    
C8    C100  S    
C21   H29   S    
C33   H37   S    
C81   O5    A    
Cr10  O10   S    
C45   O29   A    
C66   C70   A    
Cr7   O19   S    
C24   H32   S    
C65   C69   A    
C96   C100  S    
C46   O30   A    
C93   C97   S    
C33   C34   A    
C93   H1    S    
C67   C71   A    
C79   O51   A    
C104  N4    T    
C37   C41   A    
C85   O13   A    
C50   C70   A    
C48   O36   A    
C49   C53   A    
Cr1   O21   S    
Cr11  O11   S    
Cr1   O1    S    
C38   C42   A    
C61   C65   A    
C40   C44   A    
C56   C60   A    
C84   O12   A    
Cr10  O14   S    
Cr2   O46   S    
C27   H35   S    
C108  H48   S    
C22   C26   A    
C49   H5    S    
Cr11  O39   S    
C91   C95   S    
C85   O41   A    
C96   H4    S    
Cr7   O31   S    
Cr5   O17   S    
C2    O22   A    
Cr5   O25   S    
C89   C90   S    
C80   O48   A    
C47   O31   A    
C20   C24   A    
C52   C56   A    
C92   C99   S    
C13   H25   S    
Cr11  O15   S    
C9    H21   S    
