data_mof_unit_51274.cif
_audit_creation_date              2012-12-10T18:10:51-0500
_audit_creation_method            fapswitch 2.2
_symmetry_space_group_name_H-M    P1
_symmetry_Int_Tables_number       1
_space_group_crystal_system       triclinic
_cell_length_a                    12.605261
_cell_length_b                    13.252057
_cell_length_c                    15.753737
_cell_angle_alpha                 91.360954
_cell_angle_beta                  102.98278
_cell_angle_gamma                 83.048088
_cell_volume                      2545.45448924

loop_
_atom_site_label
_atom_site_type_symbol
_atom_type_description
_atom_site_fract_x
_atom_site_fract_y
_atom_site_fract_z
_atom_type_partial_charge
C1    C     C_R   0.439302 0.691939 0.493844 0.878317
C2    C     C_3   0.379078 0.562820 0.027722 0.221561
C3    C     C_3   0.491950 0.511737 0.081934 -0.002925
C4    C     C_3   0.516634 0.401965 0.049685 -0.331794
C5    C     C_3   0.509067 0.402831 0.950262 -0.292644
C6    C     C_1   0.491243 0.508714 0.173430 0.045286
C7    C     C_1   0.500392 0.511735 0.825394 0.049407
C8    C     C_1   0.501815 0.506600 0.750409 -0.084286
C9    C     C_R   0.689634 0.085722 0.649938 0.466227
C10   C     C_R   0.594301 0.205405 0.537303 -0.084408
C11   C     C_R   0.295583 0.841402 0.442582 -0.174658
C12   C     C_R   0.501028 0.501014 0.661523 0.881730
C13   C     C_R   0.266435 0.947156 0.433157 0.482234
C14   C     C_R   0.344488 0.012250 0.465309 -0.262248
C15   C     C_R   0.450318 0.975584 0.512398 0.050064
C16   C     C_R   0.474552 0.871983 0.535245 0.060850
C17   C     C_R   0.531170 0.041481 0.540827 0.012136
C18   C     C_R   0.625075 0.011126 0.606895 -0.084194
C19   C     C_R   0.653521 0.907426 0.623463 0.390163
C20   C     C_R   0.574777 0.840908 0.595384 -0.214398
C21   C     C_R   0.523528 0.135613 0.501617 -0.204479
C22   C     C_R   0.675724 0.181851 0.612437 -0.219509
C23   C     C_R   0.560180 0.309784 0.511821 0.949952
C24   C     C_R   0.401163 0.802591 0.493134 -0.196164
C25   C     C_R   0.071417 0.440907 0.334188 -0.147796
C26   C     C_R   0.811092 0.582833 0.628246 0.117439
C27   C     C_R   0.919550 0.598043 0.662331 -0.196400
C28   C     C_R   0.994541 0.588187 0.609033 -0.005015
C29   C     C_R   0.965106 0.541632 0.526145 -0.013263
C30   C     C_R   0.853045 0.524243 0.494882 0.109076
C31   C     C_R   0.041435 0.504093 0.474885 -0.002224
C32   C     C_R   0.000110 0.479899 0.386356 0.101874
C33   C     C_R   0.887393 0.481198 0.354686 -0.185330
C34   C     C_R   0.498213 0.500937 0.338381 0.940749
C35   C     C_R   0.825570 0.470119 0.415815 0.396300
C36   C     C_R   0.155409 0.482033 0.508525 0.034501
C37   C     C_R   0.182783 0.423306 0.370587 0.059307
C38   C     C_3   0.384060 0.568202 0.929708 0.162250
C39   C     C_3   0.595932 0.567873 0.972340 -0.242455
C40   C     C_3   0.582830 0.577157 0.068412 -0.317829
C41   C     C_1   0.493665 0.504893 0.248969 -0.067630
C42   C     C_3   0.498197 0.515387 0.916865 0.017399
H1    H     H_    0.365719 0.640918 0.053732 0.165182
H2    H     H_    0.320737 0.524008 0.890311 0.159539
H3    H     H_    0.598814 0.368295 0.086128 0.206093
H4    H     H_    0.721494 0.240814 0.645991 0.203854
H5    H     H_    0.461352 0.157053 0.443424 0.169847
H6    H     H_    0.319488 0.092848 0.456422 0.188017
H7    H     H_    0.596312 0.764388 0.620270 0.176812
H8    H     H_    0.238648 0.397260 0.329585 0.168653
H9    H     H_    0.858343 0.453377 0.289283 0.184798
H10   H     H_    0.041119 0.421930 0.266463 0.177791
H11   H     H_    0.192807 0.493917 0.575855 0.139971
H12   H     H_    0.753159 0.597797 0.669260 0.144390
H13   H     H_    0.942576 0.625745 0.728342 0.195880
H14   H     H_    0.672675 0.517609 0.970599 0.208047
H15   H     H_    0.554356 0.657591 0.082125 0.192358
H16   H     H_    0.432684 0.370038 0.918538 0.170785
H17   H     H_    0.458280 0.352287 0.064787 0.239478
N1    N     N_R   0.222200 0.444690 0.455710 -0.131819
N2    N     N_R   0.776960 0.554780 0.543830 -0.121813
O1    O     O_R   0.366740 0.627160 0.478850 -0.624868
O2    O     O_R   0.544830 0.662520 0.507140 -0.607496
O3    O     O_R   0.410920 0.482310 0.608710 -0.619150
O4    O     O_R   0.589010 0.517670 0.637000 -0.642243
O5    O     O_R   0.455170 0.337480 0.492860 -0.636230
O6    O     O_R   0.633260 0.372840 0.521150 -0.539986
O7    O     O_R   0.410990 0.482330 0.363000 -0.618036
O8    O     O_R   0.589080 0.517690 0.391290 -0.597695
Zn1   Zn    Zn3+2 0.381090 0.476390 0.481110 0.985937
Zn2   Zn    Zn3+2 0.618910 0.523610 0.518890 1.031387
S1    S     S_3+6 0.260581 0.503731 0.039250 0.034511
O9    O     O_2   0.259906 0.491308 0.133690 -0.288422
O10   O     O_2   0.158937 0.571182 0.996440 -0.204963
O11   O     O_3   0.258940 0.389481 0.990503 -0.590609
H18   H     H_    0.189497 0.365638 0.996603 0.407128
S2    S     S_3+6 0.792464 0.855247 0.638605 0.082189
O12   O     O_2   0.800266 0.779129 0.567671 -0.305555
O13   O     O_2   0.865283 0.934340 0.630100 -0.177349
O14   O     O_3   0.835824 0.799408 0.736996 -0.494563
H19   H     H_    0.772469 0.767634 0.746955 0.354131
S3    S     S_3+6 0.762636 0.072906 0.760332 0.089372
O15   O     O_2   0.884031 0.060018 0.765641 -0.180189
O16   O     O_2   0.734396 0.168001 0.808441 -0.311027
O17   O     O_3   0.727967 0.973517 0.808145 -0.524079
H20   H     H_    0.775284 0.970223 0.867651 0.410571
C43   C     C_2   0.216135 0.773156 0.397216 0.598117
H21   H     H_    0.184293 0.720580 0.434070 0.128794
O18   O     O_2   0.185951 0.775258 0.317967 -0.487121
S4    S     S_3+6 0.132564 0.001308 0.380635 0.077919
O19   O     O_2   0.114018 0.111532 0.404558 -0.282188
O20   O     O_2   0.120306 0.992862 0.283697 -0.216684
O21   O     O_3   0.038513 0.938651 0.410756 -0.504420
H22   H     H_    0.966920 0.970999 0.377061 0.398240
S5    S     S_3+6 0.343201 0.696539 0.887536 0.024652
O22   O     O_2   0.395385 0.772720 0.950590 -0.311694
O23   O     O_2   0.372898 0.707741 0.801315 -0.283151
O24   O     O_3   0.206325 0.720875 0.873365 -0.495763
H23   H     H_    0.187315 0.789177 0.846077 0.411196
C44   C     C_2   0.094309 0.639536 0.639284 0.462022
H24   H     H_    0.129772 0.644705 0.708469 0.123147
O25   O     O_2   0.133761 0.681970 0.587848 -0.547213
S6    S     S_3+6 0.806489 0.339925 0.420656 0.040236
O26   O     O_2   0.829847 0.304987 0.513807 -0.281720
O27   O     O_2   0.692456 0.323119 0.373686 -0.332523
O28   O     O_3   0.894607 0.268601 0.371099 -0.514865
H25   H     H_    0.879458 0.197702 0.376624 0.411374
C45   C     C_2   0.613055 0.668610 0.936931 0.579663
H26   H     H_    0.603199 0.738466 0.973098 0.124631
O29   O     O_2   0.641442 0.672368 0.868006 -0.556912
C46   C     C_2   0.692660 0.549701 0.130672 0.432827
H27   H     H_    0.737377 0.474653 0.129162 0.105815
O30   O     O_2   0.732264 0.612122 0.182755 -0.541554
C47   C     C_2   0.600885 0.332255 0.924875 0.479663
H28   H     H_    0.582004 0.285454 0.867297 0.112032
O31   O     O_2   0.695734 0.328925 0.965990 -0.522318

loop_
_geom_bond_atom_site_label_1
_geom_bond_atom_site_label_2
_ccdc_geom_bond_type
C5    C42   S    
O21   H22   S    
C13   S4    S    
C19   C20   A    
C43   H21   S    
C3    C6    S    
C1    O1    A    
C47   H28   S    
S5    O24   S    
C7    C8    T    
S2    O12   D    
C10   C22   A    
C26   C27   A    
C29   C30   A    
C30   C35   A    
C23   O5    A    
C28   C29   A    
C26   N2    A    
C38   C42   S    
C35   S6    S    
C5    C47   S    
C27   H13   S    
C9    C22   A    
O28   H25   S    
C15   C16   A    
C1    O2    A    
C11   C24   A    
C45   H26   S    
O1    Zn1   S    
O8    Zn2   S    
C18   C19   A    
C7    C42   S    
C23   O6    A    
C19   S2    S    
C36   H11   S    
C25   C37   A    
S6    O27   D    
S5    O22   D    
C11   C43   S    
C6    C41   T    
C38   S5    S    
O3    Zn1   S    
C39   C42   S    
C8    C12   S    
C9    S3    S    
N2    Zn2   S    
C25   C32   A    
C16   C24   A    
C13   C14   A    
C34   C41   S    
S1    O11   S    
C2    S1    S    
C26   H12   S    
C40   C46   S    
C4    H3    S    
S2    O13   D    
C10   C21   A    
C39   C45   S    
S1    O10   D    
C34   O7    A    
C39   C40   S    
O14   H19   S    
C14   H6    S    
O17   H20   S    
C17   C21   A    
O11   H18   S    
C38   H2    S    
C20   H7    S    
C2    C38   S    
S4    O20   D    
C39   H14   S    
N1    Zn1   S    
C2    H1    S    
C16   C20   A    
C44   O25   D    
C17   C18   A    
C46   O30   D    
C34   O8    A    
C5    H16   S    
C22   H4    S    
O2    Zn2   S    
C3    C40   S    
O24   H23   S    
S3    O16   D    
C43   O18   D    
C3    C4    S    
S6    O26   D    
S4    O21   S    
S2    O14   S    
C15   C17   A    
C40   H15   S    
C46   H27   S    
C14   C15   A    
C31   C32   A    
S1    O9    D    
C36   N1    A    
C47   O31   D    
S5    O23   D    
C10   C23   S    
C33   H9    S    
S3    O17   S    
C12   O4    A    
C32   C33   A    
C2    C3    S    
C25   H10   S    
C29   C31   A    
O4    Zn2   S    
C37   H8    S    
C11   C13   A    
C28   C44   S    
S4    O19   D    
O5    Zn1   S    
C12   O3    A    
C4    H17   S    
C44   H24   S    
C33   C35   A    
C45   O29   D    
S6    O28   S    
O6    Zn2   S    
C37   N1    A    
C9    C18   A    
C4    C5    S    
C1    C24   S    
O7    Zn1   S    
S3    O15   D    
C30   N2    A    
C27   C28   A    
C31   C36   A    
C21   H5    S    
