data_mof_unit_40640.cif
_audit_creation_date              2012-12-11T14:30:59-0500
_audit_creation_method            fapswitch 2.2
_symmetry_space_group_name_H-M    P1
_symmetry_Int_Tables_number       1
_space_group_crystal_system       triclinic
_cell_length_a                    8.159373
_cell_length_b                    14.932148
_cell_length_c                    15.197346
_cell_angle_alpha                 97.178283
_cell_angle_beta                  100.18664
_cell_angle_gamma                 97.790999
_cell_volume                      1784.40679158

loop_
_atom_site_label
_atom_site_type_symbol
_atom_type_description
_atom_site_fract_x
_atom_site_fract_y
_atom_site_fract_z
_atom_type_partial_charge
Ba1   Ba    Ba6+2 0.154730 0.543770 0.458180 1.658385
Ba2   Ba    Ba6+2 0.655430 0.456220 0.541750 1.656192
C1    C     C_3   0.340688 0.759641 0.127461 -0.317161
C2    C     C_R   0.107691 0.078190 0.553081 -0.040255
C3    C     C_R   0.963583 0.890780 0.538074 -0.035379
C4    C     C_3   0.910057 0.788599 0.275229 0.392165
C5    C     C_R   0.127501 0.924538 0.587491 -0.029428
C6    C     C_R   0.199760 0.015397 0.592383 -0.100922
C7    C     C_R   0.892393 0.796648 0.527606 0.033035
C8    C     C_R   0.727468 0.767978 0.479585 -0.289898
C9    C     C_R   0.915400 0.204051 0.475492 0.042179
C10   C     C_R   0.844983 0.109595 0.463904 -0.034003
C11   C     C_R   0.939915 0.047229 0.505243 0.009333
C12   C     C_3   0.434471 0.773369 0.225191 0.307300
C13   C     C_R   0.682702 0.075269 0.412464 -0.036821
C14   C     C_R   0.610717 0.984154 0.406900 -0.110067
C15   C     C_R   0.700772 0.922096 0.448868 -0.037690
C16   C     C_3   0.927241 0.885144 0.251873 -0.365882
C17   C     C_R   0.868229 0.953215 0.497153 0.011379
C18   C     C_R   0.629578 0.829326 0.442613 -0.016975
C19   C     C_R   0.078339 0.233173 0.526233 -0.294660
C20   C     C_R   0.238801 0.462319 0.760730 -0.258305
C21   C     C_R   0.149361 0.416791 0.815794 -0.021446
C22   C     C_R   0.227608 0.413478 0.904317 -0.075312
C23   C     C_3   0.592670 0.737296 0.679318 0.312256
C24   C     C_R   0.375279 0.476310 0.947442 0.039774
C25   C     C_R   0.457223 0.528115 0.890832 -0.112711
C26   C     C_R   0.393690 0.516781 0.797636 0.045965
C27   C     C_R   0.609975 0.533603 0.084923 -0.137657
C28   C     C_3   0.712836 0.335954 0.261794 0.290368
C29   C     C_R   0.673356 0.553697 0.177969 0.000996
C30   C     C_R   0.410043 0.479938 0.207385 0.019803
C31   C     C_R   0.337237 0.467138 0.113449 -0.071711
C32   C     C_R   0.439911 0.491876 0.049586 -0.020934
C33   C     C_R   0.573169 0.527385 0.238253 -0.293415
C34   C     C_3   0.629895 0.840945 0.704209 -0.387752
C35   C     C_3   0.635221 0.300848 0.162968 -0.363358
C36   C     C_3   0.082293 0.654016 0.734562 0.306387
C37   C     C_3   0.128840 0.676909 0.837213 -0.386386
C38   C     C_3   0.220158 0.267953 0.339218 0.325554
C39   C     C_3   0.182401 0.164354 0.313291 -0.385452
C40   C     C_2   0.329815 0.171277 0.925114 0.790960
C41   C     C_2   0.153324 0.434611 0.084669 0.892190
C42   C     C_3   0.892961 0.202121 0.724049 0.414398
C43   C     C_3   0.856531 0.105298 0.745234 -0.345239
C44   C     C_3   0.373718 0.201746 0.772140 0.262540
C45   C     C_3   0.458146 0.192421 0.867989 -0.164791
C46   C     C_R   0.177600 0.171415 0.561264 -0.028203
H1    H     H_    0.473725 0.707024 0.238685 -0.003932
H2    H     H_    0.107398 0.292831 0.357369 0.003713
H3    H     H_    0.326525 0.285347 0.398201 0.062477
H4    H     H_    0.227378 0.706224 0.117227 0.166940
H5    H     H_    0.070523 0.144717 0.257301 0.133698
H6    H     H_    0.156382 0.131371 0.371786 0.056959
H7    H     H_    0.292584 0.138936 0.291083 0.119160
H8    H     H_    0.547337 0.826537 0.233340 -0.005478
H9    H     H_    0.424350 0.737353 0.081615 0.059965
H10   H     H_    0.708246 0.712832 0.663779 0.010139
H11   H     H_    0.490076 0.719855 0.618343 0.061177
H12   H     H_    0.512216 0.256672 0.158320 0.165865
H13   H     H_    0.735672 0.861016 0.763478 0.135987
H14   H     H_    0.665535 0.872507 0.646544 0.055689
H15   H     H_    0.516236 0.867090 0.720947 0.124082
H16   H     H_    0.300907 0.824632 0.110336 0.122444
H17   H     H_    0.918386 0.934538 0.311081 0.069478
H18   H     H_    0.815839 0.205130 0.656841 0.079986
H19   H     H_    0.028555 0.217543 0.721274 -0.139857
H20   H     H_    0.719450 0.085142 0.742297 0.133516
H21   H     H_    0.896928 0.056611 0.695194 0.067369
H22   H     H_    0.926191 0.101179 0.813866 0.160058
H23   H     H_    0.615670 0.358242 0.125087 0.086336
H24   H     H_    0.265170 0.145441 0.747710 0.008456
H25   H     H_    0.329193 0.269015 0.773979 -0.020625
H26   H     H_    0.544067 0.257203 0.899281 0.094790
H27   H     H_    0.012751 0.787024 0.333211 0.106082
H28   H     H_    0.535132 0.136482 0.865659 0.080916
H29   H     H_    0.203656 0.881479 0.622723 0.105232
H30   H     H_    0.328193 0.035867 0.629103 0.087333
H31   H     H_    0.483930 0.962985 0.368104 0.095220
H32   H     H_    0.607534 0.118125 0.376287 0.105811
H33   H     H_    0.672346 0.696897 0.473760 0.073933
H34   H     H_    0.719508 0.259969 0.131452 0.128950
H35   H     H_    0.132514 0.304580 0.533639 0.070790
H36   H     H_    0.696970 0.550255 0.041378 0.108100
H37   H     H_    0.166644 0.363251 0.937715 0.111527
H38   H     H_    0.786677 0.771595 0.295297 -0.110679
H39   H     H_    0.567704 0.579077 0.917347 0.065045
H40   H     H_    0.625469 0.540285 0.310084 0.069019
H41   H     H_    0.183207 0.460060 0.690189 0.061520
H42   H     H_    0.051447 0.903830 0.232976 0.145665
H43   H     H_    0.825320 0.889571 0.194332 0.112620
H44   H     H_    0.619155 0.366984 0.294575 0.005329
H45   H     H_    0.185336 0.625935 0.708515 -0.004613
H46   H     H_    0.826343 0.387651 0.266236 0.063805
H47   H     H_    0.229747 0.212659 0.032194 0.339484
H48   H     H_    0.956151 0.335182 0.077386 0.295032
H49   H     H_    0.966751 0.602079 0.716390 0.079893
H50   H     H_    0.252078 0.723229 0.857855 0.129034
H51   H     H_    0.137959 0.613568 0.867604 0.080225
H52   H     H_    0.030325 0.710916 0.863274 0.136877
O1    O     O_2   0.174080 0.723060 0.553930 -0.466042
O2    O     O_2   0.814992 0.436227 0.821042 -0.445837
O3    O     O_3   0.851522 0.263802 0.791177 -0.573730
O4    O     O_3   0.901570 0.609580 0.550840 -0.499897
O5    O     O_3   0.408220 0.452130 0.390170 -0.500131
O6    O     O_2   0.675490 0.547140 0.721820 -0.463338
O7    O     O_3   0.544248 0.698996 0.752446 -0.639727
O8    O     O_2   0.513501 0.176820 0.546192 -0.490287
O9    O     O_3   0.491509 0.195371 0.715653 -0.578910
O10   O     O_3   0.370350 0.665080 0.388270 -0.469018
O11   O     O_2   0.288257 0.822891 0.449843 -0.493750
O12   O     O_3   0.260979 0.306012 0.264809 -0.595731
O13   O     O_3   0.056632 0.733854 0.698663 -0.634768
O14   O     O_3   0.328873 0.803479 0.282457 -0.589156
O15   O     O_2   0.134790 0.452800 0.278150 -0.456739
O16   O     O_3   0.937650 0.618620 0.340860 -0.494381
O17   O     O_2   0.024962 0.570271 0.187124 -0.441792
O18   O     O_2   0.236418 0.097423 0.908265 -0.616116
O19   O     O_R   0.319707 0.235279 0.998336 -0.779307
O20   O     O_2   0.065268 0.479551 0.040054 -0.613538
O21   O     O_R   0.081461 0.350595 0.103607 -0.742361
O22   O     O_3   0.922758 0.727199 0.199763 -0.592046
O23   O     O_2   0.636200 0.276890 0.446040 -0.469550
O24   O     O_3   0.908720 0.390410 0.449080 -0.498827
O25   O     O_3   0.439930 0.334910 0.611650 -0.456453
O26   O     O_3   0.757019 0.261490 0.301970 -0.638919
O27   O     O_3   0.402060 0.547860 0.609750 -0.482320
O28   O     O_3   0.872630 0.381370 0.659060 -0.488744
P1    P     P_3+3 0.004200 0.709230 0.580350 0.968817
P2    P     P_3+3 0.305000 0.425570 0.290900 1.024435
P3    P     P_3+3 0.888219 0.615550 0.224576 0.985592
P4    P     P_3+3 0.806080 0.290760 0.419570 0.970020
P5    P     P_3+3 0.922753 0.374949 0.773958 1.002915
P6    P     P_3+3 0.406262 0.783020 0.391810 0.949377
P7    P     P_3+3 0.501654 0.579789 0.723200 0.950575
P8    P     P_3+3 0.402786 0.217036 0.608544 0.959793

loop_
_geom_bond_atom_site_label_1
_geom_bond_atom_site_label_2
_ccdc_geom_bond_type
C12   H8    S    
C28   O26   S    
O23   P4    D    
C26   P7    S    
C42   H18   S    
C2    C6    A    
C9    P4    S    
C30   P2    S    
C4    H27   S    
C38   O12   S    
C1    H16   S    
C16   H17   S    
C24   C25   A    
O13   P1    S    
H48   O21   S    
C16   H43   S    
O27   P7    S    
C45   H28   S    
O8    P8    D    
Ba1   P1    S    
C36   C37   S    
C40   O19   S    
C12   H1    S    
C13   C14   A    
C15   C18   A    
O24   P4    S    
Ba1   Ba2   S    
C2    C11   A    
C39   H7    S    
O7    P7    S    
C24   C32   S    
C19   H35   S    
C8    C18   A    
C14   C15   A    
Ba2   P4    S    
C21   C22   A    
Ba1   O16   S    
O26   P4    S    
C34   H15   S    
C7    C8    A    
C41   O21   S    
C44   H24   S    
C41   O20   D    
C5    H29   S    
C19   C46   A    
Ba2   O27   S    
C20   C26   A    
O9    P8    S    
C6    H30   S    
C36   H49   S    
C34   H14   S    
C42   O3    S    
C4    C16   S    
C21   P5    S    
C43   H21   S    
C31   C41   S    
C30   C33   A    
C5    C6    A    
C27   H36   S    
C28   H44   S    
Ba1   P2    S    
C3    C5    A    
C36   O13   S    
C11   C17   A    
C40   O18   D    
C37   H50   S    
H47   O19   S    
Ba2   O23   S    
C27   C32   A    
Ba2   O6    S    
C28   C35   S    
C16   H42   S    
C3    C7    A    
Ba1   O10   S    
C33   H40   S    
C37   H51   S    
C13   H32   S    
C10   C13   A    
Ba2   O4    S    
C9    C10   A    
C43   H20   S    
C31   C32   A    
O14   P6    S    
C25   H39   S    
Ba1   O4    S    
C39   H5    S    
C1    C12   S    
C1    H9    S    
O25   P8    S    
O6    P7    D    
Ba2   O24   S    
O4    P1    S    
C35   H23   S    
C29   C33   A    
C35   H34   S    
O10   P6    S    
C23   H10   S    
C4    O22   S    
C34   H13   S    
Ba1   O1    S    
O22   P3    S    
C42   C43   S    
C23   O7    S    
C2    C46   A    
C44   C45   S    
C38   C39   S    
C8    H33   S    
C43   H22   S    
C46   P8    S    
Ba1   O27   S    
C45   H26   S    
C22   C24   A    
C1    H4    S    
O11   P6    D    
O5    P2    S    
C3    C17   A    
C7    P1    S    
C38   H3    S    
C23   H11   S    
Ba2   O5    S    
C4    H38   S    
Ba2   O28   S    
C14   H31   S    
C18   P6    S    
C30   C31   A    
O3    P5    S    
O2    P5    D    
C29   P3    S    
C28   H46   S    
C12   O14   S    
O28   P5    S    
C37   H52   S    
O16   P3    S    
C38   H2    S    
C36   H45   S    
C15   C17   A    
C20   H41   S    
C9    C19   A    
C40   C45   S    
O17   P3    D    
C39   H6    S    
Ba1   O24   S    
C35   H12   S    
C23   C34   S    
C22   H37   S    
Ba2   O25   S    
C10   C11   A    
C27   C29   A    
C44   O9    S    
C25   C26   A    
C20   C21   A    
C42   H19   S    
Ba1   O15   S    
O12   P2    S    
C44   H25   S    
Ba1   O5    S    
O15   P2    D    
O1    P1    D    
