data_mof_unit_25471.cif
_audit_creation_date              2012-12-11T17:01:15-0500
_audit_creation_method            fapswitch 2.2
_symmetry_space_group_name_H-M    P1
_symmetry_Int_Tables_number       1
_space_group_crystal_system       triclinic
_cell_length_a                    19.379625
_cell_length_b                    7.102456
_cell_length_c                    17.599806
_cell_angle_alpha                 90.018195
_cell_angle_beta                  108.545201
_cell_angle_gamma                 89.981455
_cell_volume                      2296.69625961

loop_
_atom_site_label
_atom_site_type_symbol
_atom_type_description
_atom_site_fract_x
_atom_site_fract_y
_atom_site_fract_z
_atom_type_partial_charge
O1    O     O_R   0.413720 0.494330 0.415730 -0.536489
O2    O     O_R   0.586280 0.994330 0.584270 -0.534156
O3    O     O_R   0.560210 0.819300 0.430070 -0.543896
O4    O     O_R   0.439790 0.319300 0.569930 -0.544217
C1    C     C_R   0.581438 0.655273 0.414401 0.716302
C2    C     C_R   0.418236 0.155441 0.585202 0.719174
O5    O     O_R   0.412670 0.823730 0.406310 -0.542053
O6    O     O_R   0.587330 0.323730 0.593690 -0.543882
O7    O     O_R   0.437690 0.998790 0.560340 -0.538081
O8    O     O_R   0.562310 0.498790 0.439660 -0.539908
C3    C     C_R   0.385331 0.655169 0.383504 0.698554
C4    C     C_R   0.614681 0.155179 0.616485 0.697311
O9    O     O_3   0.508380 0.662350 0.550560 -0.375636
O10   O     O_3   0.491620 0.162350 0.449440 -0.376487
V1    V     V_3+5 0.498450 0.935370 0.490620 1.394965
V2    V     V_3+5 0.501550 0.435370 0.509380 1.391158
C5    C     C_R   0.733712 0.997611 0.690336 0.081879
C6    C     C_R   0.266896 0.495927 0.309012 0.111940
C7    C     C_R   0.684810 0.147346 0.682774 -0.101969
C8    C     C_R   0.315191 0.647227 0.317241 -0.115040
C9    C     C_R   0.707167 0.296234 0.738217 -0.194397
C10   C     C_R   0.292345 0.797048 0.262419 -0.175744
H1    H     H_    0.672504 0.417742 0.734007 0.135301
H2    H     H_    0.326706 0.919218 0.267007 0.131612
C11   C     C_R   0.772478 0.284454 0.802964 -0.208844
C12   C     C_R   0.227036 0.785370 0.197714 -0.189329
H3    H     H_    0.785874 0.397564 0.846398 0.129209
H4    H     H_    0.213392 0.899141 0.154635 0.119565
C13   C     C_R   0.817797 0.124228 0.813898 -0.134109
C14   C     C_R   0.182175 0.624253 0.186161 -0.137157
C15   C     C_R   0.798445 0.986654 0.753804 0.173762
C16   C     C_R   0.202057 0.485117 0.245515 0.140079
C17   C     C_3   0.793243 0.777254 0.759044 -0.199485
C18   C     C_3   0.208469 0.276761 0.238705 -0.217095
C19   C     C_3   0.722209 0.789759 0.689302 -0.478859
C20   C     C_3   0.279559 0.288677 0.308417 -0.405647
H5    H     H_    0.673511 0.751644 0.706405 0.172964
H6    H     H_    0.328329 0.254489 0.290752 0.151350
H7    H     H_    0.724162 0.724932 0.632460 0.169346
H8    H     H_    0.278266 0.220077 0.364749 0.194911
C21   C     C_R   0.322559 0.302094 0.634104 -0.205248
C22   C     C_R   0.674560 0.488311 0.367149 -0.216340
C23   C     C_R   0.368391 0.148200 0.633982 -0.081751
C24   C     C_R   0.630515 0.647342 0.364699 -0.083969
C25   C     C_R   0.366076 0.988351 0.680334 -0.219791
C26   C     C_R   0.634592 0.800854 0.315648 -0.221667
C27   C     C_R   0.319517 0.982821 0.727347 0.094254
C28   C     C_R   0.681622 0.796170 0.269316 0.092009
C29   C     C_R   0.273317 0.137154 0.726542 0.056381
C30   C     C_R   0.726267 0.637281 0.272951 0.056688
C31   C     C_R   0.274540 0.296756 0.679297 0.087885
C32   C     C_R   0.722864 0.483094 0.322246 0.088406
C33   C     C_R   0.318482 0.825974 0.775439 -0.192085
C34   C     C_R   0.684866 0.947774 0.219427 -0.188576
C35   C     C_R   0.271541 0.820897 0.821600 -0.189941
C36   C     C_R   0.732520 0.943119 0.174128 -0.191925
C37   C     C_R   0.224671 0.972402 0.820395 0.091471
C38   C     C_R   0.777767 0.786739 0.177888 0.092489
C39   C     C_R   0.225823 0.131903 0.773076 0.056376
C40   C     C_R   0.774430 0.632638 0.227244 0.055101
C41   C     C_R   0.179612 0.286203 0.772264 0.083986
C42   C     C_R   0.819100 0.473802 0.230895 0.084228
C43   C     C_R   0.180599 0.442982 0.724110 -0.176183
C44   C     C_R   0.815892 0.322254 0.280836 -0.171869
C45   C     C_R   0.227598 0.448151 0.678010 -0.172986
C46   C     C_R   0.768175 0.326811 0.326074 -0.183308
C47   C     C_R   0.176850 0.967309 0.865816 -0.209184
C48   C     C_R   0.825901 0.781337 0.132802 -0.217275
C49   C     C_R   0.131044 0.121236 0.866029 -0.074884
C50   C     C_R   0.869959 0.622325 0.135189 -0.079789
C51   C     C_R   0.133145 0.280794 0.819392 -0.207603
C52   C     C_R   0.866077 0.469060 0.184486 -0.205301
H9    H     H_    0.323497 0.425225 0.598029 0.127831
H10   H     H_    0.672240 0.369885 0.405122 0.126406
H11   H     H_    0.353777 0.706618 0.777091 0.132021
H12   H     H_    0.650764 0.070599 0.215725 0.133398
H13   H     H_    0.271630 0.697755 0.857968 0.132241
H14   H     H_    0.734199 0.062405 0.136378 0.131051
H15   H     H_    0.176094 0.844303 0.902022 0.122218
H16   H     H_    0.828043 0.899683 0.094719 0.123951
H17   H     H_    0.097832 0.399596 0.818821 0.142506
H18   H     H_    0.900010 0.346211 0.187235 0.138033
H19   H     H_    0.145277 0.562298 0.722428 0.147362
H20   H     H_    0.850025 0.199474 0.284572 0.143868
H21   H     H_    0.227526 0.571314 0.641659 0.142651
H22   H     H_    0.766480 0.207504 0.363807 0.137591
O11   O     O_R   0.937800 0.775460 0.060470 -0.540766
O12   O     O_R   0.062200 0.275460 0.939530 -0.540788
O13   O     O_R   0.087350 0.441340 0.093710 -0.547655
O14   O     O_R   0.912650 0.941340 0.906290 -0.527953
C53   C     C_R   0.114828 0.610360 0.116309 0.686777
C54   C     C_R   0.885176 0.110346 0.883692 0.714440
O15   O     O_R   0.939820 0.446010 0.069950 -0.545533
O16   O     O_R   0.060180 0.946010 0.930050 -0.532411
O17   O     O_R   0.913690 0.271230 0.915700 -0.541644
O18   O     O_R   0.086310 0.771230 0.084300 -0.545043
C55   C     C_R   0.918867 0.614409 0.085226 0.701962
C56   C     C_R   0.081432 0.114237 0.915145 0.715814
O19   O     O_3   0.991670 0.603050 0.949510 -0.361431
O20   O     O_3   0.008330 0.103050 0.050490 -0.386107
V3    V     V_3+5 0.001550 0.329940 0.009370 1.399698
V4    V     V_3+5 0.998450 0.829940 0.990630 1.440541
H23   H     H_    0.785634 0.729544 0.815981 0.103780
H24   H     H_    0.216110 0.234016 0.181129 0.091607
C57   C     C_2   0.852483 0.673135 0.738030 0.428806
H25   H     H_    0.844322 0.526837 0.719709 0.057183
O21   O     O_2   0.909994 0.749777 0.742216 -0.523995
C58   C     C_2   0.148240 0.172004 0.257432 0.439519
H26   H     H_    0.117703 0.065852 0.215985 0.056546
O22   O     O_2   0.132777 0.205371 0.318183 -0.524020
H27   H     H_    0.401362 0.869535 0.680831 0.125719
H28   H     H_    0.600717 0.923772 0.313013 0.127320

loop_
_geom_bond_atom_site_label_1
_geom_bond_atom_site_label_2
_ccdc_geom_bond_type
C48   H16   S    
C43   C45   A    
O18   V4    S    
C19   H7    S    
O1    C3    A    
O2    C4    A    
C2    O7    A    
O12   V3    S    
C32   C46   A    
C27   C29   A    
C28   C34   A    
C57   O21   D    
C19   H5    S    
C26   H28   S    
C35   H13   S    
C37   C39   A    
O16   C56   A    
C38   C40   A    
C36   H14   S    
C58   H26   S    
C40   C42   A    
C31   C45   A    
C25   C27   A    
C49   C51   A    
C44   H20   S    
C42   C44   A    
C17   C19   S    
C53   O18   A    
O14   V4    S    
C58   O22   D    
C29   C31   A    
C30   C32   A    
C15   C17   S    
O13   C53   A    
C18   C20   S    
C50   C55   S    
C27   C33   A    
C49   C56   S    
C41   C51   A    
C28   C30   A    
O6    V2    S    
C21   C23   A    
C33   H11   S    
C22   C24   A    
C37   C47   A    
C24   C26   A    
C26   C28   A    
C33   C35   A    
C11   C13   A    
C34   C36   A    
C3    C8    S    
C22   H10   S    
C39   C41   A    
C20   H8    S    
C47   H15   S    
O4    C2    A    
O15   V3    S    
O5    V1    S    
C54   O17   A    
C18   H24   S    
C43   H19   S    
C47   C49   A    
C44   C46   A    
O4    V2    S    
O5    C3    A    
C7    C9    A    
O11   V4    S    
O14   C54   A    
O6    C4    A    
O20   V4    S    
C42   C52   A    
O1    V2    S    
O2    V1    S    
C23   C25   A    
C34   H12   S    
C38   C48   A    
O19   V3    S    
C1    C24   S    
C8    C10   A    
C12   C14   A    
C2    C23   S    
C9    H1    S    
C5    C15   A    
C10   H2    S    
C6    C16   A    
O15   C55   A    
O3    V1    S    
C9    C11   A    
O13   V3    S    
C17   H23   S    
C41   C43   A    
C14   C53   S    
O3    C1    A    
C46   H22   S    
C25   H27   S    
C45   H21   S    
C11   H3    S    
C57   H25   S    
C12   H4    S    
C29   C39   A    
C17   C57   S    
C18   C58   S    
C35   C37   A    
O7    V1    S    
C30   C40   A    
C1    O8    A    
C13   C15   A    
O8    V2    S    
C14   C16   A    
C4    C7    S    
C20   H6    S    
O20   V3    S    
C5    C7    A    
C36   C38   A    
C6    C8    A    
C52   H18   S    
C21   H9    S    
O19   V4    S    
O16   V4    S    
C48   C50   A    
C10   C12   A    
O9    V2    S    
C22   C32   A    
O10   V1    S    
C50   C52   A    
C5    C19   S    
O11   C55   A    
C6    C20   S    
C21   C31   A    
C13   C54   S    
O12   C56   A    
O17   V3    S    
C16   C18   S    
C51   H17   S    
