data_mof_unit_57029.cif
_audit_creation_date              2012-12-11T15:36:55-0500
_audit_creation_method            fapswitch 2.2
_symmetry_space_group_name_H-M    P1
_symmetry_Int_Tables_number       1
_space_group_crystal_system       triclinic
_cell_length_a                    15.025352
_cell_length_b                    15.044454
_cell_length_c                    34.887977
_cell_angle_alpha                 91.303586
_cell_angle_beta                  91.65081
_cell_angle_gamma                 60.135856
_cell_volume                      6835.9631722

loop_
_atom_site_label
_atom_site_type_symbol
_atom_type_description
_atom_site_fract_x
_atom_site_fract_y
_atom_site_fract_z
_atom_type_partial_charge
C1    C     C_R   0.611033 0.302290 0.443969 0.562948
C2    C     C_R   0.749693 0.685478 0.183681 -0.015426
C3    C     C_R   0.649857 0.106858 0.825797 -0.015340
C4    C     C_R   0.670833 0.169224 0.850542 -0.080462
C5    C     C_R   0.686750 0.148635 0.889711 0.233797
C6    C     C_R   0.583124 0.216632 0.768289 -0.109634
C7    C     C_R   0.582752 0.230123 0.728993 -0.107662
C8    C     C_R   0.647722 0.147708 0.705283 0.031546
C9    C     C_R   0.712870 0.051232 0.721135 -0.110021
C10   C     C_R   0.711881 0.037214 0.760500 -0.109946
C11   C     C_R   0.647242 0.120114 0.784220 0.032587
C12   C     C_R   0.551341 0.201952 0.644146 -0.098425
C13   C     C_R   0.823553 0.609721 0.159978 -0.082768
C14   C     C_R   0.540029 0.237278 0.606891 0.194296
C15   C     C_R   0.721284 0.188770 0.607886 0.194661
C16   C     C_R   0.730570 0.153068 0.645284 -0.096685
C17   C     C_R   0.644578 0.164390 0.663978 -0.061746
C18   C     C_R   0.623749 0.237878 0.588853 0.030034
C19   C     C_R   0.046611 0.738882 0.048566 0.579252
C20   C     C_R   0.747507 0.746247 0.064163 0.561783
C21   C     C_R   0.750720 0.040823 0.050624 0.554967
C22   C     C_R   0.015246 0.722968 0.939271 0.538294
C23   C     C_R   0.717559 0.730333 0.954544 0.549807
C24   C     C_R   0.820321 0.623824 0.120388 0.231734
C25   C     C_R   0.721345 0.024558 0.942282 0.581668
C26   C     C_R   0.780523 0.577267 0.241422 -0.088554
C27   C     C_R   0.772752 0.567892 0.280959 0.126638
C28   C     C_R   0.739473 0.655144 0.304855 0.052340
C29   C     C_R   0.720463 0.748289 0.289469 -0.128175
C30   C     C_R   0.729000 0.756688 0.250282 -0.121285
C31   C     C_R   0.755151 0.672367 0.225718 0.004401
C32   C     C_R   0.600621 0.706661 0.350640 -0.091293
C33   C     C_R   0.592791 0.609890 0.448983 0.587899
C34   C     C_R   0.563233 0.695561 0.385140 0.203052
C35   C     C_R   0.739394 0.584884 0.407987 0.189978
C36   C     C_R   0.775047 0.595217 0.372693 -0.059166
C37   C     C_R   0.705699 0.654644 0.343859 -0.047830
C38   C     C_R   0.632369 0.632592 0.414318 0.029265
C39   C     C_R   0.105784 0.728585 0.084948 0.031569
C40   C     C_R   0.149674 0.635936 0.105886 0.215093
C41   C     C_R   0.168916 0.636687 0.145210 -0.105062
C42   C     C_R   0.147943 0.727587 0.164349 -0.049707
C43   C     C_R   0.119386 0.815577 0.142985 -0.075954
C44   C     C_R   0.304871 0.590715 0.441937 0.563567
C45   C     C_R   0.100849 0.816152 0.103444 0.181524
C46   C     C_R   0.206265 0.767389 0.228100 0.116274
C47   C     C_R   0.210322 0.761184 0.268389 -0.081566
C48   C     C_R   0.160162 0.717580 0.287181 -0.000262
C49   C     C_R   0.100506 0.685795 0.265869 -0.122176
C50   C     C_R   0.094796 0.692836 0.226118 -0.137873
C51   C     C_R   0.149544 0.730698 0.206763 0.055018
C52   C     C_R   0.229055 0.586103 0.337437 -0.071648
C53   C     C_R   0.264649 0.553281 0.374586 0.045851
C54   C     C_R   0.200746 0.731451 0.394305 0.253030
C55   C     C_R   0.605954 0.298779 0.553483 0.584798
C56   C     C_R   0.168586 0.761973 0.356391 -0.061105
C57   C     C_R   0.183847 0.689328 0.327837 -0.049681
C58   C     C_R   0.252837 0.625918 0.403845 0.037381
C59   C     C_R   0.721994 0.099141 0.086970 0.021099
C60   C     C_R   0.795355 0.110652 0.108954 -0.101456
C61   C     C_R   0.779046 0.136704 0.147761 -0.113391
C62   C     C_R   0.688370 0.153445 0.164823 0.023551
C63   C     C_R   0.610554 0.152847 0.141897 -0.108218
C64   C     C_R   0.627267 0.125787 0.103264 -0.109182
C65   C     C_R   0.587548 0.235493 0.223745 -0.109831
C66   C     C_R   0.588233 0.606785 0.558917 0.556775
C67   C     C_R   0.579049 0.241251 0.263533 -0.080308
C68   C     C_R   0.661329 0.172246 0.286766 0.079702
C69   C     C_R   0.751564 0.096326 0.269917 -0.067649
C70   C     C_R   0.760386 0.090944 0.230187 -0.116488
C71   C     C_R   0.678922 0.161297 0.206825 0.021598
C72   C     C_R   0.720995 0.223452 0.345641 0.058215
C73   C     C_R   0.708853 0.252489 0.384211 -0.142625
C74   C     C_R   0.575043 0.207694 0.389778 0.239300
C75   C     C_R   0.586939 0.177983 0.350837 0.244628
C76   C     C_R   0.657714 0.188831 0.328549 0.012694
C77   C     C_R   0.297306 0.589430 0.551575 0.546588
C78   C     C_R   0.633393 0.249608 0.406178 -0.039458
C79   C     C_R   0.694271 0.694705 0.917614 0.046299
C80   C     C_R   0.772057 0.610308 0.897195 0.098152
C81   C     C_R   0.759563 0.602110 0.857503 -0.091637
C82   C     C_R   0.669900 0.673882 0.838382 0.007626
C83   C     C_R   0.588212 0.748882 0.859427 -0.132690
C84   C     C_R   0.600237 0.759251 0.898702 -0.149857
C85   C     C_R   0.582346 0.675131 0.776567 -0.124861
C86   C     C_R   0.579382 0.673901 0.736663 -0.119808
C87   C     C_R   0.658111 0.673737 0.715969 0.079148
C88   C     C_R   0.742507 0.716445 0.103906 0.024717
C89   C     C_R   0.739266 0.678094 0.735429 0.102491
C90   C     C_R   0.742364 0.677834 0.775675 -0.099381
C91   C     C_R   0.664859 0.674940 0.796256 0.005462
C92   C     C_R   0.716509 0.562625 0.657523 0.092662
C93   C     C_R   0.700524 0.545429 0.618826 0.108772
C94   C     C_R   0.570641 0.725306 0.612788 -0.136667
C95   C     C_R   0.586729 0.743274 0.651265 0.075137
C96   C     C_R   0.657138 0.660906 0.674026 0.063533
C97   C     C_R   0.623663 0.626361 0.596650 0.008265
C98   C     C_R   0.054332 0.701993 0.900045 0.002934
C99   C     C_R   0.665495 0.789156 0.127696 -0.155908
C100  C     C_R   0.076105 0.770932 0.881869 -0.129277
C101  C     C_R   0.093285 0.762511 0.842641 -0.145349
C102  C     C_R   0.088237 0.685607 0.820833 0.050835
C103  C     C_R   0.069177 0.613946 0.839009 0.103558
C104  C     C_R   0.053987 0.621975 0.878650 -0.095840
C105  C     C_R   0.172047 0.590440 0.761198 -0.085481
C106  C     C_R   0.184365 0.586726 0.721783 -0.117000
C107  C     C_R   0.127514 0.675126 0.699729 0.028053
C108  C     C_R   0.057651 0.767488 0.717503 -0.115396
C109  C     C_R   0.044132 0.770854 0.757029 -0.133882
C110  C     C_R   0.669023 0.773855 0.167005 -0.130052
C111  C     C_R   0.101394 0.682214 0.779077 0.036753
C112  C     C_R   0.180951 0.733219 0.643128 -0.108689
C113  C     C_R   0.223726 0.711675 0.606762 -0.111527
C114  C     C_R   0.189894 0.570303 0.599894 -0.089293
C115  C     C_R   0.147946 0.591437 0.636197 -0.107464
C116  C     C_R   0.147335 0.670088 0.658620 0.022656
C117  C     C_R   0.232764 0.627004 0.585644 0.022838
C118  C     C_R   0.679323 0.066220 0.904380 0.040629
C119  C     C_R   0.650402 0.009162 0.879893 -0.165442
C120  C     C_R   0.636994 0.028543 0.840742 -0.135224
Cr1   Cr    Cr6+3 0.426010 0.422500 0.497000 1.143591
Cr2   Cr    Cr6+3 0.651300 0.426310 0.501970 1.149017
Cr3   Cr    Cr6+3 0.422670 0.651170 0.501050 1.133086
Cr4   Cr    Cr6+3 0.905130 0.911420 0.992650 1.118525
Cr5   Cr    Cr6+3 0.911860 0.682710 0.002320 1.143328
Cr6   Cr    Cr6+3 0.682710 0.906840 0.004710 1.038371
H1    H     H_    0.604309 0.860536 0.116247 0.152231
H2    H     H_    0.885666 0.540347 0.172329 0.147922
H3    H     H_    0.132108 0.842385 0.349122 0.166201
H4    H     H_    0.257809 0.784165 0.284929 0.134781
H5    H     H_    0.196823 0.566574 0.161260 0.158758
H6    H     H_    0.061466 0.651831 0.279981 0.131701
H7    H     H_    0.049534 0.665955 0.210249 0.126535
H8    H     H_    0.241854 0.529391 0.315307 0.157936
H9    H     H_    0.106718 0.885499 0.157275 0.186426
H10   H     H_    0.868241 0.092219 0.097012 0.198778
H11   H     H_    0.568765 0.118662 0.086868 0.144159
H12   H     H_    0.509631 0.301417 0.276303 0.136881
H13   H     H_    0.523813 0.290296 0.206232 0.120853
H14   H     H_    0.856710 0.555389 0.367437 0.181418
H15   H     H_    0.839176 0.139044 0.164870 0.130063
H16   H     H_    0.815885 0.043117 0.287616 0.143473
H17   H     H_    0.830720 0.031618 0.217673 0.114905
H18   H     H_    0.754857 0.283615 0.396375 0.175899
H19   H     H_    0.539843 0.165893 0.154415 0.128153
H20   H     H_    0.538561 0.823377 0.913564 0.145697
H21   H     H_    0.516827 0.670513 0.721773 0.123502
H22   H     H_    0.521702 0.673634 0.792088 0.121174
H23   H     H_    0.821195 0.541813 0.841183 0.107569
H24   H     H_    0.804561 0.680716 0.791053 0.096631
H25   H     H_    0.517834 0.804116 0.845050 0.122705
H26   H     H_    0.512974 0.788167 0.595864 0.152962
H27   H     H_    0.076378 0.833532 0.897732 0.146933
H28   H     H_    0.800324 0.511861 0.222723 0.110430
H29   H     H_    0.035700 0.569290 0.892316 0.150222
H30   H     H_    0.121297 0.542700 0.647705 0.133728
H31   H     H_    0.240360 0.515321 0.708566 0.115638
H32   H     H_    0.218598 0.521948 0.777818 0.147413
H33   H     H_    0.108752 0.817375 0.829093 0.120799
H34   H     H_    0.013656 0.836393 0.700814 0.117183
H35   H     H_    0.988943 0.842347 0.770408 0.107352
H36   H     H_    0.181235 0.794085 0.660232 0.123967
H37   H     H_    0.255632 0.756972 0.596345 0.146083
H38   H     H_    0.608998 0.832107 0.184470 0.133202
H39   H     H_    0.194259 0.505601 0.584007 0.183500
H40   H     H_    0.645862 0.944469 0.890576 0.132763
H41   H     H_    0.803841 0.121139 0.660458 0.156499
H42   H     H_    0.532352 0.305175 0.717017 0.111606
H43   H     H_    0.533082 0.281201 0.786259 0.113611
H44   H     H_    0.619903 0.980406 0.821946 0.128601
H45   H     H_    0.763194 0.987071 0.703062 0.109740
H46   H     H_    0.762674 0.962396 0.772572 0.105433
H47   H     H_    0.485567 0.207480 0.658414 0.160153
H48   H     H_    0.694235 0.815787 0.307627 0.158965
H49   H     H_    0.680066 0.230472 0.839119 0.144967
H50   H     H_    0.711618 0.830213 0.238990 0.129268
H51   H     H_    0.546937 0.751656 0.328014 0.165350
O1    O     O_R   0.324990 0.503440 0.453910 -0.520976
O2    O     O_R   0.639980 0.519500 0.542640 -0.448550
O3    O     O_R   0.500750 0.673190 0.545480 -0.523858
O4    O     O_R   0.336260 0.640450 0.538210 -0.501750
O5    O     O_3   0.499990 0.499990 0.500010 -0.308271
O6    O     O_R   0.834210 0.019400 0.034570 -0.459841
O7    O     O_R   0.002210 0.824620 0.031030 -0.452875
O8    O     O_R   0.024400 0.669340 0.039790 -0.431478
O9    O     O_R   0.830490 0.694950 0.045870 -0.436260
O10   O     O_R   0.675430 0.831160 0.051290 -0.523980
O11   O     O_R   0.698870 0.998880 0.039560 -0.509328
O12   O     O_R   0.522030 0.339050 0.458320 -0.459917
O13   O     O_R   0.811290 0.006780 0.950620 -0.461370
O14   O     O_R   0.980960 0.812920 0.953200 -0.506109
O15   O     O_R   0.001480 0.656720 0.955830 -0.493229
O16   O     O_R   0.809240 0.683250 0.968050 -0.459615
O17   O     O_R   0.652500 0.818540 0.967340 -0.525270
O18   O     O_R   0.677620 0.987170 0.961730 -0.509099
O19   O     O_3   0.833240 0.833660 0.999890 -0.287606
O20   O     O_R   0.676180 0.324490 0.458320 -0.496981
O21   O     O_R   0.643570 0.521510 0.464260 -0.464600
O22   O     O_R   0.504630 0.675350 0.460920 -0.435535
O23   O     O_R   0.339850 0.642450 0.459830 -0.425204
O24   O     O_R   0.321120 0.501280 0.538470 -0.467929
O25   O     O_R   0.518440 0.337050 0.536710 -0.440060
O26   O     O_R   0.672300 0.322330 0.542880 -0.443208
Cl1   Cl    Cl    0.428478 0.755075 0.388045 -0.524749
Cl2   Cl    Cl    0.832241 0.511339 0.443224 -0.531866
Cl3   Cl    Cl    0.180537 0.516509 0.084810 -0.499334
Cl4   Cl    Cl    0.069928 0.929804 0.079214 -0.578791
N1    N     N_3   0.263806 0.805199 0.208808 -0.622476
H52   H     H_    0.323606 0.743078 0.194648 0.241689
H53   H     H_    0.297939 0.832737 0.228681 0.238007
Cl5   Cl    Cl    0.916500 0.522841 0.093391 -0.502791
N2    N     N_3   0.318067 0.444814 0.380651 -0.575175
H54   H     H_    0.392745 0.421606 0.390490 0.259037
H55   H     H_    0.278853 0.427191 0.400641 0.299483
Cl6   Cl    Cl    0.173209 0.828850 0.428755 -0.477267
Cl7   Cl    Cl    0.512648 0.127684 0.329815 -0.510406
N3    N     N_3   0.793727 0.234231 0.323084 -0.609782
H56   H     H_    0.752050 0.294062 0.303888 0.228595
H57   H     H_    0.837876 0.255980 0.340333 0.258940
Cl8   Cl    Cl    0.487808 0.190863 0.417407 -0.448691
N4    N     N_3   0.865480 0.536808 0.916204 -0.588452
H58   H     H_    0.916296 0.483173 0.896593 0.215254
H59   H     H_    0.846466 0.496181 0.935099 0.257619
N5    N     N_3   0.528130 0.843784 0.668037 -0.618598
H60   H     H_    0.579385 0.869595 0.675496 0.236197
H61   H     H_    0.476388 0.895310 0.647874 0.242908
N6    N     N_3   0.791724 0.472252 0.296578 -0.623453
H62   H     H_    0.821730 0.414249 0.275702 0.231838
H63   H     H_    0.720939 0.481010 0.304145 0.225450
N7    N     N_3   0.818240 0.681309 0.714245 -0.638217
H64   H     H_    0.784525 0.751630 0.700156 0.232066
H65   H     H_    0.874510 0.680164 0.732923 0.228769
N8    N     N_3   0.789161 0.477513 0.680207 -0.632568
H66   H     H_    0.844694 0.493908 0.691385 0.270807
H67   H     H_    0.750886 0.468089 0.702950 0.233877
N9    N     N_3   0.758347 0.444113 0.602863 -0.532787
H68   H     H_    0.744347 0.394461 0.618799 0.268904
H69   H     H_    0.836417 0.420803 0.605523 0.274970
N10   N     N_3   0.060263 0.536743 0.816925 -0.637027
H70   H     H_    0.994651 0.574090 0.799359 0.225462
H71   H     H_    0.048417 0.488909 0.834815 0.226010
Cl9   Cl    Cl    0.719427 0.224936 0.919292 -0.565203
Cl10  Cl    Cl    0.416365 0.283546 0.586096 -0.562554
Cl11  Cl    Cl    0.834631 0.170405 0.586852 -0.540377

loop_
_geom_bond_atom_site_label_1
_geom_bond_atom_site_label_2
_ccdc_geom_bond_type
C100  H27   S    
C8    C9    A    
C15   C18   A    
C7    H42   S    
C101  C102  A    
C22   C98   S    
C115  H30   S    
C52   H8    S    
C41   C42   A    
C14   C18   A    
C95   C96   A    
C85   H22   S    
C112  C116  A    
C29   H48   S    
C72   C76   A    
C27   N6    S    
N5    H60   S    
Cr4   O13   S    
C114  C115  A    
C85   C91   A    
C7    C8    A    
C85   C86   A    
C108  C109  A    
C46   N1    S    
C72   N3    S    
C28   C29   A    
C59   C64   A    
C62   C63   A    
C114  H39   S    
C83   C84   A    
C28   C37   S    
C66   C97   S    
Cr3   O22   S    
C36   C37   A    
Cr1   O25   S    
C21   C59   S    
Cr3   O5    S    
C77   C117  S    
C25   O13   A    
C109  C111  A    
Cr1   O12   S    
C79   C84   A    
C80   C81   A    
C81   H23   S    
C106  C107  A    
C33   O22   A    
C16   H41   S    
C10   H46   S    
C15   C16   A    
C92   N8    S    
C92   C96   A    
N9    H68   S    
Cr5   O8    S    
C67   H12   S    
C2    C13   A    
C118  C119  A    
C100  C101  A    
C80   N4    S    
C46   C47   A    
C13   H2    S    
Cr6   O18   S    
C35   Cl2   S    
C2    C110  A    
N10   H70   S    
C44   C58   S    
N1    H52   S    
C65   C67   A    
C4    H49   S    
C12   C17   A    
C48   C49   A    
C77   O4    A    
C107  C108  A    
C70   C71   A    
C89   N7    S    
N8    H66   S    
C60   H10   S    
C56   H3    S    
C25   O18   A    
C90   H24   S    
C42   C51   S    
C72   C73   A    
C73   H18   S    
C105  C111  A    
C59   C60   A    
C45   Cl4   S    
C75   Cl7   S    
C86   H21   S    
C1    C78   S    
C23   O16   A    
C102  C111  S    
C102  C103  A    
C30   H50   S    
C112  C113  A    
C24   Cl5   S    
C81   C82   A    
Cr2   O5    S    
C83   H25   S    
C64   H11   S    
C93   N9    S    
Cr2   O2    S    
C49   H6    S    
C40   Cl3   S    
C74   C75   A    
C47   H4    S    
C67   C68   A    
C88   C99   A    
C47   C48   A    
Cr3   O23   S    
C48   C57   S    
C35   C38   A    
C3    C11   S    
Cr4   O6    S    
C10   C11   A    
C34   Cl1   S    
C6    C11   A    
C41   H5    S    
C110  H38   S    
C86   C87   A    
C16   C17   A    
C99   H1    S    
Cr5   O19   S    
C69   H16   S    
C65   C71   A    
C55   O25   A    
C66   O3    A    
C46   C51   A    
C82   C91   S    
C63   C64   A    
C13   C24   A    
C77   O24   A    
C60   C61   A    
C35   C36   A    
C32   C34   A    
Cr2   O26   S    
N7    H65   S    
C75   C76   A    
C22   O14   A    
C29   C30   A    
C113  H37   S    
N4    H58   S    
C36   H14   S    
Cr6   O17   S    
N6    H62   S    
Cr5   O16   S    
C73   C78   A    
C55   O26   A    
C87   C96   S    
Cr4   O19   S    
C103  N10   S    
C54   C58   A    
C50   C51   A    
C70   H17   S    
C94   C95   A    
N10   H71   S    
C32   C37   A    
Cr2   O21   S    
C119  C120  A    
C43   H9    S    
N8    H67   S    
C119  H40   S    
C6    C7    A    
C19   C39   S    
C18   C55   S    
C113  C117  A    
C61   H15   S    
C40   C41   A    
N6    H63   S    
N2    H55   S    
C44   O23   A    
C98   C100  A    
C87   C89   A    
C26   C27   A    
C5    Cl9   S    
C49   C50   A    
C32   H51   S    
C26   H28   S    
N3    H57   S    
C42   C43   A    
C44   O1    A    
C3    C4    A    
C93   C97   A    
C39   C40   A    
C52   C53   A    
Cr1   O5    S    
C21   O11   A    
C9    C10   A    
C94   H26   S    
C56   C57   A    
C15   Cl11  S    
Cr6   O10   S    
C34   C38   A    
C66   O2    A    
C24   C88   A    
C1    O20   A    
C8    C17   S    
C12   C14   A    
Cr3   O3    S    
C50   H7    S    
N5    H61   S    
C19   O7    A    
C52   C57   A    
C53   C58   A    
Cr5   O9    S    
C54   C56   A    
Cr4   O7    S    
Cr1   O1    S    
C108  H34   S    
C84   H20   S    
C14   Cl10  S    
C68   C76   S    
C106  H31   S    
C112  H36   S    
C105  C106  A    
Cr3   O4    S    
C95   N5    S    
C94   C97   A    
C21   O6    A    
C5    C118  A    
N4    H59   S    
C54   Cl6   S    
Cr6   O11   S    
N3    H56   S    
Cr1   O24   S    
N7    H64   S    
C43   C45   A    
C105  H32   S    
C109  H35   S    
C19   O8    A    
C20   O10   A    
C99   C110  A    
C120  H44   S    
C90   C91   A    
C30   C31   A    
C33   O21   A    
C53   N2    S    
C98   C104  A    
C4    C5    A    
C20   C88   S    
C23   O17   A    
C92   C93   A    
N9    H69   S    
C62   C71   S    
Cr5   O15   S    
Cr2   O20   S    
C61   C62   A    
C68   C69   A    
C69   C70   A    
C107  C116  S    
C114  C117  A    
C9    H45   S    
C3    C120  A    
C20   O9    A    
C79   C80   A    
C65   H13   S    
Cr6   O19   S    
C104  H29   S    
C26   C31   A    
N2    H54   S    
C101  H33   S    
N1    H53   S    
C82   C83   A    
C74   C78   A    
C74   Cl8   S    
C103  C104  A    
C2    C31   S    
C33   C38   S    
C25   C118  S    
C23   C79   S    
C89   C90   A    
C22   O15   A    
C63   H19   S    
Cr4   O14   S    
C39   C45   A    
C115  C116  A    
C12   H47   S    
C27   C28   A    
C6    H43   S    
C1    O12   A    
