data_mof_unit_26991.cif
_audit_creation_date              2013-03-05T16:33:11-0500
_audit_creation_method            fapswitch 2.2
_symmetry_space_group_name_H-M    P1
_symmetry_Int_Tables_number       1
_space_group_crystal_system       triclinic
_cell_length_a                    27.812626
_cell_length_b                    10.814137
_cell_length_c                    9.528906
_cell_angle_alpha                 89.884513
_cell_angle_beta                  90.023545
_cell_angle_gamma                 90.043974
_cell_volume                      2865.99784333

loop_
_atom_site_label
_atom_site_type_symbol
_atom_site_description
_atom_site_fract_x
_atom_site_fract_y
_atom_site_fract_z
_atom_type_partial_charge
O1    O     O_R   0.500000 0.319640 0.618810 -0.583306
O2    O     O_R   0.500010 0.319680 0.381230 -0.588473
C1    C     C_R   0.500832 0.262273 0.500115 0.799623
O3    O     O_R   0.430260 0.500000 0.618780 -0.583863
O4    O     O_R   0.430270 0.500040 0.381190 -0.565038
C2    C     C_R   0.407582 0.497743 0.499936 0.792526
Cu1   Cu    Cu3+1 0.500000 0.499980 0.640670 0.942100
Cu2   Cu    Cu3+1 0.500000 0.500020 0.359330 0.950970
O5    O     O_R   0.499990 0.680320 0.618770 -0.579757
O6    O     O_R   0.500000 0.680360 0.381190 -0.584032
O7    O     O_R   0.569730 0.499960 0.618810 -0.582958
O8    O     O_R   0.569740 0.500000 0.381220 -0.582784
C3    C     C_R   0.500762 0.737734 0.499865 0.804909
C4    C     C_R   0.592584 0.499768 0.500136 0.803045
C5    C     C_R   0.178380 0.403159 0.548223 0.535863
O9    O     O_2   0.203289 0.301269 0.585943 -0.538868
N1    N     N_R   0.202406 0.507962 0.508625 -0.464510
C6    C     C_R   0.178230 0.613256 0.472004 0.536336
C7    C     C_R   0.280573 0.573039 0.602649 -0.103870
C8    C     C_R   0.330596 0.568031 0.600966 -0.240865
C9    C     C_R   0.327872 0.427737 0.400990 -0.041117
C10   C     C_R   0.277575 0.434815 0.403217 -0.141752
C11   C     C_R   0.253942 0.506536 0.503863 0.339613
C12   C     C_R   0.102172 0.508135 0.512077 -0.043758
C13   C     C_R   0.127929 0.401209 0.550324 -0.021072
C14   C     C_R   0.102956 0.294870 0.590177 -0.145929
C15   C     C_R   0.127729 0.615352 0.473269 -0.021661
C16   C     C_R   0.354748 0.496544 0.500314 -0.078498
H1    H     H_    0.256478 0.381642 0.329047 0.147439
H2    H     H_    0.121933 0.211916 0.621924 0.188003
C17   C     C_R   0.645590 0.499705 0.500932 -0.040092
C18   C     C_R   0.974808 0.395763 0.543243 0.042995
C19   C     C_R   0.974475 0.617372 0.478959 0.042742
C20   C     C_R   0.949394 0.506085 0.510334 0.067898
C21   C     C_R   0.947963 0.286597 0.568457 -0.205501
C22   C     C_R   0.898063 0.286672 0.565589 -0.145197
C23   C     C_R   0.872775 0.395135 0.536699 -0.021125
C24   C     C_R   0.898236 0.505044 0.508582 -0.043614
C25   C     C_R   0.872387 0.613862 0.478569 -0.021176
C26   C     C_R   0.821908 0.610767 0.477200 0.534994
N2    N     N_R   0.798028 0.502872 0.504823 -0.469591
C27   C     C_R   0.822305 0.396038 0.534249 0.534923
C28   C     C_R   0.720987 0.492248 0.629543 -0.100916
C29   C     C_R   0.670865 0.491337 0.628465 -0.213170
C30   C     C_R   0.671489 0.508226 0.374608 -0.211777
C31   C     C_R   0.721630 0.509671 0.376010 -0.099918
C32   C     C_R   0.746498 0.501771 0.503434 0.357877
O10   O     O_2   0.797646 0.290903 0.560250 -0.531922
C33   C     C_R   0.025901 0.397651 0.548642 0.042692
C34   C     C_R   0.051009 0.507702 0.512274 0.068136
C35   C     C_R   0.025619 0.617189 0.475748 0.042612
C36   C     C_R   0.053058 0.292950 0.589845 -0.205899
H3    H     H_    0.652008 0.483657 0.727415 0.151371
H4    H     H_    0.740068 0.485910 0.728379 0.139541
H5    H     H_    0.879337 0.200569 0.585899 0.188226
H6    H     H_    0.964255 0.198157 0.588786 0.137676
H7    H     H_    0.037023 0.207638 0.624516 0.139161
O11   O     O_2   0.202981 0.715120 0.433150 -0.537086
C37   C     C_R   0.102489 0.721697 0.435132 -0.146065
H8    H     H_    0.350552 0.621265 0.677660 0.156911
H9    H     H_    0.262429 0.628042 0.681311 0.146948
H10   H     H_    0.121281 0.805070 0.403656 0.187948
C38   C     C_R   0.947228 0.725479 0.452091 -0.205379
C39   C     C_R   0.897305 0.723385 0.451590 -0.144741
O12   O     O_2   0.796852 0.714819 0.449368 -0.532234
C40   C     C_R   0.052559 0.722830 0.436017 -0.205444
H11   H     H_    0.963198 0.814498 0.432568 0.137708
H12   H     H_    0.653135 0.513889 0.274778 0.148590
H13   H     H_    0.878262 0.808709 0.429945 0.188496
H14   H     H_    0.036328 0.808201 0.402514 0.138982
C41   C     C_R   0.504130 0.063255 0.626311 0.150905
C42   C     C_R   0.505594 0.129228 0.500360 -0.101305
C43   C     C_R   0.513829 0.064825 0.374617 -0.227479
H15   H     H_    0.517876 0.113321 0.275737 0.166298
C44   C     C_R   0.513513 0.935947 0.374310 -0.221321
H16   H     H_    0.517288 0.888114 0.275276 0.158595
C45   C     C_R   0.505380 0.870831 0.499916 -0.097511
C46   C     C_R   0.504036 0.936036 0.626034 0.128587
C47   C     C_3   0.468717 0.929016 0.743862 -0.468583
C48   C     C_3   0.468878 0.069399 0.744397 -0.498260
H17   H     H_    0.433673 0.888508 0.711399 0.199831
H18   H     H_    0.484721 0.888034 0.840227 0.193941
H19   H     H_    0.433904 0.110744 0.712632 0.192124
H20   H     H_    0.485085 0.108819 0.841124 0.193190
C49   C     C_R   0.516176 0.600802 0.073410 0.254227
N3    N     N_R   0.500300 0.500930 0.147930 -0.186193
C50   C     C_R   0.479486 0.406345 0.074660 -0.071190
H21   H     H_    0.463966 0.329302 0.130665 0.161354
C51   C     C_R   0.479203 0.406640 0.925758 -0.077758
H22   H     H_    0.462839 0.330387 0.870330 0.138004
N4    N     N_R   0.500310 0.500890 0.852020 -0.183688
C52   C     C_R   0.516177 0.600739 0.925950 0.252564
C53   C     C_3   0.565197 0.655998 0.919347 -0.493254
C54   C     C_3   0.565359 0.655624 0.078661 -0.500058
H23   H     H_    0.592232 0.592333 0.873443 0.213755
H24   H     H_    0.564790 0.750556 0.873385 0.196559
H25   H     H_    0.592352 0.591360 0.123811 0.212676
H26   H     H_    0.565425 0.749993 0.124448 0.191159
C55   C     C_R   0.350539 0.340317 0.301456 0.125416
C56   C     C_R   0.376991 0.238817 0.351861 -0.102793
C57   C     C_R   0.395116 0.150875 0.258421 -0.136186
C58   C     C_R   0.387401 0.164112 0.114215 -0.152198
C59   C     C_R   0.361493 0.265382 0.063170 -0.141474
C60   C     C_R   0.342842 0.352861 0.156357 -0.131010
H27   H     H_    0.382701 0.226467 0.463486 0.102378
H28   H     H_    0.414786 0.071878 0.297904 0.145480
H29   H     H_    0.401636 0.096184 0.042034 0.136746
H30   H     H_    0.355659 0.275752 0.951438 0.140837
H31   H     H_    0.322273 0.430029 0.115640 0.132269
H32   H     H_    0.741219 0.516450 0.278104 0.139474

loop_
_geom_bond_atom_site_label_1
_geom_bond_atom_site_label_2
_geom_bond_distance
_ccdc_geom_bond_type
C50   H21   1.078486 S    
C53   C54   1.518088 S    
C10   H1    1.084075 S    
N2    C27   1.367118 A    
C7    C8    1.392475 A    
C12   C15   1.408393 A    
C4    C17   1.474270 S    
C48   H20   1.111489 S    
Cu1   Cu2   2.680861 S    
C40   H14   1.075801 S    
C45   C46   1.395116 A    
Cu1   O7    1.950614 S    
C25   C39   1.395294 A    
C56   H27   1.083402 S    
N1    C11   1.434187 S    
C22   C23   1.395005 A    
O3    Cu1   1.950754 S    
C37   C40   1.388794 A    
O4    C2    1.295987 A    
C9    C55   1.481803 S    
O7    C4    1.297461 A    
C5    C13   1.403481 A    
C54   H26   1.110681 S    
C5    O9    1.350033 S    
C5    N1    1.367734 A    
C43   H15   1.083278 S    
C23   C27   1.403929 A    
O5    C3    1.291079 A    
C52   C53   1.489476 S    
C29   H3    1.082129 S    
C6    O11   1.349752 S    
C2    C16   1.469511 S    
C21   C22   1.388120 A    
C59   H30   1.082528 S    
C8    H8    1.083695 S    
C19   C38   1.416532 A    
C55   C60   1.405338 A    
C53   H23   1.110392 S    
O1    Cu1   1.961732 S    
C9    C10   1.401220 A    
C43   C44   1.393733 A    
C48   H19   1.112453 S    
C41   C48   1.494379 S    
C49   C52   1.405140 A    
C19   C20   1.421883 A    
C3    C45   1.444950 S    
C10   C11   1.399165 A    
C12   C34   1.422961 A    
C38   H11   1.075796 S    
C17   C29   1.406449 A    
C57   C58   1.397769 A    
C12   C13   1.407987 A    
O3    C2    1.296286 A    
N4    C52   1.363468 A    
C47   H17   1.112294 S    
N3    C50   1.367639 A    
C8    C16   1.404647 A    
C54   H25   1.109513 S    
C34   C35   1.421668 A    
C13   C14   1.395080 A    
C49   N3    1.364589 A    
C38   C39   1.388658 A    
O1    C1    1.291317 A    
C35   C40   1.416691 A    
C18   C20   1.421593 A    
C7    C11   1.397587 A    
C44   H16   1.082253 S    
C18   C21   1.416515 A    
C23   C24   1.408377 A    
C14   C36   1.387945 A    
C47   H18   1.111783 S    
C49   C54   1.491307 S    
C28   H4    1.082926 S    
C55   C56   1.405549 A    
Cu2   O8    1.950748 S    
C33   C36   1.416298 A    
Cu1   N4    2.013994 S    
C30   H12   1.081048 S    
N1    C6    1.367414 A    
N2    C32   1.433286 S    
C58   H29   1.082649 S    
C27   O10   1.349872 S    
C39   H13   1.083657 S    
C44   C45   1.405752 A    
C26   N2    1.367296 A    
C9    C16   1.417594 A    
O8    C4    1.298878 A    
C14   H2    1.083678 S    
C53   H24   1.111654 S    
C26   O12   1.349811 S    
C50   C51   1.418896 A    
C28   C29   1.394077 A    
C51   N4    1.368825 A    
C25   C26   1.404388 A    
C57   H28   1.081618 S    
Cu1   O5    1.960936 S    
C31   C32   1.399628 A    
C37   H10   1.083666 S    
C21   H6    1.075812 S    
C20   C24   1.422957 A    
O2    Cu2   1.960938 S    
C6    C15   1.404826 A    
C42   C43   1.406062 A    
O6    C3    1.291127 A    
O4    Cu2   1.950617 S    
C19   C35   1.422799 A    
C31   H32   1.082898 S    
O2    C1    1.290903 A    
C41   C42   1.395575 A    
C22   H5    1.083660 S    
C15   C37   1.395269 A    
C46   C47   1.493915 S    
C24   C25   1.408265 A    
C7    H9    1.082972 S    
C56   C57   1.398510 A    
C1    C42   1.444949 S    
Cu2   N3    2.014437 S    
C58   C59   1.397837 A    
C18   C33   1.422053 A    
C36   H7    1.075839 S    
C47   C48   1.518135 S    
C30   C31   1.394687 A    
Cu2   O6    1.961730 S    
C33   C34   1.421757 A    
C17   C30   1.405865 A    
C59   C60   1.398936 A    
C60   H31   1.083262 S    
C51   H22   1.080311 S    
C28   C32   1.399349 A    
C41   C46   1.375769 A    
