data_mof_unit_65245.cif
_audit_creation_date              2012-12-10T19:00:53-0500
_audit_creation_method            fapswitch 2.2
_symmetry_space_group_name_H-M    P1
_symmetry_Int_Tables_number       1
_space_group_crystal_system       triclinic
_cell_length_a                    10.784043
_cell_length_b                    14.25307
_cell_length_c                    13.363164
_cell_angle_alpha                 90.000032
_cell_angle_beta                  90.108264
_cell_angle_gamma                 90.0
_cell_volume                      2053.99107408

loop_
_atom_site_label
_atom_site_type_symbol
_atom_type_description
_atom_site_fract_x
_atom_site_fract_y
_atom_site_fract_z
_atom_type_partial_charge
C1    C     C_R   0.500000 0.326560 0.500000 0.901920
C2    C     C_R   0.744446 0.491204 0.500195 0.954382
C3    C     C_R   0.500000 0.673450 0.500000 0.911691
C4    C     C_3   0.073551 0.434904 0.593211 -0.010290
C5    C     C_3   0.069330 0.446146 0.399299 -0.000671
C6    C     C_3   0.930670 0.446146 0.600701 -0.000672
C7    C     C_3   0.926449 0.434904 0.406789 -0.010289
C8    C     C_3   0.074049 0.599965 0.508459 0.290975
C9    C     C_3   0.925950 0.599965 0.491541 0.290975
C10   C     C_3   0.120808 0.492373 0.499647 -0.039501
C11   C     C_3   0.879192 0.492373 0.500353 -0.039501
C12   C     C_1   0.500000 0.957718 0.500000 0.003456
C13   C     C_1   0.500000 0.225940 0.500000 -0.233270
C14   C     C_1   0.500000 0.141367 0.500000 -0.010722
C15   C     C_1   0.500000 0.042298 0.500000 0.003373
C16   C     C_3   0.123321 0.332887 0.602262 -0.848024
C17   C     C_3   0.137416 0.358253 0.357019 -0.869382
C18   C     C_3   0.862584 0.358253 0.642981 -0.869381
C19   C     C_3   0.876679 0.332887 0.397738 -0.848025
C20   C     C_3   0.110726 0.643919 0.612567 -0.897998
C21   C     C_3   0.143573 0.665520 0.432453 -0.839726
C22   C     C_3   0.856427 0.665520 0.567547 -0.839727
C23   C     C_1   0.500000 0.858650 0.500000 -0.006331
C24   C     C_3   0.889274 0.643919 0.387433 -0.897998
C25   C     C_1   0.500000 0.774079 0.500000 -0.237520
C26   C     C_1   0.499996 0.499965 0.169413 0.058263
C27   C     C_1   0.500004 0.499965 0.830587 0.058263
C28   C     C_1   0.499998 0.499956 0.049527 -0.054440
C29   C     C_1   0.500002 0.499956 0.950473 -0.054440
C30   C     C_R   0.255554 0.491204 0.499805 0.954382
H1    H     H_    0.113122 0.467419 0.661707 0.162703
H2    H     H_    0.233071 0.374162 0.332613 0.253724
H3    H     H_    0.857731 0.299012 0.590338 0.247389
H4    H     H_    0.910086 0.333647 0.711894 0.237034
H5    H     H_    0.766929 0.374161 0.667387 0.253724
H6    H     H_    0.932223 0.281498 0.439828 0.249594
H7    H     H_    0.778758 0.326965 0.421968 0.227278
H8    H     H_    0.878602 0.310333 0.318173 0.229767
H9    H     H_    0.211452 0.639203 0.627616 0.257111
H10   H     H_    0.090327 0.720247 0.614578 0.249034
H11   H     H_    0.061929 0.612616 0.677030 0.209545
H12   H     H_    0.085343 0.497564 0.338668 0.143462
H13   H     H_    0.138827 0.641836 0.353834 0.219201
H14   H     H_    0.106918 0.738232 0.436181 0.238569
H15   H     H_    0.243446 0.671619 0.451179 0.237436
H16   H     H_    0.893082 0.738232 0.563820 0.238570
H17   H     H_    0.756554 0.671619 0.548821 0.237436
H18   H     H_    0.861173 0.641836 0.646166 0.219202
H19   H     H_    0.938071 0.612616 0.322970 0.209546
H20   H     H_    0.788548 0.639203 0.372384 0.257111
H21   H     H_    0.909673 0.720247 0.385422 0.249034
H22   H     H_    0.914657 0.497564 0.661332 0.143462
H23   H     H_    0.886878 0.467419 0.338293 0.162702
H24   H     H_    0.067777 0.281498 0.560172 0.249594
H25   H     H_    0.221242 0.326965 0.578032 0.227278
H26   H     H_    0.121398 0.310333 0.681827 0.229767
H27   H     H_    0.142269 0.299012 0.409661 0.247390
H28   H     H_    0.089914 0.333647 0.288106 0.237035
N1    N     N_1   0.500000 0.499980 0.261870 -0.069683
N2    N     N_1   0.500000 0.499980 0.738130 -0.069682
O1    O     O_R   0.500000 0.373720 0.576470 -0.602448
O2    O     O_R   0.500000 0.373720 0.423530 -0.602448
O3    O     O_R   0.314810 0.499990 0.576450 -0.627764
O4    O     O_R   0.314810 0.499990 0.423550 -0.621718
O5    O     O_R   0.685190 0.499990 0.576450 -0.621718
O6    O     O_R   0.685190 0.499990 0.423550 -0.627764
O7    O     O_R   0.500000 0.626290 0.576440 -0.593470
O8    O     O_R   0.500000 0.626290 0.423560 -0.593470
Zn1   Zn    Zn3+2 0.500000 0.500010 0.602090 0.943347
Zn2   Zn    Zn3+2 0.500000 0.500010 0.397910 0.943347

loop_
_geom_bond_atom_site_label_1
_geom_bond_atom_site_label_2
_ccdc_geom_bond_type
C4    C16   S    
C22   H18   S    
C5    H12   S    
C16   H26   S    
C9    C24   S    
C2    O6    A    
C8    C21   S    
C19   H8    S    
O4    Zn2   S    
C27   C29   S    
C21   H14   S    
C9    C11   S    
C18   H5    S    
C10   C30   S    
C21   H15   S    
C3    O8    A    
C6    C11   S    
C12   C15   T    
C17   H28   S    
C27   N2    T    
C2    O5    A    
C1    O2    A    
C24   H21   S    
C22   H17   S    
C20   H9    S    
C16   H25   S    
C5    C10   S    
O6    Zn2   S    
C13   C14   T    
C7    C11   S    
C18   H4    S    
C12   C23   S    
C30   O4    A    
C8    C20   S    
N2    Zn1   S    
O5    Zn1   S    
C2    C11   S    
C4    C6    S    
C28   C29   T    
C22   H16   S    
C20   H11   S    
C7    C19   S    
C19   H6    S    
C23   C25   T    
C24   H20   S    
C20   H10   S    
C6    C18   S    
C16   H24   S    
C9    C22   S    
C4    H1    S    
C5    C17   S    
C18   H3    S    
C7    H23   S    
N1    Zn2   S    
C4    C10   S    
O3    Zn1   S    
C3    C25   S    
C1    C13   S    
O2    Zn2   S    
O8    Zn2   S    
C26   N1    T    
O1    Zn1   S    
C24   H19   S    
C5    C7    S    
C17   H2    S    
C14   C15   S    
C19   H7    S    
C6    H22   S    
C21   H13   S    
C26   C28   S    
C8    C10   S    
C3    O7    A    
C30   O3    A    
C17   H27   S    
C8    C9    S    
O7    Zn1   S    
C1    O1    A    
