data_mof_unit_31165.cif
_audit_creation_date              2012-12-11T18:07:17-0500
_audit_creation_method            fapswitch 2.2
_symmetry_space_group_name_H-M    P1
_symmetry_Int_Tables_number       1
_space_group_crystal_system       triclinic
_cell_length_a                    8.254728
_cell_length_b                    12.674084
_cell_length_c                    27.018015
_cell_angle_alpha                 96.458626
_cell_angle_beta                  93.470106
_cell_angle_gamma                 81.15273
_cell_volume                      2772.6053765

loop_
_atom_site_label
_atom_site_type_symbol
_atom_type_description
_atom_site_fract_x
_atom_site_fract_y
_atom_site_fract_z
_atom_type_partial_charge
Ba1   Ba    Ba6+2 0.859560 0.448380 0.523550 1.668570
Ba2   Ba    Ba6+2 0.330270 0.551530 0.476440 1.672061
C1    C     C_3   0.726563 0.063267 0.665172 -0.376644
C2    C     C_R   0.912975 0.603353 0.178845 0.580422
C3    C     C_2   0.752056 0.569466 0.271742 -0.095930
C4    C     C_3   0.160642 0.214260 0.659118 0.326654
C5    C     C_3   0.731619 0.603430 0.326624 -0.052606
C6    C     C_1   0.982412 0.479486 0.342641 0.028300
C7    C     C_2   0.021264 0.472031 0.294878 -0.103632
C8    C     C_2   0.898430 0.516934 0.255965 0.203917
C9    C     C_R   0.021131 0.503085 0.102450 -0.083690
C10   C     C_R   0.045189 0.409171 0.127139 -0.029773
C11   C     C_R   0.110161 0.311921 0.100688 -0.057845
C12   C     C_3   0.697341 0.166697 0.640640 0.352164
C13   C     C_R   0.956872 0.600704 0.128900 -0.060699
C14   C     C_2   0.844889 0.535330 0.359818 -0.283963
C15   C     C_2   0.357960 0.486356 0.643526 -0.195965
C16   C     C_3   0.154699 0.180164 0.711039 -0.323521
C17   C     C_R   0.180011 0.397913 0.975414 0.020041
C18   C     C_R   0.055079 0.586810 0.974170 0.018554
C19   C     C_R   0.136409 0.490224 0.949402 0.054210
C20   C     C_R   0.268974 0.305534 0.949870 -0.103410
C21   C     C_R   0.307636 0.302901 0.900175 -0.055815
C22   C     C_R   0.258933 0.391985 0.873409 -0.022981
C23   C     C_3   0.408400 0.775202 0.631509 0.416052
C24   C     C_R   0.172429 0.485587 0.897874 -0.081601
C25   C     C_R   0.120977 0.574384 0.870796 -0.034590
C26   C     C_R   0.162431 0.570182 0.820350 0.616284
C27   C     C_R   0.294846 0.388663 0.822616 0.570139
C28   C     C_3   0.215080 0.223767 0.419101 0.296961
C29   C     C_2   0.436676 0.426578 0.727363 -0.051643
C30   C     C_3   0.458691 0.402594 0.671999 -0.060306
C31   C     C_1   0.209462 0.525908 0.658361 0.007909
C32   C     C_2   0.164315 0.519845 0.704684 -0.124505
C33   C     C_2   0.287341 0.473449 0.743509 0.217089
C34   C     C_3   0.297179 0.883671 0.637443 -0.294032
C35   C     C_R   0.132522 0.400689 0.025652 0.027039
C36   C     C_R   0.061870 0.499561 0.051408 0.031280
C37   C     C_R   0.033928 0.595120 0.026848 -0.000702
C38   C     C_R   0.152766 0.307597 0.051231 -0.097461
C39   C     C_R   0.945235 0.695397 0.105928 -0.030752
C40   C     C_3   0.255117 0.103473 0.405512 -0.383395
C41   C     C_R   0.989563 0.669529 0.944495 -0.112314
C42   C     C_R   0.025478 0.664877 0.894450 -0.051769
C43   C     C_R   0.989800 0.694803 0.056867 0.118427
C44   C     C_R   0.794218 0.827603 0.497612 -0.084797
C45   C     C_3   0.028439 0.784460 0.341298 0.322109
C46   C     C_R   0.438161 0.189628 0.521366 -0.292993
C47   C     C_R   0.413919 0.009625 0.536411 -0.104019
C48   C     C_R   0.351488 0.118025 0.539785 -0.005325
C49   C     C_R   0.578792 0.152343 0.494567 0.066452
C50   C     C_R   0.644574 0.041101 0.490717 -0.058568
C51   C     C_R   0.563577 0.969759 0.514011 -0.078276
C52   C     C_3   0.916143 0.771515 0.653470 0.199046
C53   C     C_R   0.634864 0.860876 0.514717 0.021290
C54   C     C_R   0.863345 0.892937 0.468844 0.022320
C55   C     C_R   0.787612 0.998424 0.464608 -0.115348
C56   C     C_3   0.044660 0.813914 0.289015 -0.311743
C57   C     C_3   0.992179 0.790659 0.706024 -0.369579
C58   C     C_3   0.694194 0.312512 0.375801 0.297606
C59   C     C_3   0.697054 0.285352 0.319549 -0.353746
C60   C     C_3   0.489069 0.833320 0.349539 0.319081
C61   C     C_3   0.494258 0.914612 0.311930 -0.132211
C62   C     C_R   0.003706 0.414353 0.177754 0.599269
H1    H     H_    0.755908 0.152424 0.604009 0.074784
H2    H     H_    0.815551 0.332203 0.389946 0.008515
H3    H     H_    0.598516 0.383037 0.384047 0.078793
H4    H     H_    0.663217 0.002289 0.642230 0.074390
H5    H     H_    0.797061 0.218109 0.310049 0.135473
H6    H     H_    0.717945 0.356109 0.301499 0.073105
H7    H     H_    0.577732 0.261649 0.304911 0.135495
H8    H     H_    0.562268 0.187455 0.634368 -0.072171
H9    H     H_    0.676314 0.076874 0.702954 0.140549
H10   H     H_    0.343750 0.711112 0.612077 0.043179
H11   H     H_    0.207153 0.890688 0.605393 0.108471
H12   H     H_    0.355552 0.086947 0.379073 0.098435
H13   H     H_    0.227063 0.892498 0.671526 0.111319
H14   H     H_    0.370930 0.950597 0.640662 0.110721
H15   H     H_    0.860060 0.033670 0.668167 0.122392
H16   H     H_    0.153813 0.251314 0.738863 0.123283
H17   H     H_    0.122632 0.713814 0.347256 0.099106
H18   H     H_    0.904233 0.763629 0.344277 -0.048269
H19   H     H_    0.152714 0.855280 0.287593 0.139857
H20   H     H_    0.062422 0.739849 0.262808 0.125047
H21   H     H_    0.934052 0.868416 0.277360 0.129931
H22   H     H_    0.617193 0.809947 0.364119 -0.081227
H23   H     H_    0.295254 0.062400 0.439085 0.088296
H24   H     H_    0.417164 0.873472 0.381618 0.059628
H25   H     H_    0.569400 0.976382 0.328529 0.087372
H26   H     H_    0.068383 0.287172 0.655809 0.091112
H27   H     H_    0.368572 0.956255 0.303837 0.110319
H28   H     H_    0.142984 0.434957 0.283903 0.124119
H29   H     H_    0.128584 0.237952 0.118230 0.125319
H30   H     H_    0.533979 0.395776 0.753069 0.119952
H31   H     H_    0.376132 0.229835 0.882652 0.125720
H32   H     H_    0.313933 0.234083 0.967617 0.071790
H33   H     H_    0.198282 0.228967 0.033630 0.071526
H34   H     H_    0.145131 0.071327 0.388005 0.158969
H35   H     H_    0.658036 0.601338 0.245277 0.108336
H36   H     H_    0.909158 0.772451 0.127130 0.138948
H37   H     H_    0.904528 0.737502 0.958744 0.079250
H38   H     H_    0.285227 0.233427 0.654548 -0.056676
H39   H     H_    0.975429 0.732276 0.874047 0.125188
H40   H     H_    0.038843 0.548896 0.714687 0.133092
H41   H     H_    0.826551 0.550716 0.399565 0.091685
H42   H     H_    0.409064 0.514949 0.612279 0.067597
H43   H     H_    0.342229 0.957726 0.550853 0.089723
H44   H     H_    0.845082 0.046488 0.442315 0.109892
H45   H     H_    0.816655 0.722812 0.654058 0.139110
H46   H     H_    0.388394 0.274119 0.524452 0.067732
H47   H     H_    0.041408 0.145171 0.714642 0.143560
H48   H     H_    0.263055 0.119623 0.718700 0.124339
H49   H     H_    0.328676 0.255733 0.432570 0.004894
H50   H     H_    0.124945 0.239238 0.448822 0.070766
H51   H     H_    0.483988 0.815509 0.246558 0.218103
H52   H     H_    0.673657 0.813100 0.273646 0.206887
H53   H     H_    0.109333 0.788402 0.017757 0.188803
H54   H     H_    0.905002 0.837199 0.028882 0.175601
H55   H     H_    0.852711 0.711340 0.544581 0.191903
H56   H     H_    0.853249 0.849025 0.642291 0.066778
H57   H     H_    0.008139 0.747427 0.522471 0.210208
H58   H     H_    0.113363 0.740542 0.709932 0.170214
H59   H     H_    0.910259 0.770798 0.733643 0.154382
H60   H     H_    0.006852 0.876351 0.715012 0.105432
I1    I     I_    0.486160 0.729647 0.704224 -0.518653
N1    N     N_R   0.938493 0.511055 0.203390 -0.420610
N2    N     N_R   0.247876 0.477604 0.796210 -0.422320
N3    N     N_3   0.565326 0.863537 0.265339 -0.460278
N4    N     N_3   0.015310 0.796674 0.042739 -0.506333
N5    N     N_3   0.891004 0.729916 0.511218 -0.432912
O1    O     O_2   0.907040 0.557650 0.617910 -0.458333
O2    O     O_2   0.201708 0.881495 0.462423 -0.482098
O3    O     O_3   0.051945 0.872652 0.375679 -0.619865
O4    O     O_3   0.139040 0.557570 0.557730 -0.462205
O5    O     O_3   0.571310 0.369620 0.475470 -0.487814
O6    O     O_2   0.348200 0.764910 0.523260 -0.475620
O7    O     O_3   0.551580 0.784238 0.608096 -0.664181
O8    O     O_2   0.416124 0.539071 0.323343 -0.494387
O9    O     O_3   0.411822 0.746814 0.326989 -0.606179
O10   O     O_2   0.023692 0.332401 0.198656 -0.593258
O11   O     O_2   0.366948 0.305568 0.801895 -0.619465
O12   O     O_3   0.659673 0.223304 0.397178 -0.641378
O13   O     O_2   0.852571 0.688754 0.200543 -0.629547
O14   O     O_2   0.124750 0.650026 0.798343 -0.599583
O15   O     O_3   0.684960 0.360550 0.588460 -0.478250
O16   O     O_2   0.784238 0.453352 0.676926 -0.470478
O17   O     O_3   0.035073 0.731291 0.617814 -0.658275
O18   O     O_3   0.766371 0.247091 0.671428 -0.601618
O19   O     O_2   0.841490 0.235060 0.476710 -0.470263
O20   O     O_3   0.099640 0.305100 0.564190 -0.495738
O21   O     O_2   0.016600 0.113947 0.531404 -0.482339
O22   O     O_3   0.124546 0.130384 0.623730 -0.610293
O23   O     O_2   0.282660 0.442310 0.382060 -0.457521
O24   O     O_3   0.050670 0.442340 0.442260 -0.493688
O25   O     O_3   0.504750 0.639360 0.411530 -0.462548
O26   O     O_3   0.150714 0.270503 0.376400 -0.624893
O27   O     O_3   0.618400 0.630290 0.524520 -0.437640
O28   O     O_3   0.090070 0.694820 0.435810 -0.474072
P1    P     P_3+3 0.072810 0.589830 0.610360 0.976913
P2    P     P_3+3 0.661990 0.251250 0.462170 0.972621
P3    P     P_3+3 0.148215 0.166303 0.564266 0.937280
P4    P     P_3+3 0.116900 0.410080 0.389630 0.992579
P5    P     P_3+3 0.052336 0.835694 0.436159 0.962251
P6    P     P_3+3 0.674819 0.370929 0.653081 0.981878
P7    P     P_3+3 0.532681 0.763258 0.542804 0.952977
P8    P     P_3+3 0.516147 0.627228 0.346717 0.947995

loop_
_geom_bond_atom_site_label_1
_geom_bond_atom_site_label_2
_ccdc_geom_bond_type
C59   H6    S    
C46   H46   S    
C19   C24   A    
C43   N4    S    
Ba2   O25   S    
C52   H56   S    
C9    C36   A    
Ba1   O15   S    
C1    H4    S    
H57   N5    S    
C1    H15   S    
Ba1   O5    S    
Ba2   P4    S    
C2    O13   D    
O7    P7    S    
C47   H43   S    
C60   H22   S    
C54   P5    S    
C24   C25   A    
Ba2   O4    S    
C17   C19   A    
C16   H48   S    
Ba1   Ba2   S    
C35   C38   A    
C34   H13   S    
C40   H34   S    
C62   O10   D    
C36   C37   A    
C10   C62   A    
O6    P7    D    
O25   P8    S    
C56   H19   S    
C12   O18   S    
C49   P2    S    
H55   N5    S    
C54   C55   A    
C23   H10   S    
C45   H18   S    
C23   I1    S    
C22   C27   A    
C11   C38   A    
C17   C35   A    
C58   O12   S    
C9    C13   A    
C25   C42   A    
C46   C49   A    
C3    H35   S    
C58   H3    S    
C6    C7    D    
O21   P3    D    
C44   C53   A    
C21   C22   A    
Ba1   O19   S    
C26   O14   D    
C60   O9    S    
H53   N4    S    
C7    C8    S    
O22   P3    S    
C26   N2    Am   
C37   C43   A    
C4    O22   S    
C59   H7    S    
C57   H58   S    
C28   O26   S    
O4    P1    S    
C58   H2    S    
Ba2   O24   S    
C45   O3    S    
C48   P3    S    
C15   C31   D    
C32   C33   S    
O3    P5    S    
C7    H28   S    
C42   H39   S    
C52   C57   S    
C51   C53   A    
C57   H59   S    
C4    C16   S    
C49   C50   A    
O18   P6    S    
Ba1   P1    S    
C17   C20   A    
C16   H47   S    
C13   C39   A    
O27   P7    S    
C38   H33   S    
C3    C5    S    
C18   C37   A    
C45   H17   S    
C4    H26   S    
O16   P6    D    
Ba2   O6    S    
H51   N3    S    
C52   H45   S    
C11   H29   S    
C58   C59   S    
O9    P8    S    
C23   O7    S    
C41   C42   A    
C41   H37   S    
C35   C36   A    
C34   H11   S    
C56   H20   S    
C29   C30   S    
Ba2   O28   S    
C27   O11   D    
C61   H25   S    
C60   C61   S    
C31   C32   D    
C39   H36   S    
Ba1   O20   S    
C18   C19   A    
O1    P1    D    
C1    C12   S    
O28   P5    S    
C14   H41   S    
C16   H16   S    
C5    C14   S    
C5    P8    S    
Ba2   O23   S    
C62   N1    Am   
C27   N2    Am   
C29   C33   D    
C53   P7    S    
C44   C54   A    
Ba1   O4    S    
C56   H21   S    
C33   N2    S    
C18   C41   A    
C50   C51   A    
O17   P1    S    
C28   H50   S    
C59   H5    S    
C57   H60   S    
O20   P3    S    
O5    P2    S    
C20   H32   S    
O24   P4    S    
Ba1   P2    S    
C61   N3    S    
O12   P2    S    
Ba1   O1    S    
C44   N5    S    
C9    C10   A    
O15   P6    S    
C29   H30   S    
C40   H12   S    
Ba2   O5    S    
C2    N1    Am   
O23   P4    D    
O8    P8    D    
C12   H8    S    
C2    C13   A    
Ba1   O27   S    
O2    P5    D    
C3    C8    D    
H54   N4    S    
C34   H14   S    
C15   H42   S    
C45   C56   S    
C22   C24   A    
C60   H24   S    
Ba2   O27   S    
C47   C51   A    
C30   P6    S    
C46   C48   A    
C12   H1    S    
C21   H31   S    
C4    H38   S    
Ba1   O24   S    
C1    H9    S    
O19   P2    D    
C32   H40   S    
C50   C55   A    
C23   C34   S    
O26   P4    S    
C55   H44   S    
C10   C11   A    
C6    C14   D    
C47   C48   A    
H52   N3    S    
C61   H27   S    
C25   C26   A    
C15   C30   S    
C39   C43   A    
C20   C21   A    
C28   C40   S    
C6    P4    S    
C40   H23   S    
C8    N1    S    
C31   P1    S    
C52   O17   S    
C28   H49   S    
