data_mof_unit_64030.cif
_audit_creation_date              2012-12-10T17:14:17-0500
_audit_creation_method            fapswitch 2.2
_symmetry_space_group_name_H-M    P1
_symmetry_Int_Tables_number       1
_space_group_crystal_system       triclinic
_cell_length_a                    25.889732
_cell_length_b                    25.927148
_cell_length_c                    22.175022
_cell_angle_alpha                 89.95702
_cell_angle_beta                  125.696265
_cell_angle_gamma                 90.10061
_cell_volume                      12088.3411944

loop_
_atom_site_label
_atom_site_type_symbol
_atom_type_description
_atom_site_fract_x
_atom_site_fract_y
_atom_site_fract_z
_atom_type_partial_charge
C1    C     C_R   0.650228 0.750001 0.300504 0.801712
C2    C     C_R   0.781415 0.473341 0.561879 -0.196275
C3    C     C_R   0.057128 0.755739 0.560460 0.523393
C4    C     C_R   0.478163 0.707857 0.509291 0.550058
C5    C     C_R   0.504009 0.255985 0.560890 0.550478
C6    C     C_R   0.978167 0.207858 0.509296 0.549481
C7    C     C_R   0.004009 0.755984 0.560891 0.550575
C8    C     C_R   0.444021 0.753202 0.495595 -0.307910
C9    C     C_R   0.443893 0.247067 0.495423 -0.305069
C10   C     C_R   0.944021 0.253201 0.495594 -0.308272
C11   C     C_R   0.943893 0.747067 0.495423 -0.305179
C12   C     C_R   0.662949 0.945909 0.358788 -0.171360
C13   C     C_R   0.281399 0.026688 0.561831 -0.189919
C14   C     C_R   0.664133 0.053496 0.358167 -0.168712
C15   C     C_R   0.162938 0.445908 0.358793 -0.171265
C16   C     C_R   0.164124 0.553495 0.358171 -0.168108
C17   C     C_R   0.623836 0.972762 0.292329 -0.133902
C18   C     C_R   0.624536 0.026365 0.291998 -0.133055
C19   C     C_R   0.123819 0.472761 0.292336 -0.133906
C20   C     C_R   0.124520 0.526364 0.292004 -0.132115
C21   C     C_R   0.704729 0.027201 0.426365 0.100060
C22   C     C_R   0.704418 0.972499 0.426551 0.096199
C23   C     C_R   0.204725 0.527201 0.426368 0.099846
C24   C     C_R   0.281498 0.973342 0.561867 -0.196444
C25   C     C_R   0.204413 0.472499 0.426554 0.096243
C26   C     C_R   0.743927 0.946066 0.494956 -0.080567
C27   C     C_R   0.743951 0.053848 0.494803 -0.069153
C28   C     C_R   0.243928 0.446065 0.494958 -0.080580
C29   C     C_R   0.243952 0.553848 0.494805 -0.069072
C30   C     C_R   0.779656 0.973342 0.561744 -0.191965
C31   C     C_R   0.779561 0.026687 0.561677 -0.183246
C32   C     C_R   0.279664 0.473342 0.561746 -0.191754
C33   C     C_R   0.279569 0.526688 0.561678 -0.182932
C34   C     C_R   0.609315 0.750701 0.498782 0.983447
C35   C     C_3   0.511927 0.200532 0.024490 -0.204988
C36   C     C_R   0.609424 0.249235 0.499024 0.986027
C37   C     C_R   0.109315 0.250702 0.498780 0.983644
C38   C     C_R   0.109424 0.749235 0.499024 0.986126
C39   C     C_R   0.748544 0.890090 0.498762 0.793752
C40   C     C_R   0.748414 0.109884 0.498638 0.790081
C41   C     C_R   0.248545 0.390090 0.498763 0.793787
C42   C     C_R   0.248414 0.609884 0.498639 0.789783
C43   C     C_R   0.750135 0.609876 0.498786 0.787908
C44   C     C_R   0.750220 0.390120 0.498826 0.784014
C45   C     C_R   0.250136 0.109876 0.498775 0.788016
C46   C     C_3   0.500482 0.797825 0.024539 -0.206528
C47   C     C_R   0.250221 0.890120 0.498819 0.784095
C48   C     C_R   0.696085 0.553774 0.358876 -0.384170
C49   C     C_R   0.696410 0.446154 0.358980 -0.390416
C50   C     C_R   0.195932 0.053769 0.358820 -0.384111
C51   C     C_R   0.196267 0.946149 0.358930 -0.389950
C52   C     C_R   0.669583 0.526778 0.292594 0.604705
C53   C     C_R   0.669755 0.473111 0.292648 0.605389
C54   C     C_R   0.169352 0.026769 0.292524 0.606269
C55   C     C_R   0.169530 0.973103 0.292581 0.601278
C56   C     C_R   0.722519 0.472636 0.426766 0.014091
C57   C     C_3   0.014125 0.700665 0.024491 -0.197483
C58   C     C_R   0.722379 0.527325 0.426721 0.015318
C59   C     C_R   0.222448 0.972633 0.426733 0.014906
C60   C     C_R   0.222305 0.027322 0.426686 0.015188
C61   C     C_3   0.551362 0.832463 0.360451 -0.809163
C62   C     C_3   0.561092 0.154216 0.381118 -0.813035
C63   C     C_3   0.051446 0.332538 0.360520 -0.810439
C64   C     C_3   0.061083 0.654224 0.381095 -0.812556
C65   C     C_3   0.617920 0.322528 0.997986 -0.723753
C66   C     C_3   0.632540 0.708652 0.998247 -0.759672
C67   C     C_3   0.117083 0.823970 0.998032 -0.732845
C68   C     C_3   0.001016 0.297959 0.024535 -0.206394
C69   C     C_3   0.132079 0.207161 0.998260 -0.759959
C70   C     C_3   0.945730 0.723017 0.974731 -0.152058
C71   C     C_3   0.940439 0.264403 0.974757 -0.140610
C72   C     C_3   0.444587 0.224832 0.974746 -0.151425
C73   C     C_R   0.650199 0.249945 0.300538 0.808234
C74   C     C_3   0.440280 0.763875 0.974764 -0.140012
C75   C     C_1   0.889353 0.749955 0.778926 -0.123661
C76   C     C_1   0.889538 0.249980 0.778957 -0.124294
C77   C     C_1   0.389346 0.249940 0.778925 -0.123820
C78   C     C_1   0.389539 0.749980 0.778957 -0.124094
C79   C     C_1   0.610226 0.249698 0.221145 -0.119320
C80   C     C_1   0.610370 0.750140 0.221128 -0.111997
C81   C     C_1   0.110224 0.749700 0.221146 -0.118987
C82   C     C_1   0.110367 0.250144 0.221127 -0.112312
C83   C     C_3   0.030901 0.727287 0.975146 -0.161322
C84   C     C_R   0.150227 0.250001 0.300504 0.801691
C85   C     C_3   0.023484 0.283836 0.975171 -0.211682
C86   C     C_3   0.529828 0.225262 0.975107 -0.206651
C87   C     C_3   0.523104 0.784231 0.975171 -0.211925
C88   C     C_3   0.963116 0.749862 0.926839 0.150959
C89   C     C_3   0.963583 0.250022 0.926859 0.147924
C90   C     C_3   0.463120 0.249803 0.926837 0.150885
C91   C     C_3   0.463582 0.750020 0.926860 0.147442
C92   C     C_3   0.552594 0.273672 0.024219 0.263993
C93   C     C_3   0.557586 0.736836 0.024260 0.268559
C94   C     C_3   0.051433 0.775595 0.024237 0.259613
C95   C     C_R   0.150198 0.749945 0.300538 0.807698
C96   C     C_3   0.057437 0.236335 0.024262 0.268791
C97   C     C_3   0.535696 0.249365 0.073235 0.128744
C98   C     C_3   0.536019 0.750311 0.073243 0.123505
C99   C     C_3   0.035680 0.749409 0.073237 0.129141
C100  C     C_3   0.036021 0.250323 0.073242 0.123888
C101  C     C_R   0.849710 0.749988 0.699490 0.836678
C102  C     C_R   0.849752 0.250012 0.699527 0.839365
C103  C     C_R   0.349709 0.249985 0.699489 0.836721
C104  C     C_R   0.349752 0.750012 0.699527 0.839400
C105  C     C_3   0.984391 0.798865 0.975228 -0.193158
C106  C     C_R   0.750770 0.553874 0.495036 -0.000106
C107  C     C_3   0.998422 0.202129 0.975236 -0.156046
C108  C     C_3   0.486647 0.298880 0.975248 -0.153212
C109  C     C_3   0.498956 0.702249 0.975234 -0.155900
C110  C     C_3   0.468995 0.273704 0.024613 -0.179842
C111  C     C_3   0.476465 0.716341 0.024580 -0.169352
C112  C     C_3   0.967914 0.771815 0.024598 -0.187163
C113  C     C_3   0.976091 0.216748 0.024577 -0.170516
C114  C     C_1   0.922658 0.749917 0.845715 -0.051020
C115  C     C_1   0.922998 0.249983 0.845742 -0.048500
C116  C     C_1   0.422652 0.249881 0.845714 -0.050639
C117  C     C_R   0.750982 0.446119 0.495105 -0.004749
C118  C     C_1   0.422997 0.749983 0.845743 -0.048121
C119  C     C_1   0.576549 0.249517 0.154378 -0.055754
C120  C     C_1   0.576792 0.750236 0.154369 -0.052680
C121  C     C_1   0.076544 0.749528 0.154379 -0.057700
C122  C     C_1   0.076790 0.250245 0.154369 -0.053219
C123  C     C_R   0.527891 0.845915 0.449617 0.272586
C124  C     C_R   0.483454 0.216253 0.361384 0.275310
C125  C     C_R   0.027899 0.345922 0.449633 0.272476
C126  C     C_R   0.983451 0.716261 0.361380 0.275132
C127  C     C_R   0.492230 0.890631 0.435891 -0.188171
C128  C     C_R   0.250772 0.053873 0.495015 -0.000402
C129  C     C_R   0.422303 0.207357 0.296786 -0.190505
C130  C     C_R   0.992228 0.390634 0.435893 -0.188312
C131  C     C_R   0.922300 0.707366 0.296781 -0.190771
C132  C     C_R   0.441638 0.890212 0.441520 -0.167856
C133  C     C_R   0.369233 0.211360 0.297417 -0.169574
C134  C     C_R   0.941627 0.390209 0.441505 -0.167485
C135  C     C_R   0.869231 0.711368 0.297414 -0.169480
C136  C     C_R   0.425396 0.845119 0.460611 -0.105589
C137  C     C_R   0.376135 0.224031 0.362597 -0.105939
C138  C     C_R   0.925387 0.345116 0.460596 -0.106124
C139  C     C_R   0.250986 0.946118 0.495087 -0.005168
C140  C     C_R   0.876133 0.724036 0.362595 -0.105965
C141  C     C_R   0.461300 0.799546 0.477480 -0.018969
C142  C     C_R   0.436627 0.235111 0.428455 -0.019250
C143  C     C_R   0.961297 0.299545 0.477475 -0.019437
C144  C     C_R   0.936627 0.735114 0.428454 -0.019263
C145  C     C_R   0.514474 0.799805 0.473916 -0.011365
C146  C     C_R   0.491358 0.232604 0.428050 -0.010834
C147  C     C_R   0.014476 0.299807 0.473919 -0.011583
C148  C     C_R   0.991357 0.732607 0.428048 -0.010826
C149  C     C_R   0.889627 0.749446 0.499067 0.910490
C150  C     C_R   0.781316 0.526689 0.561844 -0.189758
C151  C     C_R   0.889673 0.250686 0.499126 0.909800
C152  C     C_R   0.389627 0.249446 0.499067 0.910473
C153  C     C_R   0.389673 0.750687 0.499126 0.909726
C154  C     C_R   0.550739 0.753570 0.493373 -0.332776
C155  C     C_R   0.551431 0.245516 0.494855 -0.330607
C156  C     C_R   0.050741 0.253572 0.493374 -0.332799
C157  C     C_R   0.051430 0.745516 0.494855 -0.330775
C158  C     C_R   0.531313 0.708146 0.508929 0.523265
C159  C     C_R   0.557128 0.255740 0.560460 0.523246
C160  C     C_R   0.031316 0.208148 0.508933 0.522814
F1    F     F_    0.565307 0.663906 0.525913 -0.610638
F2    F     F_    0.644974 0.446927 0.228309 -0.619740
F3    F     F_    0.144315 0.052921 0.228111 -0.623327
F4    F     F_    0.144678 0.946916 0.228227 -0.631488
F5    F     F_    0.614682 0.266960 0.624369 -0.614924
F6    F     F_    0.065312 0.163908 0.525921 -0.610861
F7    F     F_    0.114682 0.766958 0.624369 -0.614678
F8    F     F_    0.461158 0.663353 0.525883 -0.607868
F9    F     F_    0.510945 0.266919 0.625187 -0.612514
F10   F     F_    0.961164 0.163355 0.525892 -0.608164
F11   F     F_    0.010945 0.766917 0.625188 -0.612320
F12   F     F_    0.644627 0.552932 0.228200 -0.621809
H1    H     H_    0.803972 0.546946 0.614258 0.157952
H2    H     H_    0.822451 0.703293 0.247412 0.153724
H3    H     H_    0.413744 0.924810 0.429170 0.152612
H4    H     H_    0.322453 0.203284 0.247416 0.153469
H5    H     H_    0.383931 0.846474 0.461117 0.136828
H6    H     H_    0.333437 0.224432 0.360631 0.138215
H7    H     H_    0.883919 0.346468 0.461097 0.137020
H8    H     H_    0.833435 0.724435 0.360630 0.138274
H9    H     H_    0.809024 0.953158 0.614251 0.163433
H10   H     H_    0.808814 0.046967 0.614147 0.163210
H11   H     H_    0.309036 0.453158 0.614251 0.163582
H12   H     H_    0.804107 0.453109 0.614306 0.158408
H13   H     H_    0.308825 0.546967 0.614147 0.163383
H14   H     H_    0.659141 0.904355 0.356345 0.143422
H15   H     H_    0.661457 0.095042 0.354984 0.141142
H16   H     H_    0.159133 0.404355 0.356352 0.143435
H17   H     H_    0.161450 0.595041 0.354988 0.141297
H18   H     H_    0.592327 0.951865 0.240945 0.136267
H19   H     H_    0.593631 0.047074 0.240328 0.135856
H20   H     H_    0.092305 0.451864 0.240953 0.136384
H21   H     H_    0.093612 0.547072 0.240335 0.136452
H22   H     H_    0.696859 0.595363 0.356293 0.196709
H23   H     H_    0.304117 0.046945 0.614254 0.158021
H24   H     H_    0.697458 0.404579 0.356496 0.198300
H25   H     H_    0.196704 0.095356 0.356228 0.196610
H26   H     H_    0.197322 0.904575 0.356443 0.197331
H27   H     H_    0.901197 0.701167 0.952999 0.145899
H28   H     H_    0.891217 0.276071 0.953027 0.154767
H29   H     H_    0.399105 0.204524 0.953038 0.145885
H30   H     H_    0.390934 0.775121 0.953048 0.155426
H31   H     H_    0.522382 0.160297 0.045545 0.149744
H32   H     H_    0.501239 0.836840 0.045630 0.150203
H33   H     H_    0.026391 0.660473 0.045545 0.148690
H34   H     H_    0.304252 0.953113 0.614305 0.158472
H35   H     H_    0.002212 0.337082 0.045617 0.150186
H36   H     H_    0.444395 0.293227 0.045773 0.156061
H37   H     H_    0.457609 0.688814 0.045704 0.165027
H38   H     H_    0.942449 0.789728 0.045734 0.156461
H39   H     H_    0.956928 0.189552 0.045695 0.164035
H40   H     H_    0.972685 0.839168 0.954558 0.153425
H41   H     H_    0.997550 0.162959 0.954489 0.150638
H42   H     H_    0.476491 0.339197 0.954523 0.150057
H43   H     H_    0.498527 0.663190 0.954477 0.151201
H44   H     H_    0.056665 0.709458 0.954340 0.148503
H45   H     H_    0.502631 0.925710 0.418282 0.139585
H46   H     H_    0.043161 0.310813 0.954425 0.146976
H47   H     H_    0.554886 0.206027 0.954327 0.152024
H48   H     H_    0.542479 0.811539 0.954418 0.146827
H49   H     H_    0.599379 0.882079 0.450166 0.223629
H50   H     H_    0.591792 0.830492 0.355873 0.215465
H51   H     H_    0.516297 0.861058 0.319644 0.238416
H52   H     H_    0.528663 0.793776 0.347159 0.256533
H53   H     H_    0.528599 0.216323 0.309309 0.222710
H54   H     H_    0.605888 0.151433 0.385446 0.213830
H55   H     H_    0.526333 0.125796 0.339431 0.237888
H56   H     H_    0.416072 0.195530 0.246071 0.135474
H57   H     H_    0.571849 0.144811 0.436261 0.254252
H58   H     H_    0.099439 0.382097 0.450303 0.223777
H59   H     H_    0.091913 0.330528 0.356011 0.215722
H60   H     H_    0.016455 0.361184 0.319741 0.238300
H61   H     H_    0.028674 0.293878 0.347131 0.256088
H62   H     H_    0.028598 0.716343 0.309305 0.222594
H63   H     H_    0.105878 0.651443 0.385420 0.213725
H64   H     H_    0.026320 0.625810 0.339399 0.237934
H65   H     H_    0.071838 0.644811 0.436235 0.254218
H66   H     H_    0.651228 0.278108 0.091971 0.228815
H67   H     H_    0.002633 0.425716 0.418294 0.139719
H68   H     H_    0.663719 0.343712 0.025846 0.248926
H69   H     H_    0.578687 0.350316 0.963183 0.249292
H70   H     H_    0.616878 0.291988 0.962156 0.232546
H71   H     H_    0.655374 0.748314 0.092263 0.224079
H72   H     H_    0.682496 0.695848 0.026210 0.243201
H73   H     H_    0.623766 0.742435 0.962565 0.231438
H74   H     H_    0.600646 0.676406 0.963284 0.251894
H75   H     H_    0.118310 0.831448 0.092129 0.253459
H76   H     H_    0.164259 0.842918 0.025902 0.249839
H77   H     H_    0.079464 0.852791 0.962412 0.238510
H78   H     H_    0.916069 0.695543 0.246066 0.135505
H79   H     H_    0.114633 0.792097 0.963012 0.248297
H80   H     H_    0.155349 0.247107 0.092258 0.224147
H81   H     H_    0.181893 0.193972 0.026232 0.243237
H82   H     H_    0.123671 0.240831 0.962558 0.231550
H83   H     H_    0.099842 0.175067 0.963315 0.251691
H84   H     H_    0.913727 0.424806 0.429148 0.152919
N1    N     N_2   0.574610 0.847709 0.435045 -0.310081
N2    N     N_2   0.536067 0.205957 0.358774 -0.309396
N3    N     N_2   0.074653 0.347733 0.435119 -0.309769
N4    N     N_2   0.036064 0.705968 0.358767 -0.309397
N5    N     N_2   0.612209 0.299852 0.053401 -0.293405
N6    N     N_2   0.622201 0.722440 0.053560 -0.298347
N7    N     N_2   0.109593 0.804138 0.053438 -0.307355
N8    N     N_2   0.121890 0.221385 0.053562 -0.298269
O1    O     O_3   0.749980 0.749980 0.500000 -0.502402
O2    O     O_R   0.612630 0.280390 0.456900 -0.628699
O3    O     O_R   0.112630 0.219610 0.456900 -0.602894
O4    O     O_R   0.112630 0.780390 0.456900 -0.628758
O5    O     O_R   0.698160 0.780350 0.335610 -0.653205
O6    O     O_R   0.698160 0.219650 0.335610 -0.646523
O7    O     O_R   0.198160 0.280350 0.335610 -0.653030
O8    O     O_R   0.198160 0.719650 0.335610 -0.643130
O9    O     O_R   0.801810 0.780340 0.664400 -0.637497
O10   O     O_R   0.801810 0.219660 0.664400 -0.619866
O11   O     O_R   0.301810 0.280340 0.664400 -0.637598
O12   O     O_3   0.749980 0.250020 0.500000 -0.502533
O13   O     O_R   0.301810 0.719660 0.664400 -0.619678
O14   O     O_R   0.637430 0.719620 0.335600 -0.629267
O15   O     O_R   0.637430 0.280380 0.335600 -0.631803
O16   O     O_R   0.137430 0.219620 0.335600 -0.629589
O17   O     O_R   0.137430 0.780380 0.335600 -0.634195
O18   O     O_R   0.862530 0.719620 0.664390 -0.619908
O19   O     O_R   0.862530 0.280380 0.664390 -0.635597
O20   O     O_R   0.362530 0.219620 0.664390 -0.619810
O21   O     O_R   0.362530 0.780380 0.664390 -0.635701
O22   O     O_R   0.844250 0.780360 0.456900 -0.647277
O23   O     O_3   0.249980 0.249980 0.500000 -0.502345
O24   O     O_R   0.844250 0.219640 0.456900 -0.597147
O25   O     O_R   0.344250 0.280360 0.456900 -0.647142
O26   O     O_R   0.344250 0.719640 0.456900 -0.596163
O27   O     O_R   0.655730 0.780340 0.543100 -0.636336
O28   O     O_R   0.655730 0.219660 0.543100 -0.609266
O29   O     O_R   0.155730 0.280340 0.543100 -0.636207
O30   O     O_R   0.155730 0.719660 0.543100 -0.609129
O31   O     O_R   0.758810 0.865800 0.456900 -0.633157
O32   O     O_R   0.758810 0.134200 0.456900 -0.626486
O33   O     O_R   0.258810 0.365800 0.456900 -0.633041
O34   O     O_3   0.249980 0.750020 0.500000 -0.502745
O35   O     O_R   0.258810 0.634200 0.456900 -0.626256
O36   O     O_R   0.698070 0.634180 0.456900 -0.621276
O37   O     O_R   0.698070 0.365820 0.456900 -0.630692
O38   O     O_R   0.198070 0.134180 0.456900 -0.621431
O39   O     O_R   0.198070 0.865820 0.456900 -0.630954
O40   O     O_R   0.741180 0.865790 0.543100 -0.640275
O41   O     O_R   0.741180 0.134210 0.543100 -0.642862
O42   O     O_R   0.241180 0.365790 0.543100 -0.640262
O43   O     O_R   0.241180 0.634210 0.543100 -0.642878
O44   O     O_R   0.801890 0.634180 0.543100 -0.647670
O45   O     O_R   0.887340 0.719630 0.543100 -0.603319
O46   O     O_R   0.801890 0.365820 0.543100 -0.648043
O47   O     O_R   0.301890 0.134180 0.543100 -0.647705
O48   O     O_R   0.301890 0.865820 0.543100 -0.648053
O49   O     O_R   0.887340 0.280370 0.543100 -0.654185
O50   O     O_R   0.387340 0.219630 0.543100 -0.603456
O51   O     O_R   0.387340 0.780370 0.543100 -0.654559
O52   O     O_R   0.612630 0.719610 0.456900 -0.602588
Zn1   Zn    Zn3+2 0.824150 0.706610 0.561580 1.014456
Zn2   Zn    Zn3+2 0.737390 0.206640 0.561580 1.016669
Zn3   Zn    Zn3+2 0.237390 0.293360 0.561580 0.994014
Zn4   Zn    Zn3+2 0.237390 0.706640 0.561580 1.016899
Zn5   Zn    Zn3+2 0.675820 0.706600 0.438420 1.014911
Zn6   Zn    Zn3+2 0.675820 0.293400 0.438420 0.995248
Zn7   Zn    Zn3+2 0.175820 0.206600 0.438420 1.014339
Zn8   Zn    Zn3+2 0.175820 0.793400 0.438420 0.993764
Zn9   Zn    Zn3+2 0.824150 0.293390 0.561580 0.982600
Zn10  Zn    Zn3+2 0.324150 0.206610 0.561580 1.014349
Zn11  Zn    Zn3+2 0.324150 0.793390 0.561580 0.982329
Zn12  Zn    Zn3+2 0.762580 0.793370 0.438420 0.974039
Zn13  Zn    Zn3+2 0.762580 0.206630 0.438420 1.003415
Zn14  Zn    Zn3+2 0.262580 0.293370 0.438420 0.974273
Zn15  Zn    Zn3+2 0.262580 0.706630 0.438420 1.005896
Zn16  Zn    Zn3+2 0.737390 0.793360 0.561580 0.993925

loop_
_geom_bond_atom_site_label_1
_geom_bond_atom_site_label_2
_ccdc_geom_bond_type
C133  C137  A    
C87   C91   S    
C29   C42   S    
C142  C146  A    
C19   C20   A    
H62   N4    S    
C101  O18   A    
C14   C21   A    
O18   Zn1   S    
C154  C158  A    
C138  C143  A    
C81   C95   S    
C35   C86   S    
C42   O35   A    
C62   H55   S    
C29   C33   A    
C44   O37   A    
C71   C113  S    
C107  C113  S    
C123  C145  A    
C69   H82   S    
O31   Zn12  S    
C57   C83   S    
O1    Zn16  S    
C160  F6    S    
C62   N2    S    
C131  H78   S    
C141  C145  A    
C99   C121  S    
C83   C88   S    
C46   C98   S    
C59   C60   A    
C21   C22   A    
C130  C134  A    
O17   Zn8   S    
C2    C117  A    
C27   C31   A    
O6    Zn13  S    
C28   C32   A    
C64   H63   S    
C86   C90   S    
O24   Zn13  S    
C155  C159  A    
C4    F8    S    
C81   C121  T    
C47   O48   A    
C132  H3    S    
C136  C141  A    
C10   C151  S    
C6    C160  A    
C153  O26   A    
C16   C20   A    
C68   H35   S    
C91   C118  S    
C102  O10   A    
C70   C112  S    
C129  C133  A    
C67   H77   S    
C105  C112  S    
C82   C84   S    
O12   Zn9   S    
C77   C103  S    
C66   H74   S    
C37   O29   A    
C102  O19   A    
C38   C157  S    
C67   N7    S    
C98   C120  S    
C42   O43   A    
O44   Zn1   S    
O38   Zn7   S    
C14   H15   S    
C65   H69   S    
C49   C53   A    
C129  H56   S    
O34   Zn11  S    
C140  H8    S    
C51   C55   A    
C26   C39   S    
O47   Zn10  S    
C16   H17   S    
C22   C26   A    
O25   Zn14  S    
C48   C52   A    
H58   N3    S    
C75   C101  S    
H66   N5    S    
C84   O16   A    
O49   Zn9   S    
C82   C122  T    
H75   N7    S    
C36   C155  S    
C2    C150  A    
C137  C142  A    
C89   C115  S    
C106  C150  A    
C56   C117  A    
C52   F12   S    
C61   H51   S    
C83   H44   S    
C3    F7    S    
C95   O8    A    
C73   O15   A    
O23   Zn7   S    
C105  H40   S    
C23   C29   A    
O15   Zn6   S    
O12   Zn6   S    
C78   C118  T    
C109  C111  S    
C15   C25   A    
C1    O5    A    
C57   C99   S    
C12   C22   A    
C41   O42   A    
C126  C131  A    
C61   H50   S    
O33   Zn14  S    
C92   C108  S    
O23   Zn10  S    
C95   O17   A    
C8    C141  A    
C54   F3    S    
O48   Zn11  S    
C93   N6    S    
C96   N8    S    
O34   Zn8   S    
C68   C85   S    
C37   C156  S    
C138  H7    S    
O29   Zn3   S    
O3    Zn7   S    
C92   C97   S    
C7    C11   A    
O30   Zn4   S    
C76   C102  S    
C130  H67   S    
C137  H6    S    
C78   C104  S    
C156  C160  A    
C124  C146  A    
C136  H5    S    
C159  F5    S    
C39   O40   A    
C43   C106  S    
C97   C119  S    
C85   H46   S    
C68   C100  S    
C5    C9    A    
C63   N3    S    
C72   C90   S    
C123  C127  A    
C107  H41   S    
C27   C40   S    
C132  C136  A    
C17   C18   A    
C73   C79   S    
C87   H48   S    
C8    C153  S    
C145  C154  A    
H71   N6    S    
C26   C30   A    
C16   C23   A    
C90   C116  S    
C39   O31   A    
C40   O32   A    
C103  O20   A    
C52   C53   A    
C63   H59   S    
C46   C87   S    
C6    F10   S    
C54   C55   A    
O41   Zn2   S    
C84   O7    A    
C65   N5    S    
C104  O13   A    
C33   H13   S    
C9    C142  A    
O5    Zn12  S    
C17   H18   S    
C15   H16   S    
C50   C60   A    
C61   H52   S    
C103  O11   A    
C34   O52   A    
C88   C105  S    
C85   C96   S    
C96   C100  S    
C24   H34   S    
C56   C58   A    
O12   Zn13  S    
C148  C157  A    
H80   N8    S    
C150  H1    S    
O37   Zn6   S    
C3    C157  A    
C108  H42   S    
C93   C109  S    
O21   Zn11  S    
C43   O36   A    
C94   C105  S    
C7    F11   S    
O8    Zn15  S    
C149  O22   A    
O40   Zn16  S    
C32   H11   S    
C61   N1    S    
C25   C28   A    
C15   C19   A    
O4    Zn8   S    
O34   Zn15  S    
C50   C54   A    
H53   N2    S    
C64   H64   S    
C3    C7    A    
C73   O6    A    
C30   C31   A    
C19   H20   S    
C53   F2    S    
C45   C128  S    
C28   C41   S    
C76   C115  T    
O13   Zn4   S    
C153  O51   A    
C158  F1    S    
C41   O33   A    
C11   C149  S    
C146  C155  A    
O11   Zn3   S    
C79   C119  T    
C12   C17   A    
O9    Zn16  S    
C65   H68   S    
C57   C70   S    
C92   N5    S    
C144  C148  A    
O26   Zn15  S    
C46   H32   S    
C94   N7    S    
C21   C27   A    
C124  N2    S    
O28   Zn2   S    
C50   H25   S    
C34   C154  S    
C24   C139  A    
O35   Zn15  S    
C135  C140  A    
C47   O39   A    
C18   H19   S    
C135  H2    S    
O23   Zn3   S    
C71   H28   S    
C113  H39   S    
C125  C147  A    
C74   C111  S    
C85   C89   S    
O50   Zn10  S    
O23   Zn14  S    
C74   H30   S    
C62   H54   S    
C83   C94   S    
C123  N1    S    
C112  H38   S    
C74   C91   S    
C149  O45   A    
O14   Zn5   S    
C134  C138  A    
C51   H26   S    
C60   C128  A    
C12   H14   S    
C89   C107  S    
C2    H12   S    
C147  C156  A    
C64   H65   S    
C96   C107  S    
C35   C72   S    
C31   H10   S    
C30   H9    S    
C43   O44   A    
O34   Zn4   S    
O39   Zn8   S    
C127  H45   S    
C126  C148  A    
C48   H22   S    
O43   Zn4   S    
C140  C144  A    
C6    C10   A    
O22   Zn12  S    
C48   C58   A    
C49   H24   S    
C32   C33   A    
C134  H84   S    
C1    O14   A    
C66   H72   S    
C68   C71   S    
C87   C93   S    
C124  C129  A    
C86   H47   S    
C88   C114  S    
O1    Zn5   S    
C90   C108  S    
C13   H23   S    
C47   C139  S    
C1    C80   S    
C5    F9    S    
C110  H36   S    
C66   N6    S    
C66   H73   S    
C80   C120  T    
C9    C152  S    
C70   H27   S    
C14   C18   A    
C152  O25   A    
O1    Zn12  S    
C4    C8    A    
C70   C88   S    
C151  O24   A    
C69   H81   S    
C143  C147  A    
O1    Zn1   S    
C44   C117  S    
C55   F4    S    
C131  C135  A    
C57   H33   S    
O32   Zn13  S    
C152  O50   A    
C37   O3    A    
C38   O4    A    
C127  C132  A    
O16   Zn7   S    
C13   C128  A    
O45   Zn1   S    
C125  C130  A    
C4    C158  A    
C108  C110  S    
C5    C159  A    
C59   C139  A    
C77   C116  T    
C11   C144  A    
O19   Zn9   S    
C104  O21   A    
O42   Zn3   S    
C101  O9    A    
O36   Zn5   S    
H49   N1    S    
C69   N8    S    
O2    Zn6   S    
C72   C110  S    
O27   Zn16  S    
C44   O46   A    
C45   O47   A    
O10   Zn2   S    
C13   C24   A    
C58   C106  A    
C111  H37   S    
C34   O27   A    
C63   H61   S    
C67   H76   S    
C71   C89   S    
C62   H57   S    
C75   C114  T    
C45   O38   A    
C20   H21   S    
C51   C59   A    
C40   O41   A    
C46   C74   S    
C69   H83   S    
C38   O30   A    
C36   O28   A    
C98   C111  S    
C36   O2    A    
O20   Zn10  S    
C100  C113  S    
C151  O49   A    
C109  H43   S    
O52   Zn5   S    
C49   C56   A    
C65   H70   S    
C125  N3    S    
C126  N4    S    
C91   C109  S    
C86   C92   S    
C97   C110  S    
C35   H31   S    
O46   Zn9   S    
C94   C99   S    
C99   C112  S    
C100  C122  S    
C10   C143  A    
C23   C25   A    
O12   Zn2   S    
C133  H4    S    
O7    Zn14  S    
O51   Zn11  S    
C63   H60   S    
C35   C97   S    
C93   C98   S    
C64   N4    S    
C72   H29   S    
C67   H79   S    
