data_mof_unit_24481.cif
_audit_creation_date              2012-12-10T17:50:50-0500
_audit_creation_method            fapswitch 2.2
_symmetry_space_group_name_H-M    P1
_symmetry_Int_Tables_number       1
_space_group_crystal_system       triclinic
_cell_length_a                    14.746489
_cell_length_b                    14.817221
_cell_length_c                    15.877754
_cell_angle_alpha                 75.964665
_cell_angle_beta                  103.531375
_cell_angle_gamma                 115.753792
_cell_volume                      2998.41503577

loop_
_atom_site_label
_atom_site_type_symbol
_atom_type_description
_atom_site_fract_x
_atom_site_fract_y
_atom_site_fract_z
_atom_type_partial_charge
C1    C     C_R   0.880502 0.313588 0.502734 0.855369
C2    C     C_R   0.119611 0.686669 0.496491 0.856171
C3    C     C_R   0.775918 0.029967 0.496223 -0.199604
C4    C     C_R   0.221656 0.970877 0.498268 -0.229906
C5    C     C_R   0.846473 0.130992 0.492461 0.351792
C6    C     C_R   0.152680 0.869024 0.506030 0.340235
C7    C     C_R   0.705951 0.183252 0.465466 0.284444
C8    C     C_R   0.294312 0.819607 0.528055 0.178406
C9    C     C_R   0.637039 0.081577 0.485576 -0.006893
C10   C     C_R   0.360754 0.921523 0.503961 -0.000658
C11   C     C_R   0.672592 0.004572 0.495072 0.021335
C12   C     C_R   0.324435 0.997751 0.495190 0.050855
C13   C     C_R   0.532941 0.053739 0.491370 0.111664
C14   C     C_R   0.464257 0.950195 0.496194 0.095105
C15   C     C_R   0.500012 0.878517 0.489998 -0.104008
C16   C     C_R   0.496437 0.125552 0.496256 -0.107301
C17   C     C_R   0.603203 0.903988 0.494471 -0.105983
C18   C     C_R   0.393087 0.099024 0.493121 -0.131118
C19   C     C_R   0.665078 0.553589 0.317870 0.268395
C20   C     C_R   0.335777 0.446610 0.681251 0.261590
C21   C     C_R   0.768427 0.586752 0.353940 0.530653
C22   C     C_R   0.232396 0.415113 0.646182 0.521748
C23   C     C_R   0.000084 0.499762 0.660145 0.844527
C24   C     C_R   0.999905 0.500229 0.339860 0.826951
C25   C     C_R   0.724142 0.526431 0.497885 0.008796
C26   C     C_R   0.274171 0.468416 0.501336 -0.070003
C27   C     C_R   0.623264 0.520895 0.464679 -0.061374
C28   C     C_R   0.374790 0.472774 0.534369 -0.071692
C29   C     C_R   0.594590 0.533979 0.372539 -0.027684
C30   C     C_R   0.404438 0.461767 0.626457 -0.021727
C31   C     C_R   0.548954 0.498750 0.518903 0.114214
C32   C     C_R   0.448540 0.493208 0.480063 0.122727
C33   C     C_R   0.425296 0.508726 0.388283 -0.230240
C34   C     C_R   0.572202 0.482948 0.610666 -0.222035
C35   C     C_R   0.497055 0.529976 0.336073 -0.066974
C36   C     C_R   0.501204 0.463696 0.662887 -0.052886
C37   C     C_3   0.076177 0.476211 0.050282 -0.214256
C38   C     C_3   0.923353 0.523133 0.949803 -0.202146
C39   C     C_3   0.986860 0.406861 0.990351 -0.186108
C40   C     C_3   0.012671 0.592480 0.009730 -0.179963
C41   C     C_1   0.000254 0.499524 0.750026 -0.035547
C42   C     C_1   0.999562 0.500213 0.250010 -0.058904
C43   C     C_3   0.088492 0.568232 0.975926 0.215614
C44   C     C_3   0.911038 0.431111 0.024167 0.212628
C45   C     C_3   0.999765 0.499342 0.917325 0.063644
C46   C     C_3   0.999772 0.500008 0.082754 0.065357
C47   C     C_1   0.000001 0.499298 0.825607 0.043488
C48   C     C_1   0.999656 0.500215 0.174452 0.036491
C49   C     C_R   0.811604 0.207602 0.489191 -0.296976
C50   C     C_R   0.188261 0.793349 0.507875 -0.238122
Cu1   Cu    Cu3+1 0.081740 0.475690 0.522610 1.081012
Cu2   Cu    Cu3+1 0.918260 0.524310 0.477390 1.109136
H1    H     H_    0.975870 0.330611 0.981284 0.188718
H2    H     H_    0.023662 0.668729 0.018799 0.189609
H3    H     H_    0.251061 0.491295 0.433107 0.158628
H4    H     H_    0.746509 0.501132 0.565700 0.145442
H5    H     H_    0.352036 0.505743 0.354144 0.143960
H6    H     H_    0.645186 0.485118 0.644829 0.142290
H7    H     H_    0.139167 0.457417 0.092487 0.180306
H8    H     H_    0.860359 0.541924 0.907605 0.183669
H9    H     H_    0.628299 0.845337 0.494083 0.162508
H10   H     H_    0.367471 0.157397 0.493183 0.164532
H11   H     H_    0.801259 0.970878 0.497864 0.212065
H12   H     H_    0.195812 0.029285 0.497708 0.206402
H13   H     H_    0.448259 0.802578 0.480273 0.146667
H14   H     H_    0.547397 0.202581 0.503669 0.184168
H15   H     H_    0.475744 0.546996 0.266022 0.206738
H16   H     H_    0.522654 0.447334 0.732998 0.202026
N1    N     N_R   0.795440 0.560790 0.443380 -0.230570
N2    N     N_R   0.204560 0.439210 0.556620 -0.231179
O1    O     O_R   0.977900 0.338120 0.529810 -0.473098
O2    O     O_R   0.022100 0.661880 0.470190 -0.475536
O3    O     O_R   0.839850 0.379180 0.491620 -0.558790
O4    O     O_R   0.160150 0.620820 0.508380 -0.609736
O5    O     O_R   0.069010 0.479460 0.640020 -0.519929
O6    O     O_R   0.930990 0.520540 0.359980 -0.512907
O7    O     O_R   0.930960 0.520530 0.601820 -0.594998
O8    O     O_R   0.069040 0.479470 0.398180 -0.591900
S1    S     S_3+6 0.147010 0.321416 0.719066 0.103839
O9    O     O_2   0.195913 0.249862 0.768863 -0.234231
O10   O     O_2   0.132285 0.370221 0.784443 -0.259610
O11   O     O_3   0.031962 0.250716 0.671259 -0.484933
H17   H     H_    0.995849 0.203436 0.720098 0.367760
S2    S     S_3+6 0.854647 0.682105 0.282510 0.093920
O12   O     O_2   0.873431 0.635037 0.218156 -0.249996
O13   O     O_2   0.804456 0.752108 0.231390 -0.244731
O14   O     O_3   0.967682 0.754421 0.332154 -0.510182
H18   H     H_    0.004176 0.803317 0.284128 0.360081
S3    S     S_3+6 0.624013 0.523236 0.209056 0.090793
O15   O     O_2   0.519188 0.439453 0.202333 -0.282974
O16   O     O_2   0.622163 0.615602 0.144736 -0.218887
O17   O     O_3   0.702447 0.482413 0.183170 -0.429783
H19   H     H_    0.678452 0.474245 0.120683 0.392577
S4    S     S_3+6 0.379308 0.479729 0.789086 0.113136
O18   O     O_2   0.379263 0.387744 0.854901 -0.230024
O19   O     O_2   0.485345 0.561495 0.794304 -0.237414
O20   O     O_3   0.303859 0.524945 0.813941 -0.414734
H20   H     H_    0.328466 0.533914 0.876217 0.393987
I1    I     I_    0.769448 0.321818 0.063834 -0.202724
I2    I     I_    0.230128 0.677564 0.936399 -0.159076
S5    S     S_3+6 0.337633 0.748962 0.624924 0.084239
O21   O     O_2   0.422394 0.821668 0.679882 -0.193426
O22   O     O_2   0.252264 0.685982 0.678005 -0.215202
O23   O     O_3   0.381746 0.671894 0.601996 -0.502926
H21   H     H_    0.342625 0.652839 0.544840 0.318055
S6    S     S_3+6 0.667212 0.261098 0.372322 0.035225
O24   O     O_2   0.646257 0.338504 0.401199 -0.323611
O25   O     O_2   0.750354 0.315021 0.315863 -0.251656
O26   O     O_3   0.561314 0.189267 0.312331 -0.499838
H22   H     H_    0.544044 0.238077 0.263705 0.410934
S7    S     S_3+6 0.034071 0.840743 0.537993 0.083950
O27   O     O_2   0.999511 0.740115 0.597462 -0.248451
O28   O     O_2   0.045937 0.921058 0.587130 -0.218561
O29   O     O_3   0.944202 0.838300 0.450279 -0.445889
H23   H     H_    0.974813 0.903401 0.411268 0.375000
S8    S     S_3+6 0.968446 0.157646 0.468681 0.074593
O30   O     O_2   0.042260 0.159580 0.551907 -0.165286
O31   O     O_2   0.961304 0.076117 0.423513 -0.284780
O32   O     O_3   0.013027 0.269452 0.402126 -0.499378
H24   H     H_    0.960251 0.263304 0.349579 0.340889

loop_
_geom_bond_atom_site_label_1
_geom_bond_atom_site_label_2
_ccdc_geom_bond_type
O14   H18   S    
S5    O21   D    
C27   C29   A    
C24   C42   S    
C6    S7    S    
S7    O27   D    
S2    O14   S    
C26   H3    S    
O20   H20   S    
C20   C30   A    
C40   C46   S    
C1    O1    A    
Cu2   O2    S    
C19   C21   A    
S2    O13   D    
C22   S1    S    
C44   I1    S    
S6    O24   D    
C15   H13   S    
S8    O30   D    
C15   C17   A    
C9    C13   A    
C38   C45   S    
Cu2   N1    S    
C2    C50   S    
C17   H9    S    
S2    O12   D    
C40   C43   S    
C25   H4    S    
Cu1   N2    S    
C4    C12   A    
C8    S5    S    
C2    O4    A    
C39   C45   S    
S5    O22   D    
C13   C14   A    
C5    C49   A    
C4    H12   S    
Cu1   O1    S    
C2    O2    A    
O23   H21   S    
C44   C46   S    
O29   H23   S    
C45   C47   S    
C46   C48   S    
C7    S6    S    
C27   C31   A    
Cu1   Cu2   S    
C28   C32   A    
C43   I2    S    
C7    C49   A    
C4    C6    A    
Cu2   O3    S    
C10   C14   A    
C23   O5    A    
S1    O10   D    
C24   O6    A    
S4    O20   S    
Cu2   O6    S    
C6    C50   A    
Cu1   O4    S    
C21   N1    A    
C37   C43   S    
C38   C44   S    
C19   S3    S    
C9    C11   A    
C31   C32   A    
C21   S2    S    
C35   H15   S    
C41   C47   T    
C31   C34   A    
S7    O28   D    
C16   C18   A    
C42   C48   T    
C23   O7    A    
S3    O17   S    
S4    O19   D    
C43   C45   S    
C37   H7    S    
C10   C12   A    
C38   H8    S    
C24   O8    A    
C20   C22   A    
O11   H17   S    
S5    O23   S    
C40   H2    S    
C5    S8    S    
C26   N2    A    
C16   H14   S    
Cu2   O7    S    
C19   C29   A    
C8    C50   A    
C7    C9    A    
C20   S4    S    
C11   C17   A    
C33   H5    S    
C18   H10   S    
Cu1   O5    S    
C3    C5    A    
S1    O11   S    
O32   H24   S    
C36   H16   S    
C39   C44   S    
C3    H11   S    
C25   C27   A    
C29   C35   A    
C26   C28   A    
C23   C41   S    
S8    O32   S    
C30   C36   A    
C1    O3    A    
C32   C33   A    
C28   C30   A    
S3    O15   D    
Cu1   O8    S    
C37   C39   S    
O26   H22   S    
C38   C40   S    
C39   H1    S    
S6    O25   D    
O17   H19   S    
C33   C35   A    
S8    O31   D    
S7    O29   S    
C34   C36   A    
S4    O18   D    
C3    C11   A    
S1    O9    D    
C25   N1    A    
C8    C10   A    
S3    O16   D    
C13   C16   A    
C12   C18   A    
C34   H6    S    
C14   C15   A    
C37   C46   S    
C1    C49   S    
C22   N2    A    
S6    O26   S    
