data_mof_unit_44850.cif
_audit_creation_date              2012-12-10T17:45:35-0500
_audit_creation_method            fapswitch 2.2
_symmetry_space_group_name_H-M    P1
_symmetry_Int_Tables_number       1
_space_group_crystal_system       triclinic
_cell_length_a                    11.534986
_cell_length_b                    10.700325
_cell_length_c                    9.977101
_cell_angle_alpha                 91.949113
_cell_angle_beta                  90.19503
_cell_angle_gamma                 94.069897
_cell_volume                      1227.61754719

loop_
_atom_site_label
_atom_site_type_symbol
_atom_type_description
_atom_site_fract_x
_atom_site_fract_y
_atom_site_fract_z
_atom_type_partial_charge
Br1   Br    Br    0.701915 0.670561 0.850059 -0.470569
Br2   Br    Br    0.579471 0.921633 0.044062 -0.475722
C1    C     C_R   0.510534 0.261828 0.497882 0.883950
C2    C     C_R   0.483100 0.873741 0.512668 -0.263752
C3    C     C_R   0.341682 0.343538 0.143239 -0.265189
C4    C     C_R   0.282253 0.500553 0.499889 0.899459
C5    C     C_R   0.249276 0.273731 0.082674 0.485274
C6    C     C_R   0.241727 0.271553 0.945857 -0.348013
C7    C     C_R   0.327346 0.333105 0.865079 0.512059
C8    C     C_R   0.416537 0.420532 0.926957 0.000849
C9    C     C_R   0.419616 0.422418 0.071730 0.028755
C10   C     C_R   0.578471 0.571938 0.074645 -0.052284
C11   C     C_R   0.579714 0.571191 0.932551 0.292007
C12   C     C_R   0.640325 0.090885 0.835821 -0.179263
C13   C     C_R   0.493401 0.739865 0.503404 0.917211
C14   C     C_R   0.717854 0.500820 0.500231 0.897201
C15   C     C_1   0.161819 0.502054 0.500118 -0.199074
C16   C     C_1   0.059597 0.502583 0.500616 -0.013807
C17   C     C_1   0.940808 0.502222 0.500840 0.013746
C18   C     C_1   0.838493 0.501561 0.500711 -0.148311
C19   C     C_R   0.630198 0.138736 0.708922 -0.175599
C20   C     C_3   0.271734 0.191293 0.685115 -0.308268
C21   C     C_3   0.273220 0.848176 0.317662 -0.236451
C22   C     C_3   0.128807 0.254998 0.267189 -0.289802
C23   C     C_R   0.583068 0.976252 0.863755 0.341623
C24   C     C_R   0.527185 0.903217 0.760399 -0.138692
C25   C     C_R   0.524501 0.946779 0.627478 -0.022622
C26   C     C_R   0.561291 0.072092 0.608785 0.094473
C27   C     C_R   0.521331 0.129519 0.494287 -0.200444
C28   C     C_R   0.466006 0.059867 0.389009 -0.266777
C29   C     C_R   0.446830 0.932240 0.397070 0.547442
H1    H     H_    0.432898 0.104607 0.302264 0.203613
H2    H     H_    0.294290 0.174382 0.578648 0.163300
H3    H     H_    0.256796 0.792557 0.408839 0.121696
H4    H     H_    0.229812 0.794864 0.231972 0.207326
H5    H     H_    0.233327 0.939751 0.328383 0.162707
H6    H     H_    0.108971 0.353365 0.248657 0.172412
H7    H     H_    0.190234 0.251224 0.352669 0.145712
H8    H     H_    0.046251 0.203786 0.296316 0.198088
H9    H     H_    0.168177 0.215944 0.902915 0.185327
H10   H     H_    0.673089 0.229904 0.691065 0.162431
H11   H     H_    0.687770 0.145793 0.913913 0.171825
H12   H     H_    0.480109 0.817818 0.789164 0.197610
H13   H     H_    0.643007 0.630639 0.130910 0.187598
H14   H     H_    0.350940 0.333078 0.247166 0.225644
H15   H     H_    0.175314 0.187120 0.686809 0.156830
H16   H     H_    0.307029 0.115525 0.743529 0.171685
N1    N     N_R   0.498930 0.498800 0.142780 -0.114259
N2    N     N_R   0.498900 0.498720 0.857170 -0.128638
O1    O     O_R   0.500000 0.316780 0.614690 -0.557191
O2    O     O_3   0.393027 0.865267 0.290321 -0.547037
O3    O     O_3   0.171896 0.194246 0.151926 -0.592108
O4    O     O_R   0.499990 0.316750 0.385360 -0.649026
O5    O     O_R   0.334450 0.500030 0.614670 -0.542021
O6    O     O_R   0.334440 0.500000 0.385330 -0.647010
O7    O     O_R   0.500010 0.683250 0.614640 -0.622714
O8    O     O_R   0.500000 0.683220 0.385310 -0.544772
O9    O     O_R   0.665560 0.500000 0.614670 -0.580127
O10   O     O_R   0.665550 0.499970 0.385330 -0.620099
O11   O     O_3   0.319665 0.311955 0.727898 -0.542721
Zn1   Zn    Zn3+2 0.500010 0.500020 0.653130 1.018260
Zn2   Zn    Zn3+2 0.499990 0.499980 0.346870 0.976248

loop_
_geom_bond_atom_site_label_1
_geom_bond_atom_site_label_2
_ccdc_geom_bond_type
C22   O3    S    
C22   H7    S    
C3    C5    A    
C27   C28   A    
O5    Zn1   S    
C13   O8    A    
O4    Zn2   S    
C24   H12   S    
N1    Zn2   S    
C17   C18   T    
C14   C18   S    
C4    O6    A    
C12   H11   S    
C7    O11   S    
C13   O7    A    
C21   H3    S    
C2    C13   S    
C22   H6    S    
C24   C25   A    
C5    C6    A    
C10   H13   S    
C14   O9    A    
C28   H1    S    
C1    O4    A    
C9    N1    A    
O9    Zn1   S    
C11   N2    A    
C12   C19   A    
C26   C27   A    
C20   H15   S    
C10   N1    A    
C4    O5    A    
C5    O3    S    
C3    C9    A    
Br2   C23   S    
C21   H4    S    
C12   C23   A    
C20   O11   S    
C28   C29   A    
C19   H10   S    
C2    C29   A    
N2    Zn1   S    
C8    C9    A    
C1    O1    A    
C4    C15   S    
O6    Zn2   S    
O8    Zn2   S    
C22   H8    S    
Br1   C11   S    
C10   C11   A    
C15   C16   T    
C21   H5    S    
C7    C8    A    
C25   C26   A    
C1    C27   S    
C20   H2    S    
O7    Zn1   S    
C16   C17   S    
O10   Zn2   S    
C2    C25   A    
C6    H9    S    
C23   C24   A    
C8    N2    A    
C3    H14   S    
O1    Zn1   S    
C19   C26   A    
C20   H16   S    
C21   O2    S    
C29   O2    S    
C6    C7    A    
C14   O10   A    
