data_mof_unit_56530.cif
_audit_creation_date              2012-12-10T17:01:35-0500
_audit_creation_method            fapswitch 2.2
_symmetry_space_group_name_H-M    P1
_symmetry_Int_Tables_number       1
_space_group_crystal_system       triclinic
_cell_length_a                    9.792902
_cell_length_b                    10.846402
_cell_length_c                    13.012636
_cell_angle_alpha                 90.405077
_cell_angle_beta                  75.096697
_cell_angle_gamma                 109.555309
_cell_volume                      1253.88766352

loop_
_atom_site_label
_atom_site_type_symbol
_atom_type_description
_atom_site_fract_x
_atom_site_fract_y
_atom_site_fract_z
_atom_type_partial_charge
C1    C     C_R   0.441553 0.252819 0.509979 0.866772
C2    C     C_R   0.557700 0.747049 0.495411 0.861317
C3    C     C_2   0.082534 0.511400 0.491356 -0.025928
C4    C     C_2   0.917458 0.488644 0.508697 -0.026190
C5    C     C_R   0.472877 0.495581 0.702860 0.918879
C6    C     C_R   0.527019 0.503845 0.297162 0.840535
C7    C     C_R   0.543046 0.506176 0.182697 -0.081809
C8    C     C_R   0.456652 0.492032 0.817407 -0.068502
C9    C     C_R   0.298701 0.465250 0.998855 -0.002929
C10   C     C_R   0.700649 0.531145 0.001214 -0.013371
C11   C     C_R   0.314673 0.463865 0.889393 -0.206594
C12   C     C_R   0.684621 0.531679 0.110746 -0.182675
C13   C     C_R   0.584173 0.518500 0.854344 -0.208412
C14   C     C_R   0.415649 0.480940 0.145778 -0.188487
C15   C     C_R   0.571912 0.511300 0.963414 0.083042
C16   C     C_R   0.427672 0.486621 0.036688 0.083957
C17   C     C_2   0.414805 0.110845 0.520238 -0.236556
C18   C     C_2   0.582367 0.888598 0.499647 -0.241006
C19   C     C_2   0.490079 0.065616 0.577484 -0.074351
C20   C     C_2   0.487140 0.928844 0.577615 -0.080600
Cu1   Cu    Cu3+1 0.647370 0.522180 0.481340 1.017172
Cu2   Cu    Cu3+1 0.352630 0.477820 0.518660 1.022817
H1    H     H_    0.306846 0.455105 0.203215 0.191984
H2    H     H_    0.693151 0.545754 0.796945 0.193328
H3    H     H_    0.782840 0.548141 0.140069 0.186985
H4    H     H_    0.216214 0.445871 0.860070 0.185218
H5    H     H_    0.836201 0.413852 0.569921 0.188625
H6    H     H_    0.163814 0.586228 0.430151 0.170900
H7    H     H_    0.948448 0.626558 0.396140 0.209274
H8    H     H_    0.051535 0.373408 0.603832 0.228472
N1    N     N_2   0.131210 0.444490 0.546730 -0.280998
N2    N     N_2   0.868790 0.555510 0.453270 -0.290666
O1    O     O_R   0.578710 0.332530 0.490040 -0.566198
O2    O     O_R   0.421290 0.667470 0.509960 -0.567092
O3    O     O_R   0.329810 0.295070 0.521560 -0.539147
O4    O     O_R   0.670190 0.704930 0.478440 -0.540245
O5    O     O_R   0.604230 0.515670 0.637800 -0.581247
O6    O     O_R   0.395770 0.484330 0.362200 -0.582790
O7    O     O_R   0.355330 0.478200 0.669330 -0.578731
O8    O     O_R   0.644670 0.521800 0.330670 -0.579106
C21   C     C_2   0.146754 0.448382 0.069614 0.854504
O9    O     O_2   0.035774 0.364698 0.054047 -0.558446
O10   O     O_R   0.129453 0.532121 0.150397 -0.762900
H9    H     H_    0.020406 0.511447 0.192064 0.333070
C22   C     C_2   0.852252 0.546911 0.930300 0.872467
O11   O     O_2   0.964017 0.628797 0.946498 -0.548644
O12   O     O_R   0.868227 0.464186 0.848520 -0.762955
H10   H     H_    0.977121 0.483993 0.806831 0.337971
C23   C     C_2   0.382871 0.842154 0.673940 0.930939
O13   O     O_2   0.258810 0.850769 0.712164 -0.524869
O14   O     O_R   0.430032 0.757572 0.724924 -0.776137
H11   H     H_    0.351550 0.709900 0.792654 0.339343
C24   C     C_2   0.569624 0.146135 0.651557 0.901372
O15   O     O_2   0.684297 0.132760 0.662750 -0.552023
O16   O     O_R   0.508775 0.230510 0.713279 -0.776442
H12   H     H_    0.570341 0.274533 0.763645 0.342926
C25   C     C_2   0.705419 0.980574 0.412675 0.883583
O17   O     O_2   0.761627 0.936864 0.332148 -0.560029
O18   O     O_R   0.759345 0.115679 0.422465 -0.736881
H13   H     H_    0.842908 0.166086 0.357884 0.350348
C26   C     C_2   0.313571 0.024522 0.460123 0.880869
O19   O     O_2   0.279118 0.074078 0.390968 -0.566832
O20   O     O_R   0.255315 0.888109 0.482739 -0.739260
H14   H     H_    0.187950 0.842136 0.436380 0.332380

loop_
_geom_bond_atom_site_label_1
_geom_bond_atom_site_label_2
_ccdc_geom_bond_type
C14   H1    S    
C5    C8    S    
O16   H12   S    
C6    O6    A    
C23   O14   S    
C20   C23   S    
C5    O5    A    
C2    C18   S    
C9    C11   A    
C21   O9    D    
C18   C25   S    
C9    C21   S    
C19   C20   S    
C12   H3    S    
O10   H9    S    
C19   C24   S    
C10   C22   S    
C13   C15   A    
C1    O1    A    
O18   H13   S    
Cu1   O4    S    
C4    N2    D    
C24   O15   D    
C3    N1    D    
Cu2   O3    S    
C21   O10   S    
H8    N1    S    
C2    O2    A    
C25   O17   D    
C6    C7    S    
Cu1   O8    S    
C10   C12   A    
C8    C11   A    
Cu2   O7    S    
C3    H6    S    
C17   C19   D    
C9    C16   A    
H7    N2    S    
C18   C20   D    
C10   C15   A    
C24   O16   S    
C26   O19   D    
Cu2   O2    S    
Cu1   N2    S    
C14   C16   A    
C7    C12   A    
C25   O18   S    
Cu1   O1    S    
Cu2   N1    S    
O14   H11   S    
Cu2   O6    S    
C8    C13   A    
C22   O11   D    
C6    O8    A    
Cu1   O5    S    
C1    O3    A    
C23   O13   D    
C22   O12   S    
C2    O4    A    
C26   O20   S    
C5    O7    A    
C4    H5    S    
C11   H4    S    
C17   C26   S    
Cu1   Cu2   S    
C1    C17   S    
C7    C14   A    
C3    C4    S    
C15   C16   A    
C13   H2    S    
O20   H14   S    
O12   H10   S    
