data_mof_unit_57311.cif
_audit_creation_date              2012-10-26T19:39:58-0400
_audit_creation_method            fapswitch 2.2
_symmetry_space_group_name_H-M    P1
_symmetry_Int_Tables_number       1
_space_group_crystal_system       triclinic
_cell_length_a                    14.986103
_cell_length_b                    8.658328
_cell_length_c                    7.444263
_cell_angle_alpha                 103.007257
_cell_angle_beta                  93.842527
_cell_angle_gamma                 91.64645
_cell_volume                      938.073232878

loop_
_atom_site_label
_atom_site_type_symbol
_atom_type_description
_atom_site_fract_x
_atom_site_fract_y
_atom_site_fract_z
_atom_type_partial_charge
C1    C     C_R   0.496276 0.199726 0.453336 0.565817
C2    C     C_R   0.184825 0.363943 0.473228 -0.124655
C3    C     C_R   0.766802 0.491718 0.488150 0.013758
C4    C     C_R   0.233198 0.508282 0.511850 0.013758
C5    C     C_R   0.809987 0.346765 0.455404 0.094258
C6    C     C_R   0.190013 0.653235 0.544596 0.094258
C7    C     C_R   0.903655 0.348019 0.439841 0.043410
C8    C     C_R   0.096345 0.651981 0.560159 0.043410
C9    C     C_R   0.952874 0.496724 0.494511 0.018511
C10   C     C_R   0.047126 0.503276 0.505489 0.018511
C11   C     C_R   0.907934 0.639512 0.539099 0.002538
C12   C     C_R   0.503724 0.800274 0.546664 0.565817
C13   C     C_R   0.092066 0.360488 0.460901 0.002538
C14   C     C_R   0.951099 0.208882 0.375882 0.120735
C15   C     C_R   0.048900 0.791118 0.624118 0.120735
C16   C     C_R   0.044202 0.216038 0.395474 -0.067171
C17   C     C_R   0.955798 0.783962 0.604526 -0.067171
C18   C     C_2   0.494529 0.031702 0.427068 -0.107301
C19   C     C_2   0.505471 0.968298 0.572932 -0.107301
C20   C     C_R   0.329245 0.503642 0.503695 0.569098
C21   C     C_R   0.670755 0.496357 0.496305 0.569098
C22   C     C_R   0.815175 0.636057 0.526772 -0.124655
Cu1   Cu    Cu3+1 0.510010 0.517380 0.684380 1.023386
Cu2   Cu    Cu3+1 0.489990 0.482620 0.315620 1.023386
H1    H     H_    0.780193 0.745976 0.557793 0.142364
H2    H     H_    0.219807 0.254024 0.442207 0.142364
H3    H     H_    0.079761 0.108647 0.348962 0.174475
H4    H     H_    0.920238 0.891353 0.651037 0.174475
H5    H     H_    0.484734 0.959924 0.286572 0.148179
H6    H     H_    0.515266 0.040076 0.713428 0.148179
H7    H     H_    0.430408 0.378452 0.948598 0.248628
H8    H     H_    0.569592 0.621548 0.051402 0.248628
I1    I     I_    0.735999 0.143967 0.497833 -0.327238
I2    I     I_    0.264001 0.856032 0.502167 -0.327238
I3    I     I_    0.896918 0.993250 0.197977 -0.315577
I4    I     I_    0.103082 0.006750 0.802023 -0.315578
N1    N     N_2   0.474890 0.456420 0.038520 -0.249611
N2    N     N_2   0.525110 0.543580 0.961480 -0.249611
O1    O     O_R   0.506510 0.286130 0.619770 -0.504284
O2    O     O_R   0.493490 0.713870 0.380230 -0.504284
O3    O     O_R   0.489600 0.256770 0.308360 -0.492094
O4    O     O_R   0.510400 0.743230 0.691640 -0.492094
O5    O     O_R   0.378710 0.514640 0.655720 -0.495475
O6    O     O_R   0.621290 0.485360 0.344280 -0.495475
O7    O     O_R   0.361800 0.485290 0.344300 -0.481751
O8    O     O_R   0.638200 0.514710 0.655700 -0.481751

loop_
_geom_bond_atom_site_label_1
_geom_bond_atom_site_label_2
_ccdc_geom_bond_type
C12   O2    A    
C2    C4    A    
Cu1   Cu2   S    
C8    C10   A    
C15   C17   A    
N1    N2    D    
H8    N2    S    
C21   O6    A    
C9    C10   A    
C11   C22   A    
C20   O7    A    
C6    I2    S    
C16   H3    S    
C12   O4    A    
Cu2   N1    S    
C2    H2    S    
Cu1   O8    S    
Cu2   O3    S    
C9    C11   A    
C1    C18   S    
C19   H6    S    
Cu1   O4    S    
Cu1   O1    S    
Cu2   O7    S    
C12   C19   S    
C1    O3    A    
Cu2   O2    S    
C21   O8    A    
C8    C15   A    
Cu2   O6    S    
C14   C16   A    
C3    C21   S    
C1    O1    A    
C18   H5    S    
Cu1   N2    S    
C7    C9    A    
C15   I4    S    
C20   O5    A    
Cu1   O5    S    
C4    C6    A    
C18   C19   D    
C13   C16   A    
C14   I3    S    
C5    C7    A    
C2    C13   A    
C11   C17   A    
C3    C22   A    
C6    C8    A    
C17   H4    S    
C10   C13   A    
C7    C14   A    
H7    N1    S    
C5    I1    S    
C3    C5    A    
C22   H1    S    
C4    C20   S    
