data_mof_unit_38403.cif
_audit_creation_date              2012-10-26T17:10:27-0400
_audit_creation_method            fapswitch 2.2
_symmetry_space_group_name_H-M    P1
_symmetry_Int_Tables_number       1
_space_group_crystal_system       triclinic
_cell_length_a                    16.852636
_cell_length_b                    16.853513
_cell_length_c                    16.828499
_cell_angle_alpha                 67.414927
_cell_angle_beta                  67.951342
_cell_angle_gamma                 67.580434
_cell_volume                      3930.13919185

loop_
_atom_site_label
_atom_site_type_symbol
_atom_type_description
_atom_site_fract_x
_atom_site_fract_y
_atom_site_fract_z
_atom_type_partial_charge
C1    C     C_R   0.590529 0.042501 0.591204 0.069463
C2    C     C_R   0.169728 0.432709 0.978939 0.563813
C3    C     C_3   0.743507 0.629956 0.223722 -0.381700
C4    C     C_3   0.223261 0.220869 0.114586 0.008767
C5    C     C_3   0.168391 0.154695 0.151262 -0.331184
C6    C     C_R   0.567200 0.021160 0.830117 0.557580
C7    C     C_R   0.433339 0.977047 0.170656 0.553024
C8    C     C_R   0.432843 0.169920 0.978415 0.564790
C9    C     C_R   0.567085 0.829673 0.022419 0.540213
C10   C     C_R   0.971786 0.434919 0.170944 0.552506
C11   C     C_R   0.024640 0.566207 0.829210 0.561813
C12   C     C_R   0.170521 0.976359 0.433710 0.543334
C13   C     C_R   0.830074 0.020911 0.567256 0.567469
C14   C     C_R   0.539661 0.032534 0.542323 -0.031393
C15   C     C_R   0.397374 0.995901 0.399756 0.061258
C16   C     C_R   0.445442 0.008943 0.449456 -0.037261
C17   C     C_R   0.018111 0.547728 0.540854 -0.051907
C18   C     C_R   0.001281 0.452143 0.444771 -0.042667
C19   C     C_R   0.554000 0.552347 0.989575 -0.035896
C20   C     C_R   0.458122 0.459590 0.967421 -0.042740
C21   C     C_R   0.534504 0.946625 0.556136 0.215497
C22   C     C_R   0.439884 0.095632 0.446125 0.210629
C23   C     C_R   0.940540 0.520229 0.567276 0.224131
C24   C     C_R   0.072090 0.491628 0.409858 0.213839
C25   C     C_R   0.467936 0.549391 0.045959 0.218677
C26   C     C_R   0.028076 0.595876 0.592864 0.023544
C27   C     C_R   0.540791 0.468178 0.906817 0.204950
C28   C     C_R   0.494049 0.934070 0.503497 0.204526
C29   C     C_R   0.493565 0.107288 0.486045 0.208702
C30   C     C_R   0.424603 0.495837 0.039919 0.213344
C31   C     C_R   0.592603 0.506756 0.922831 0.216009
C32   C     C_R   0.933759 0.469649 0.521518 0.238517
C33   C     C_R   0.084207 0.533090 0.462069 0.201845
C34   C     C_R   0.552425 0.040969 0.681081 -0.129546
C35   C     C_R   0.437922 0.991609 0.311479 -0.159159
C36   C     C_R   0.032042 0.684410 0.553299 -0.147622
C37   C     C_R   0.991388 0.400415 0.396544 0.040112
C38   C     C_R   0.990319 0.311035 0.436316 -0.134620
C39   C     C_R   0.688425 0.558486 0.016466 -0.143120
C40   C     C_R   0.317824 0.447037 0.960905 -0.146142
C41   C     C_R   0.310567 0.988299 0.440591 -0.130580
C42   C     C_R   0.680855 0.039383 0.552681 -0.145963
C43   C     C_R   0.447077 0.318655 0.959889 -0.147242
C44   C     C_R   0.564519 0.690596 0.004742 -0.138212
C45   C     C_R   0.979205 0.442029 0.311406 -0.144193
C46   C     C_R   0.026421 0.556602 0.683443 -0.149493
C47   C     C_R   0.605984 0.026877 0.734840 -0.021074
C48   C     C_R   0.603247 0.601108 0.003366 0.047403
C49   C     C_R   0.394673 0.972492 0.266494 -0.015422
C50   C     C_R   0.038153 0.732306 0.602205 -0.029805
C51   C     C_R   0.968094 0.266913 0.394619 -0.003121
C52   C     C_R   0.733645 0.603734 0.032035 -0.018706
C53   C     C_R   0.264759 0.393791 0.973540 -0.021607
C54   C     C_R   0.266185 0.970471 0.396013 -0.028531
C55   C     C_R   0.734759 0.026260 0.605987 -0.015525
C56   C     C_R   0.393985 0.265153 0.972692 -0.030670
C57   C     C_R   0.606285 0.734216 0.027071 -0.031056
C58   C     C_R   0.962001 0.397165 0.267267 -0.016388
C59   C     C_R   0.408035 0.408600 0.959220 0.030177
C60   C     C_R   0.035244 0.603391 0.732172 -0.024755
C61   C     C_R   0.698466 0.011328 0.698595 0.243811
C62   C     C_R   0.312519 0.952836 0.312825 0.252472
C63   C     C_R   0.049063 0.688496 0.688541 0.223837
C64   C     C_R   0.943480 0.313912 0.313948 0.226880
C65   C     C_R   0.688488 0.687732 0.047443 0.243311
C66   C     C_R   0.301595 0.301379 0.987768 0.234037
C67   C     C_3   0.548636 0.224379 0.392127 0.001663
C68   C     C_3   0.552415 0.316301 0.382928 -0.370666
C69   C     C_3   0.578857 0.807756 0.461085 -0.001313
C70   C     C_R   0.026269 0.829159 0.565666 0.551579
C71   C     C_3   0.583548 0.711487 0.475496 -0.389462
C72   C     C_3   0.227009 0.495165 0.467159 0.000717
C73   C     C_3   0.307866 0.529592 0.437347 -0.385380
C74   C     C_3   0.794814 0.500538 0.505302 0.000110
C75   C     C_3   0.753550 0.450301 0.480259 -0.374644
C76   C     C_3   0.733779 0.415157 0.889037 0.008452
C77   C     C_3   0.831248 0.414707 0.856239 -0.354798
C78   C     C_3   0.374754 0.404444 0.177943 0.024972
C79   C     C_3   0.328854 0.333936 0.198335 -0.397628
C80   C     C_3   0.304335 0.196015 0.472123 -0.008472
C81   C     C_R   0.974892 0.170877 0.433649 0.567070
C82   C     C_3   0.229875 0.261904 0.429998 -0.378021
C83   C     C_3   0.505835 0.836954 0.688234 0.008995
C84   C     C_3   0.524551 0.810388 0.778199 -0.394730
C85   C     C_3   0.537114 0.500787 0.764378 0.003326
C86   C     C_3   0.573627 0.465451 0.683475 -0.376597
C87   C     C_3   0.352924 0.661151 0.094803 -0.009726
C88   C     C_3   0.324034 0.722736 0.152598 -0.383955
C89   C     C_3   0.141484 0.568655 0.268563 0.013891
C90   C     C_3   0.134450 0.579844 0.176850 -0.359673
C91   C     C_3   0.820053 0.632342 0.607403 -0.010220
C92   C     C_R   0.829419 0.565900 0.025062 0.564532
C93   C     C_3   0.728920 0.648346 0.673288 -0.363652
C94   C     C_3   0.776838 0.882395 0.778006 0.004570
C95   C     C_3   0.837432 0.842740 0.839757 -0.306755
C96   C     C_3   0.287401 0.824423 0.323130 0.009978
C97   C     C_3   0.384799 0.767609 0.306086 -0.414968
C98   C     C_3   0.161260 0.710855 0.713003 0.018912
C99   C     C_3   0.183390 0.755657 0.761970 -0.357410
C100  C     C_3   0.896414 0.249583 0.244527 0.032570
C101  C     C_3   0.836209 0.188471 0.279188 -0.373175
C102  C     C_3   0.689639 0.715381 0.170110 0.007414
Cu1   Cu    Cu3+1 0.995180 0.995180 0.424630 0.882477
Cu2   Cu    Cu3+1 0.004820 0.004820 0.575370 0.951041
Cu3   Cu    Cu3+1 0.995180 0.424630 0.995180 0.888325
Cu4   Cu    Cu3+1 0.004820 0.575370 0.004820 0.910145
Cu5   Cu    Cu3+1 0.424630 0.995180 0.995180 0.929513
Cu6   Cu    Cu3+1 0.575370 0.004820 0.004820 0.941767
H1    H     H_    0.482036 0.045670 0.709944 0.132461
H2    H     H_    0.502052 0.726503 0.987554 0.139967
H3    H     H_    0.209139 0.092396 0.131414 0.193229
H4    H     H_    0.145944 0.137993 0.225334 0.117594
H5    H     H_    0.109261 0.184305 0.124404 0.140695
H6    H     H_    0.981122 0.510557 0.280539 0.141746
H7    H     H_    0.017605 0.490044 0.715692 0.150087
H8    H     H_    0.521461 0.231137 0.338161 0.158793
H9    H     H_    0.617843 0.179150 0.383021 0.108404
H10   H     H_    0.579778 0.312103 0.435505 0.167543
H11   H     H_    0.595959 0.341941 0.316341 0.099622
H12   H     H_    0.484518 0.363526 0.389545 0.151865
H13   H     H_    0.634496 0.806487 0.482500 0.151809
H14   H     H_    0.588170 0.843211 0.388498 0.117556
H15   H     H_    0.503087 0.003083 0.278307 0.123918
H16   H     H_    0.529985 0.709682 0.453487 0.154243
H17   H     H_    0.649148 0.678484 0.436295 0.074938
H18   H     H_    0.575639 0.674345 0.547376 0.140807
H19   H     H_    0.246772 0.436785 0.441292 0.144824
H20   H     H_    0.206341 0.473260 0.541604 0.131267
H21   H     H_    0.289753 0.589264 0.460519 0.149949
H22   H     H_    0.361663 0.476828 0.466195 0.099721
H23   H     H_    0.332685 0.548064 0.363330 0.155533
H24   H     H_    0.820989 0.549841 0.442868 0.091734
H25   H     H_    0.741317 0.538766 0.550751 0.144094
H26   H     H_    0.026525 0.716795 0.485391 0.151694
H27   H     H_    0.734290 0.394521 0.538210 0.170455
H28   H     H_    0.693473 0.496726 0.457982 0.087960
H29   H     H_    0.801732 0.422392 0.424896 0.180226
H30   H     H_    0.724910 0.376206 0.854188 0.199400
H31   H     H_    0.719073 0.380242 0.962102 0.093107
H32   H     H_    0.840601 0.465800 0.875630 0.191384
H33   H     H_    0.872765 0.347822 0.885469 0.080854
H34   H     H_    0.854093 0.428826 0.782701 0.214100
H35   H     H_    0.352525 0.428453 0.237850 0.168770
H36   H     H_    0.448063 0.371417 0.166104 0.111510
H37   H     H_    0.005069 0.276809 0.500464 0.147503
H38   H     H_    0.346925 0.311345 0.138646 0.143356
H39   H     H_    0.350962 0.274928 0.252111 0.159146
H40   H     H_    0.255389 0.361367 0.219483 0.170440
H41   H     H_    0.319414 0.229730 0.507915 0.170223
H42   H     H_    0.279066 0.138430 0.521597 0.113564
H43   H     H_    0.214197 0.231010 0.392098 0.158107
H44   H     H_    0.169144 0.281386 0.482944 0.100407
H45   H     H_    0.250180 0.322896 0.384401 0.177146
H46   H     H_    0.507949 0.775734 0.676147 0.167346
H47   H     H_    0.436778 0.882856 0.693442 0.121469
H48   H     H_    0.719869 0.490133 0.014128 0.147508
H49   H     H_    0.518216 0.870735 0.794474 0.164974
H50   H     H_    0.475818 0.775429 0.831257 0.084188
H51   H     H_    0.592653 0.765039 0.777274 0.152872
H52   H     H_    0.556000 0.563514 0.745246 0.126827
H53   H     H_    0.463121 0.516300 0.783974 0.122937
H54   H     H_    0.550700 0.406196 0.698930 0.162516
H55   H     H_    0.550410 0.517936 0.626054 0.079887
H56   H     H_    0.647411 0.445507 0.665714 0.183434
H57   H     H_    0.297697 0.632617 0.111630 0.174168
H58   H     H_    0.364258 0.702059 0.023501 0.099424
H59   H     H_    0.288457 0.517572 0.956519 0.143187
H60   H     H_    0.376128 0.756459 0.133850 0.178622
H61   H     H_    0.260913 0.774329 0.142526 0.096332
H62   H     H_    0.313251 0.683405 0.223984 0.151200
H63   H     H_    0.208757 0.571490 0.261074 0.185811
H64   H     H_    0.091228 0.627058 0.291607 0.128067
H65   H     H_    0.064177 0.594990 0.178237 0.138078
H66   H     H_    0.158164 0.637563 0.127036 0.076554
H67   H     H_    0.174063 0.518573 0.154923 0.215070
H68   H     H_    0.810211 0.647502 0.540566 0.097224
H69   H     H_    0.853183 0.679880 0.603615 0.138406
H70   H     H_    0.277645 0.997155 0.506847 0.127895
H71   H     H_    0.735539 0.642973 0.738511 0.189008
H72   H     H_    0.687588 0.716178 0.646710 0.135088
H73   H     H_    0.695900 0.598448 0.682754 0.182501
H74   H     H_    0.813167 0.857622 0.717714 0.122274
H75   H     H_    0.716317 0.857872 0.813878 0.118035
H76   H     H_    0.802638 0.864746 0.901493 0.181807
H77   H     H_    0.855672 0.768571 0.858315 0.138635
H78   H     H_    0.899218 0.864740 0.805568 0.185027
H79   H     H_    0.250088 0.800116 0.299570 0.153816
H80   H     H_    0.256357 0.813575 0.396287 0.121172
H81   H     H_    0.709707 0.042732 0.482472 0.115542
H82   H     H_    0.420061 0.778277 0.343555 0.129705
H83   H     H_    0.387677 0.695642 0.329137 0.102544
H84   H     H_    0.419621 0.785662 0.233892 0.164787
H85   H     H_    0.191282 0.736233 0.640006 0.119669
H86   H     H_    0.191686 0.637327 0.735701 0.117445
H87   H     H_    0.155367 0.730725 0.835171 0.155304
H88   H     H_    0.256816 0.740203 0.747143 0.080501
H89   H     H_    0.154888 0.829296 0.739994 0.156705
H90   H     H_    0.967396 0.209304 0.232425 0.137791
H91   H     H_    0.883549 0.295044 0.179909 0.166249
H92   H     H_    0.517392 0.289283 0.956140 0.164687
H93   H     H_    0.766352 0.229246 0.280446 0.128405
H94   H     H_    0.858149 0.145200 0.234764 0.071642
H95   H     H_    0.838029 0.145700 0.347803 0.204037
H96   H     H_    0.618047 0.716085 0.193374 0.105939
H97   H     H_    0.691966 0.772989 0.185139 0.147115
H98   H     H_    0.814376 0.629951 0.202252 0.173633
H99   H     H_    0.716585 0.625972 0.295878 0.081006
H100  H     H_    0.739303 0.570237 0.214131 0.147543
H101  H     H_    0.182423 0.280341 0.139914 0.121181
H102  H     H_    0.283444 0.188004 0.140486 0.113244
O1    O     O_R   0.124540 0.978640 0.385460 -0.472374
O2    O     O_R   0.124540 0.385460 0.978640 -0.448464
O3    O     O_R   0.021360 0.875460 0.614540 -0.460790
O4    O     O_R   0.978640 0.124540 0.385460 -0.516978
O5    O     O_R   0.013780 0.867370 0.487190 -0.532285
O6    O     O_R   0.986220 0.132630 0.512810 -0.517246
O7    O     O_R   0.867370 0.487190 0.013780 -0.545021
O8    O     O_R   0.132630 0.512810 0.986220 -0.535396
O9    O     O_R   0.487190 0.013780 0.867370 -0.537899
O10   O     O_R   0.512810 0.986220 0.132630 -0.537961
O11   O     O_R   0.512810 0.132630 0.986220 -0.530048
O12   O     O_R   0.875460 0.021360 0.614540 -0.445972
O13   O     O_R   0.487190 0.867370 0.013780 -0.541771
O14   O     O_R   0.986220 0.512810 0.132630 -0.537168
O15   O     O_R   0.013780 0.487190 0.867370 -0.531161
O16   O     O_R   0.132630 0.986220 0.512810 -0.533568
O17   O     O_R   0.867370 0.013780 0.487190 -0.544270
O18   O     O_3   0.494020 0.192102 0.477450 -0.548514
O19   O     O_3   0.494992 0.849067 0.510953 -0.558200
O20   O     O_3   0.158099 0.564300 0.433127 -0.570503
O21   O     O_3   0.859451 0.438691 0.551011 -0.523133
O22   O     O_3   0.679039 0.504486 0.870263 -0.555521
O23   O     O_R   0.978640 0.385460 0.124540 -0.524947
O24   O     O_3   0.349424 0.477763 0.106109 -0.576027
O25   O     O_3   0.380845 0.168693 0.404967 -0.566753
O26   O     O_3   0.572198 0.875283 0.619496 -0.569446
O27   O     O_3   0.573382 0.435138 0.833848 -0.554481
O28   O     O_3   0.430197 0.592406 0.112406 -0.549441
O29   O     O_3   0.130994 0.484115 0.327275 -0.575222
O30   O     O_3   0.869989 0.543049 0.637625 -0.542387
O31   O     O_3   0.754027 0.976909 0.754389 -0.518677
O32   O     O_3   0.278512 0.916242 0.276072 -0.535511
O33   O     O_3   0.067756 0.731187 0.732353 -0.528694
O34   O     O_R   0.021360 0.614540 0.875460 -0.458756
O35   O     O_3   0.871303 0.300004 0.304873 -0.568509
O36   O     O_3   0.727513 0.726236 0.077071 -0.532113
O37   O     O_3   0.246800 0.245690 0.020097 -0.514589
O38   O     O_R   0.385460 0.124540 0.978640 -0.451164
O39   O     O_R   0.614540 0.875460 0.021360 -0.468908
O40   O     O_R   0.614540 0.021360 0.875460 -0.448652
O41   O     O_R   0.385460 0.978640 0.124540 -0.464804
O42   O     O_R   0.875460 0.614540 0.021360 -0.458214

loop_
_geom_bond_atom_site_label_1
_geom_bond_atom_site_label_2
_ccdc_geom_bond_type
C16   C28   A    
C89   H63   S    
C87   C88   S    
C73   H23   S    
Cu6   O11   S    
C22   C29   A    
C74   H24   S    
C85   H53   S    
C47   C61   A    
C89   O29   S    
C43   C56   A    
C102  O36   S    
C77   H32   S    
C13   O12   A    
C65   O36   S    
C19   C31   A    
C8    C56   S    
C93   H71   S    
C95   H78   S    
C4    O37   S    
C83   H46   S    
C20   C30   A    
C85   C86   S    
C80   H42   S    
C90   H65   S    
C95   H77   S    
C17   C23   A    
Cu3   O2    S    
C72   O20   S    
C46   H7    S    
C72   H20   S    
C60   C63   A    
C18   C24   A    
C17   C26   S    
C25   O28   S    
C14   C21   A    
C10   C58   S    
C18   C37   S    
Cu2   O3    S    
C69   O19   S    
C101  H94   S    
C68   H11   S    
C75   H27   S    
C95   H76   S    
C87   H58   S    
C83   H47   S    
C10   O14   A    
Cu1   O17   S    
C15   C16   S    
C74   H25   S    
C99   H87   S    
C4    H102  S    
C98   H86   S    
C55   C61   A    
Cu4   O42   S    
C69   C71   S    
C102  H96   S    
C77   H34   S    
C40   H59   S    
C100  O35   S    
C68   H10   S    
C82   H45   S    
C93   H73   S    
C45   H6    S    
C93   H72   S    
C97   H84   S    
Cu4   O14   S    
C64   O35   S    
C81   O4    A    
C88   H60   S    
C91   O30   S    
C35   C49   A    
Cu5   Cu6   S    
C71   H18   S    
C43   H92   S    
C86   H54   S    
C85   H52   S    
Cu3   O15   S    
C89   H64   S    
C51   C81   S    
C85   O27   S    
C82   H43   S    
C43   C59   A    
C5    H5    S    
C39   C52   A    
C32   O21   S    
C40   C59   A    
C31   O22   S    
C58   C64   A    
C11   O34   A    
C70   O3    A    
C96   H79   S    
C82   H44   S    
C92   O7    A    
C17   C33   A    
Cu2   O12   S    
C84   H51   S    
C1    C34   A    
C62   O32   S    
C79   H38   S    
Cu5   O13   S    
C66   O37   S    
C92   O42   A    
C61   O31   S    
C80   H41   S    
C73   H21   S    
C45   C58   A    
C88   H62   S    
C6    C47   S    
C6    O40   A    
C72   H19   S    
C27   C31   A    
C67   C68   S    
C41   H70   S    
C76   C77   S    
C7    C49   S    
C80   C82   S    
C74   C75   S    
Cu1   O1    S    
C84   H50   S    
C19   C48   S    
C4    C5    S    
C79   H39   S    
C38   C51   A    
C54   C62   A    
C96   H80   S    
C99   H88   S    
C4    H101  S    
C6    O9    A    
C98   H85   S    
Cu6   O40   S    
Cu6   O10   S    
C9    O39   A    
C67   H8    S    
C67   O18   S    
C38   H37   S    
C76   O22   S    
C37   C38   A    
C78   H36   S    
C42   C55   A    
C91   C93   S    
C9    O13   A    
C12   O16   A    
C83   C84   S    
C69   H13   S    
C44   C57   A    
C78   O24   S    
C63   O33   S    
C96   C97   S    
C99   H89   S    
C80   O25   S    
C81   O6    A    
C30   O24   S    
C20   C59   S    
C53   C66   A    
C67   H9    S    
Cu1   O4    S    
Cu2   O6    S    
C98   O33   S    
C24   O29   S    
Cu5   O9    S    
C7    O10   A    
C3    C102  S    
C26   C36   A    
C97   H82   S    
Cu4   O8    S    
C21   C28   A    
C96   O32   S    
Cu3   O7    S    
C90   H67   S    
C75   H29   S    
C71   H16   S    
C52   C92   S    
C18   C32   A    
C94   H75   S    
C3    H100  S    
C14   C29   A    
C70   O5    A    
C11   C60   S    
Cu1   O5    S    
C36   C50   A    
C11   O15   A    
C27   O27   S    
C2    O8    A    
C76   H31   S    
C25   C30   A    
C73   H22   S    
C10   O23   A    
C16   C22   A    
C88   H61   S    
C46   C60   A    
C75   H28   S    
C3    H98   S    
Cu3   O23   S    
C94   O31   S    
C100  H90   S    
C51   C64   A    
C12   O1    A    
Cu4   O34   S    
C72   C73   S    
C86   H55   S    
C2    C53   S    
C36   H26   S    
C13   O17   A    
C84   H49   S    
C40   C53   A    
Cu2   O16   S    
C79   H40   S    
C1    C14   S    
C20   C27   A    
C76   H30   S    
C5    H4    S    
C5    H3    S    
Cu3   Cu4   S    
C90   H66   S    
C2    O2    A    
C24   C33   A    
Cu5   O41   S    
C39   H48   S    
C74   O21   S    
C3    H99   S    
C23   C32   A    
C35   H15   S    
C50   C70   S    
C101  H93   S    
C78   H35   S    
C68   H12   S    
C23   O30   S    
C78   C79   S    
C42   H81   S    
C87   H57   S    
C69   H14   S    
C56   C66   A    
C91   H69   S    
C100  C101  S    
C91   H68   S    
Cu6   O39   S    
C9    C57   S    
C50   C63   A    
C94   C95   S    
C19   C25   A    
C102  H97   S    
C77   H33   S    
C41   C54   A    
C15   C35   A    
C26   C46   A    
C15   C41   A    
C22   O25   S    
C21   O26   S    
C100  H91   S    
Cu5   O38   S    
C1    C42   A    
C97   H83   S    
C52   C65   A    
C86   H56   S    
C83   O26   S    
C8    O38   A    
C98   C99   S    
C7    O41   A    
Cu1   Cu2   S    
C87   O28   S    
C34   H1    S    
C71   H17   S    
C49   C62   A    
C34   C47   A    
C94   H74   S    
C29   O18   S    
C13   C55   S    
C89   C90   S    
C37   C45   A    
C28   O19   S    
C12   C54   S    
C8    O11   A    
C44   C48   A    
C33   O20   S    
C101  H95   S    
C39   C48   A    
C57   C65   A    
C44   H2    S    
