data_mof_unit_9307.cif
_audit_creation_date              2012-12-11T16:37:08-0500
_audit_creation_method            fapswitch 2.2
_symmetry_space_group_name_H-M    P1
_symmetry_Int_Tables_number       1
_space_group_crystal_system       triclinic
_cell_length_a                    18.852234
_cell_length_b                    18.846161
_cell_length_c                    20.494479
_cell_angle_alpha                 107.798539
_cell_angle_beta                  106.656023
_cell_angle_gamma                 109.969031
_cell_volume                      5861.24109064

loop_
_atom_site_label
_atom_site_type_symbol
_atom_type_description
_atom_site_fract_x
_atom_site_fract_y
_atom_site_fract_z
_atom_type_partial_charge
C1    C     C_R   0.033306 0.088619 0.348116 -0.114989
C2    C     C_R   0.237607 0.071892 0.495422 -0.118200
C3    C     C_3   0.365140 0.245979 0.037388 0.169663
C4    C     C_3   0.345970 0.265831 0.106420 -0.254361
C5    C     C_3   0.356819 0.209912 0.144687 -1.027339
C6    C     C_3   0.110667 0.146097 0.937752 0.176054
C7    C     C_3   0.083688 0.212857 0.931308 -0.354836
C8    C     C_3   0.141808 0.297995 0.001449 -0.959521
C9    C     C_3   0.979451 0.234917 0.291683 0.137939
C10   C     C_3   0.050251 0.323700 0.349010 -0.220346
C11   C     C_3   0.016329 0.382515 0.379946 -1.057671
C12   C     C_3   0.690534 0.878387 0.990597 0.168397
C13   C     C_R   0.158913 0.181723 0.718735 -0.219206
C14   C     C_3   0.624963 0.793681 0.922119 -0.241617
C15   C     C_3   0.537833 0.787664 0.896636 -1.026757
C16   C     C_3   0.350539 0.299502 0.666710 0.124179
C17   C     C_3   0.310383 0.327209 0.609717 -0.312518
C18   C     C_3   0.364092 0.420518 0.633748 -1.007585
C19   C     C_R   0.755008 0.931862 0.459545 -0.162622
C20   C     C_R   0.050768 0.804149 0.477393 -0.110262
C21   C     C_R   0.240938 0.204928 0.729155 -0.041684
C22   C     C_R   0.033958 0.775235 0.528151 0.125179
C23   C     C_R   0.243753 0.002496 0.454991 -0.163736
C24   C     C_R   0.946581 0.981923 0.717963 -0.004840
C25   C     C_R   0.031705 0.490073 0.606508 -0.293672
C26   C     C_R   0.008380 0.404712 0.582295 0.547831
C27   C     C_R   0.746950 0.005066 0.472370 0.048071
C28   C     C_R   0.065581 0.375458 0.570308 -0.032401
C29   C     C_R   0.145708 0.433033 0.585191 -0.236926
C30   C     C_R   0.167963 0.518126 0.608875 -0.184573
C31   C     C_R   0.844936 0.781114 0.286564 0.501589
C32   C     C_R   0.109862 0.546480 0.616945 0.209469
C33   C     C_R   0.128238 0.632160 0.549455 -0.413479
C34   C     C_R   0.103350 0.682680 0.522121 0.532547
C35   C     C_R   0.074143 0.732343 0.562198 -0.245547
C36   C     C_R   0.080570 0.737720 0.634116 0.325217
C37   C     C_R   0.096725 0.679204 0.656935 0.403330
C38   C     C_R   0.765285 0.736609 0.281743 -0.063204
C39   C     C_R   0.118383 0.624744 0.612422 -0.102948
C40   C     C_R   0.524351 0.941844 0.347832 -0.182165
C41   C     C_R   0.600754 0.940898 0.372501 -0.165790
C42   C     C_R   0.670982 0.010960 0.436597 0.140977
C43   C     C_R   0.996130 0.233583 0.566376 -0.117808
C44   C     C_R   0.666313 0.085492 0.469217 -0.182554
C45   C     C_R   0.590104 0.086376 0.444571 -0.162858
C46   C     C_R   0.517524 0.012571 0.387463 0.115866
C47   C     C_R   0.416401 0.068937 0.394212 -0.182836
C48   C     C_R   0.352424 0.068844 0.415417 -0.171104
C49   C     C_R   0.042117 0.285668 0.543139 0.078993
C50   C     C_R   0.308218 0.002332 0.428800 0.171986
C51   C     C_R   0.325556 0.934206 0.417063 -0.137732
C52   C     C_R   0.388522 0.933834 0.395268 -0.197265
C53   C     C_R   0.436460 0.002524 0.386278 0.123556
C54   C     C_R   0.311711 0.231413 0.802029 0.060271
C55   C     C_R   0.767089 0.777332 0.350967 -0.188465
C56   C     C_R   0.299669 0.245498 0.868645 -0.311912
C57   C     C_R   0.366045 0.277404 0.938958 0.486108
C58   C     C_R   0.447938 0.304150 0.944667 -0.076966
C59   C     C_R   0.460194 0.283421 0.878424 0.510494
C60   C     C_R   0.238396 0.191410 0.656889 0.553735
C61   C     C_R   0.391227 0.243505 0.807019 -0.376980
C62   C     C_R   0.620081 0.504618 0.156863 -0.362480
C63   C     C_R   0.683824 0.579871 0.221004 0.561543
C64   C     C_R   0.569269 0.507895 0.093552 0.208350
C65   C     C_R   0.694611 0.657349 0.220814 -0.002372
C66   C     C_R   0.640514 0.659994 0.159778 -0.296073
C67   C     C_R   0.073694 0.241394 0.502985 -0.192480
C68   C     C_R   0.578194 0.585545 0.096553 -0.188313
C69   C     C_R   0.928735 0.030420 0.208302 -0.063177
C70   C     C_R   0.862231 0.956472 0.144144 -0.405270
C71   C     C_R   0.972365 0.794644 0.540466 -0.131620
C72   C     C_R   0.828426 0.956406 0.074069 0.562725
C73   C     C_R   0.863855 0.031690 0.067248 0.013297
C74   C     C_R   0.919144 0.107178 0.132909 -0.413058
C75   C     C_R   0.951371 0.108143 0.203825 0.555738
C76   C     C_R   0.949529 0.021437 0.909890 -0.380122
C77   C     C_R   0.977877 0.026889 0.854299 0.559466
C78   C     C_R   0.864135 0.972380 0.889144 0.218719
C79   C     C_R   0.825205 0.072496 0.524422 -0.132017
C80   C     C_R   0.918891 0.979266 0.777337 0.030054
C81   C     C_R   0.833712 0.929916 0.756983 -0.206808
C82   C     C_R   0.168788 0.932807 0.431723 0.504779
C83   C     C_R   0.806704 0.925675 0.812726 -0.208919
C84   C     C_R   0.962054 0.948814 0.282920 -0.200999
C85   C     C_R   0.974480 0.023466 0.276586 0.128491
C86   C     C_3   0.117867 0.856603 0.301963 0.186801
C87   C     C_3   0.131074 0.789880 0.249298 -0.274689
C88   C     C_3   0.136178 0.805058 0.181417 -1.006012
C89   C     C_3   0.792992 0.801658 0.556324 0.132441
C90   C     C_3   0.723324 0.719856 0.543173 -0.246926
C91   C     C_3   0.649059 0.678472 0.465293 -1.024338
C92   C     C_3   0.872266 0.305298 0.496345 0.174016
C93   C     C_R   0.989196 0.054294 0.712781 -0.199528
C94   C     C_3   0.829800 0.355028 0.471548 -0.316753
C95   C     C_3   0.754196 0.298746 0.393810 -1.001563
C96   C     C_3   0.046236 0.615050 0.392151 0.166972
C97   C     C_3   0.052626 0.626753 0.323076 -0.233661
C98   C     C_3   0.988017 0.548689 0.248264 -1.071877
C99   C     C_3   0.146914 0.873054 0.725493 0.165781
C100  C     C_3   0.132257 0.946088 0.764868 -0.210961
C101  C     C_3   0.214793 0.027210 0.817273 -1.009478
C102  C     C_3   0.020842 0.662249 0.727611 0.247404
C103  C     C_3   0.034676 0.728006 0.802390 -0.240758
C104  C     C_R   0.919347 0.915183 0.648972 0.487089
C105  C     C_3   0.951668 0.715398 0.805799 -1.000043
C106  C     C_3   0.827516 0.695517 0.166771 0.199946
C107  C     C_3   0.875146 0.685446 0.118229 -0.297050
C108  C     C_3   0.903717 0.758729 0.098198 -0.884425
C109  C     C_3   0.780251 0.538046 0.270067 0.181052
C110  C     C_3   0.757099 0.462593 0.288199 -0.267116
C111  C     C_3   0.808132 0.416936 0.273492 -1.049532
C112  C     C_3   0.567091 0.378934 0.869332 0.205126
C113  C     C_3   0.593011 0.358705 0.804539 -0.280692
C114  C     C_3   0.621455 0.433142 0.785983 -1.034191
H1    H     H_    0.057231 0.155246 0.366661 0.157731
H2    H     H_    0.452986 0.122645 0.387826 0.118442
H3    H     H_    0.342632 0.226043 0.194607 0.274902
H4    H     H_    0.422395 0.219978 0.164613 0.269189
H5    H     H_    0.976263 0.252667 0.610347 0.138760
H6    H     H_    0.176426 0.169977 0.945261 0.147091
H7    H     H_    0.113042 0.138640 0.989797 0.097626
H8    H     H_    0.085705 0.220529 0.880162 0.198827
H9    H     H_    0.018589 0.192666 0.925425 0.198843
H10   H     H_    0.140983 0.292217 0.053604 0.260623
H11   H     H_    0.120400 0.344752 0.995664 0.268628
H12   H     H_    0.207010 0.321288 0.007209 0.289427
H13   H     H_    0.404060 0.882907 0.391603 0.125006
H14   H     H_    0.945310 0.165084 0.127860 0.176556
H15   H     H_    0.943413 0.208138 0.320461 0.102052
H16   H     H_    0.937088 0.240254 0.244839 0.108298
H17   H     H_    0.092779 0.320675 0.397130 0.191212
H18   H     H_    0.087294 0.350083 0.320892 0.202411
H19   H     H_    0.977028 0.389986 0.333198 0.270929
H20   H     H_    0.069547 0.445323 0.422975 0.269400
H21   H     H_    0.978338 0.357296 0.407659 0.268898
H22   H     H_    0.691615 0.929902 0.974305 0.103056
H23   H     H_    0.672298 0.885209 0.038483 0.092304
H24   H     H_    0.610101 0.444451 0.156543 0.147798
H25   H     H_    0.642643 0.786087 0.874058 0.203280
H26   H     H_    0.623273 0.741594 0.937446 0.199175
H27   H     H_    0.518254 0.793630 0.943433 0.269463
H28   H     H_    0.491832 0.725483 0.846909 0.274198
H29   H     H_    0.537688 0.838271 0.879687 0.270269
H30   H     H_    0.918250 0.886181 0.239123 0.154651
H31   H     H_    0.415224 0.315093 0.672911 0.148239
H32   H     H_    0.356963 0.336258 0.724201 0.100086
H33   H     H_    0.302592 0.288920 0.552339 0.200534
H34   H     H_    0.247624 0.316720 0.606483 0.189642
H35   H     H_    0.402078 0.227444 0.756900 0.197688
H36   H     H_    0.369865 0.460115 0.689717 0.269819
H37   H     H_    0.334371 0.438390 0.590716 0.264225
H38   H     H_    0.427638 0.432931 0.637972 0.269797
H39   H     H_    0.537802 0.588222 0.048668 0.135463
H40   H     H_    0.239577 0.235007 0.868182 0.157222
H41   H     H_    0.992934 0.051351 0.969317 0.147808
H42   H     H_    0.787858 0.894908 0.697931 0.159864
H43   H     H_    0.741236 0.886316 0.796528 0.134712
H44   H     H_    0.837907 0.896891 0.146415 0.165622
H45   H     H_    0.004463 0.117382 0.750136 0.123980
H46   H     H_    0.720599 0.753055 0.370125 0.135228
H47   H     H_    0.123034 0.267636 0.487323 0.094984
H48   H     H_    0.842330 0.138652 0.546335 0.097678
H49   H     H_    0.944559 0.780524 0.576944 0.194709
H50   H     H_    0.156395 0.919362 0.306432 0.100094
H51   H     H_    0.051067 0.841789 0.275973 0.152313
H52   H     H_    0.190323 0.791052 0.281399 0.214315
H53   H     H_    0.078712 0.726195 0.228423 0.190581
H54   H     H_    0.079189 0.806936 0.149103 0.273789
H55   H     H_    0.141657 0.753217 0.142893 0.270766
H56   H     H_    0.135659 0.183706 0.760988 0.140375
H57   H     H_    0.192189 0.865786 0.201223 0.273234
H58   H     H_    0.811303 0.787375 0.509014 0.129721
H59   H     H_    0.767958 0.847415 0.556709 0.097701
H60   H     H_    0.748285 0.674917 0.546984 0.209027
H61   H     H_    0.701506 0.733846 0.588270 0.196985
H62   H     H_    0.625423 0.723499 0.458373 0.262444
H63   H     H_    0.597595 0.622573 0.459906 0.274948
H64   H     H_    0.667933 0.656995 0.419396 0.282997
H65   H     H_    0.277104 0.136247 0.508696 0.160201
H66   H     H_    0.098588 0.804807 0.458968 0.200876
H67   H     H_    0.985205 0.510435 0.610042 0.119935
H68   H     H_    0.823632 0.246665 0.490169 0.136484
H69   H     H_    0.899803 0.284363 0.457626 0.077886
H70   H     H_    0.808615 0.381244 0.514111 0.213472
H71   H     H_    0.875359 0.408296 0.468277 0.189958
H72   H     H_    0.773718 0.270906 0.350475 0.263775
H73   H     H_    0.725978 0.336796 0.376388 0.272427
H74   H     H_    0.706006 0.247042 0.396495 0.270286
H75   H     H_    0.705972 0.867879 0.422868 0.101016
H76   H     H_    0.228209 0.560824 0.615654 0.139107
H77   H     H_    0.984350 0.607767 0.390140 0.090386
H78   H     H_    0.190662 0.412166 0.577195 0.152572
H79   H     H_    0.051013 0.557174 0.389700 0.114536
H80   H     H_    0.042801 0.681537 0.322786 0.227126
H81   H     H_    0.116452 0.640258 0.327425 0.210793
H82   H     H_    0.994301 0.492133 0.248080 0.280739
H83   H     H_    0.998002 0.558432 0.200196 0.272648
H84   H     H_    0.923732 0.537828 0.239554 0.273315
H85   H     H_    0.178133 0.890128 0.689774 0.103521
H86   H     H_    0.189094 0.864315 0.769457 0.124437
H87   H     H_    0.093098 0.956879 0.720903 0.205765
H88   H     H_    0.098282 0.929880 0.798714 0.219693
H89   H     H_    0.147926 0.592512 0.516685 0.172564
H90   H     H_    0.254991 0.018698 0.862599 0.256052
H91   H     H_    0.201600 0.078663 0.844572 0.291619
H92   H     H_    0.248837 0.045749 0.784207 0.271446
H93   H     H_    0.993707 0.599230 0.726472 0.098414
H94   H     H_    0.973229 0.659886 0.678547 0.096202
H95   H     H_    0.074221 0.723070 0.851013 0.192927
H96   H     H_    0.068278 0.792434 0.808327 0.221848
H97   H     H_    0.912336 0.722913 0.759067 0.283963
H98   H     H_    0.964066 0.763355 0.861085 0.274850
H99   H     H_    0.917018 0.651533 0.800738 0.262500
H100  H     H_    0.603301 0.883727 0.344066 0.114434
H101  H     H_    0.469056 0.884726 0.302645 0.119541
H102  H     H_    0.782061 0.716173 0.142220 0.096032
H103  H     H_    0.793950 0.632244 0.163023 0.064540
H104  H     H_    0.930149 0.679060 0.148314 0.210431
H105  H     H_    0.832831 0.626378 0.064137 0.156166
H106  H     H_    0.849858 0.768149 0.070911 0.264780
H107  H     H_    0.930702 0.744367 0.057356 0.249490
H108  H     H_    0.952635 0.817673 0.149821 0.258124
H109  H     H_    0.338757 0.121285 0.422674 0.112486
H110  H     H_    0.292735 0.882705 0.427847 0.150868
H111  H     H_    0.719359 0.141175 0.517912 0.114600
H112  H     H_    0.847387 0.583953 0.308090 0.132020
H113  H     H_    0.773838 0.516861 0.210497 0.072586
H114  H     H_    0.768696 0.484726 0.348948 0.206560
H115  H     H_    0.689358 0.417375 0.252274 0.195906
H116  H     H_    0.800366 0.397196 0.213905 0.276684
H117  H     H_    0.786118 0.359637 0.282351 0.282160
H118  H     H_    0.875533 0.458554 0.313427 0.268984
H119  H     H_    0.622491 0.432408 0.921690 0.119176
H120  H     H_    0.519314 0.401074 0.854864 0.070946
H121  H     H_    0.645150 0.343086 0.821126 0.212868
H122  H     H_    0.586510 0.141719 0.476244 0.120602
H123  H     H_    0.539096 0.302898 0.752775 0.197013
H124  H     H_    0.569499 0.448475 0.767418 0.264847
H125  H     H_    0.640229 0.416579 0.739104 0.276252
H126  H     H_    0.676097 0.489505 0.836727 0.272915
H127  H     H_    0.648500 0.719897 0.160182 0.150031
H128  H     H_    0.431490 0.257883 0.057080 0.111109
H129  H     H_    0.322583 0.178014 0.996319 0.094575
H130  H     H_    0.388891 0.333159 0.148271 0.211472
H131  H     H_    0.280409 0.255736 0.088190 0.196531
H132  H     H_    0.313202 0.142328 0.104210 0.269854
N1    N     N_R   0.051550 0.054780 0.395070 -0.057725
N2    N     N_2   0.506000 0.435101 0.026467 -0.062441
N3    N     N_2   0.863509 0.033358 0.998527 -0.073298
N4    N     N_R   0.835860 0.954800 0.499920 -0.051902
N5    N     N_2   0.838873 0.963320 0.945702 -0.039322
N6    N     N_R   0.889940 0.849160 0.355180 -0.076269
N7    N     N_R   0.997480 0.160420 0.539810 -0.043176
N8    N     N_R   0.842280 0.845520 0.395070 -0.072466
N9    N     N_R   0.045130 0.164060 0.499920 -0.040638
N10   N     N_R   0.878630 0.041580 0.539810 -0.037257
N11   N     N_R   0.008780 0.968000 0.355180 -0.047771
N12   N     N_R   0.954870 0.835940 0.500080 -0.063400
N13   N     N_R   0.157720 0.154480 0.604930 -0.091964
N14   N     N_R   0.121370 0.958420 0.460190 -0.095352
N15   N     N_R   0.991220 0.032000 0.644820 -0.066061
N16   N     N_R   0.948450 0.945220 0.604930 -0.110982
N17   N     N_R   0.164140 0.045200 0.500080 -0.069121
N18   N     N_R   0.110060 0.150840 0.644820 -0.064635
N19   N     N_R   0.002520 0.839580 0.460190 -0.048111
N20   N     N_2   0.515493 0.370695 0.013603 -0.060549
Ni1   Ni    Ni4+2 0.103690 0.103690 0.500000 0.199154
Ni2   Ni    Ni4+2 0.896310 0.896310 0.500000 0.197409
Ni3   Ni    Ni4+2 0.005600 0.904650 0.408510 0.253426
Ni4   Ni    Ni4+2 0.994400 0.095350 0.591490 0.195335
O1    O     O_3   0.137062 0.853599 0.372801 -0.698842
O2    O     O_3   0.352240 0.298023 0.003334 -0.655203
O3    O     O_3   0.062511 0.068291 0.870669 -0.678910
O4    O     O_3   0.014651 0.183686 0.264654 -0.676858
O5    O     O_3   0.769432 0.880081 0.011610 -0.657763
O6    O     O_3   0.305906 0.211054 0.639612 -0.694304
O7    O     O_3   0.861748 0.832995 0.626540 -0.677779
O8    O     O_3   0.930813 0.351944 0.574102 -0.682440
O9    O     O_3   0.112619 0.686705 0.458667 -0.661285
O10   O     O_3   0.069087 0.798660 0.681216 -0.657324
O11   O     O_3   0.099237 0.679236 0.725371 -0.651279
O12   O     O_3   0.884016 0.753235 0.243503 -0.671234
O13   O     O_3   0.732538 0.579247 0.285747 -0.666954
O14   O     O_3   0.540627 0.307899 0.884131 -0.648935

loop_
_geom_bond_atom_site_label_1
_geom_bond_atom_site_label_2
_ccdc_geom_bond_type
C66   C68   A    
C59   O14   S    
C63   C65   A    
C111  H118  S    
C23   C82   A    
C72   O5    S    
C111  H117  S    
C73   C74   A    
C35   C36   A    
C45   H122  S    
C89   H59   S    
C5    H132  S    
C34   O9    S    
N12   Ni2   S    
C103  H95   S    
C97   C98   S    
C109  H113  S    
C63   O13   S    
C7    C8    S    
C20   H66   S    
C102  C103  S    
C9    H16   S    
C44   C45   A    
C71   N12   A    
C40   C46   A    
C22   C35   S    
N8    Ni2   S    
C108  H107  S    
C33   C39   A    
C81   H42   S    
C71   H49   S    
C64   C68   A    
C60   N13   A    
C114  H126  S    
C28   C29   A    
C17   H33   S    
C8    H10   S    
C76   C78   A    
C86   O1    S    
C27   C79   A    
C11   H19   S    
N16   Ni2   S    
C21   C54   S    
C109  O13   S    
N6    Ni3   S    
C92   O8    S    
C87   H52   S    
N2    N20   D    
C106  C107  S    
C84   H30   S    
C112  H119  S    
C107  H104  S    
C91   H64   S    
C55   H46   S    
C102  H93   S    
C56   C57   A    
C12   O5    S    
C99   O10   S    
C16   H32   S    
C34   C35   A    
C41   C42   A    
C32   C39   S    
N14   Ni3   S    
C93   H45   S    
C6    O3    S    
N19   Ni3   S    
C110  C111  S    
C36   O10   S    
C62   C64   A    
N1    N11   A    
C15   H27   S    
C74   H14   S    
C100  H88   S    
C78   C83   A    
C24   C80   S    
C87   H53   S    
C38   C55   A    
C2    N17   A    
C16   C17   S    
C88   H54   S    
C64   N2    S    
C99   H86   S    
C91   H62   S    
C107  C108  S    
C94   H71   S    
C18   H37   S    
C29   C30   A    
C19   C27   A    
C9    C10   S    
N7    Ni4   S    
C93   N15   A    
C16   O6    S    
C114  H124  S    
C92   H68   S    
N1    Ni1   S    
C43   N7    A    
C25   C32   A    
C48   C50   A    
C88   H57   S    
C54   C61   A    
N4    N10   A    
C78   N5    S    
C102  O11   S    
C58   N20   S    
C94   C95   S    
C86   H51   S    
C94   H70   S    
N14   N17   A    
C18   H38   S    
C103  H96   S    
C6    H6    S    
C112  C113  S    
C81   C83   A    
C52   H13   S    
C25   H67   S    
C95   H74   S    
C33   C34   A    
C73   N3    S    
C40   H101  S    
C1    C85   A    
C47   H2    S    
C54   C56   A    
C59   C61   A    
C105  H99   S    
C74   C75   A    
C98   H84   S    
C82   N14   A    
C51   C52   A    
C104  N16   A    
C77   O3    S    
C84   N11   A    
C17   H34   S    
C1    H1    S    
C76   C77   A    
C21   C60   A    
C56   H40   S    
N13   N18   A    
C1    N1    A    
C11   H20   S    
N7    N9    A    
C86   C87   S    
C43   C49   A    
C23   C50   S    
C67   H47   S    
C57   O2    S    
C50   C51   A    
C58   C59   A    
C45   C46   A    
N10   Ni4   S    
C90   H61   S    
C33   H89   S    
C3    O2    S    
C5    H3    S    
C82   O1    S    
C106  O12   S    
C3    H128  S    
C97   H80   S    
C104  O7    S    
N17   Ni1   S    
C62   C63   A    
C110  H115  S    
C11   H21   S    
C15   H28   S    
C108  H108  S    
C100  H87   S    
C9    O4    S    
C47   C48   A    
C83   H43   S    
C38   C65   S    
C51   H110  S    
C79   N10   A    
C96   C97   S    
C31   O12   S    
C92   C94   S    
C17   C18   S    
C29   H78   S    
C98   H82   S    
C103  C105  S    
C3    H129  S    
C62   H24   S    
C105  H98   S    
N15   Ni4   S    
C101  H91   S    
C19   H75   S    
C15   H29   S    
C8    H12   S    
C40   C41   A    
C48   H109  S    
C12   C14   S    
C68   H39   S    
N3    N5    D    
C9    H15   S    
C101  H92   S    
C75   O4    S    
C107  H105  S    
N11   Ni3   S    
C2    H65   S    
C20   C22   A    
C79   H48   S    
C3    C4    S    
C89   C90   S    
C37   O11   S    
C22   C71   A    
C26   O8    S    
C95   H73   S    
C69   C85   S    
C52   C53   A    
C96   H77   S    
N6    N8    A    
C113  C114  S    
C44   H111  S    
C77   C80   A    
C113  H121  S    
C101  H90   S    
C96   H79   S    
N18   Ni4   S    
C88   H55   S    
C60   O6    S    
C98   H83   S    
C12   H23   S    
C96   O9    S    
C112  O14   S    
C84   C85   A    
C10   H17   S    
C89   H58   S    
C7    H9    S    
C80   C81   A    
C92   H69   S    
C20   N19   A    
C89   O7    S    
C109  H112  S    
C55   N8    A    
C19   N4    A    
C49   C67   A    
C6    C7    S    
C66   H127  S    
C67   N9    A    
C106  H102  S    
C90   H60   S    
C76   H41   S    
C26   C28   A    
C105  H97   S    
C99   C100  S    
C47   C53   A    
C5    H4    S    
C97   H81   S    
C31   C38   A    
C25   C26   A    
C42   C44   A    
N4    Ni2   S    
C37   C39   A    
C110  H114  S    
C109  C110  S    
C13   C21   A    
C24   C93   A    
C30   C32   A    
C41   H100  S    
C27   C42   S    
C90   C91   S    
N15   N16   A    
N9    Ni1   S    
C61   H35   S    
C72   C73   A    
C112  H120  S    
C91   H63   S    
C46   C53   S    
C113  H123  S    
C100  C101  S    
C28   C49   S    
C31   N6    A    
C69   C75   A    
C30   H76   S    
C13   H56   S    
C14   H26   S    
C69   C70   A    
C13   N18   A    
C10   H18   S    
C4    H131  S    
N13   Ni1   S    
C10   C11   S    
C108  H106  S    
C8    H11   S    
C4    C5    S    
C106  H103  S    
C86   H50   S    
C14   H25   S    
C87   C88   S    
C36   C37   A    
C65   C66   A    
C12   H22   S    
C99   H85   S    
C2    C23   A    
C111  H116  S    
C14   C15   S    
C16   H31   S    
C70   C72   A    
C7    H8    S    
C6    H7    S    
C24   C104  A    
C57   C58   A    
C18   H36   S    
N12   N19   A    
C102  H94   S    
C4    H130  S    
C70   H44   S    
C95   H72   S    
C43   H5    S    
C114  H125  S    
