data_mof_unit_57045.cif
_audit_creation_date              2012-12-10T20:26:24-0500
_audit_creation_method            fapswitch 2.2
_symmetry_space_group_name_H-M    P1
_symmetry_Int_Tables_number       1
_space_group_crystal_system       triclinic
_cell_length_a                    10.613998
_cell_length_b                    10.687595
_cell_length_c                    9.900373
_cell_angle_alpha                 89.836389
_cell_angle_beta                  88.68799
_cell_angle_gamma                 91.36226
_cell_volume                      1122.46135326

loop_
_atom_site_label
_atom_site_type_symbol
_atom_type_description
_atom_site_fract_x
_atom_site_fract_y
_atom_site_fract_z
_atom_type_partial_charge
C1    C     C_R   0.508089 0.260161 0.499507 0.909543
C2    C     C_R   0.534281 0.129174 0.498799 -0.224967
C3    C     C_R   0.571503 0.064635 0.379923 0.377751
C4    C     C_R   0.567251 0.934597 0.381385 -0.258280
C5    C     C_R   0.528875 0.871259 0.499891 -0.184801
C6    C     C_R   0.521058 0.935842 0.620841 0.220960
C7    C     C_3   0.423438 0.927285 0.731544 -0.432514
C8    C     C_3   0.427700 0.068750 0.732255 -0.494144
C9    C     C_R   0.454234 0.398768 0.071821 0.215284
C10   C     C_R   0.562311 0.590968 0.070975 -0.180315
C11   C     C_R   0.564685 0.589957 0.927340 0.403926
C12   C     C_R   0.262909 0.514858 0.502059 0.785148
C13   C     C_R   0.454051 0.398982 0.930285 0.077161
C14   C     C_3   0.325964 0.339635 0.927460 -0.582118
C15   C     C_3   0.327908 0.333692 0.081143 0.350234
C16   C     C_R   0.505206 0.739914 0.499670 0.911901
C17   C     C_R   0.738084 0.500674 0.498171 0.916548
C18   C     C_2   0.934834 0.566293 0.394877 -0.124385
C19   C     C_2   0.871813 0.502598 0.492625 -0.234127
C20   C     C_2   0.071558 0.566344 0.391874 -0.248529
C21   C     C_2   0.133380 0.557808 0.507437 0.347166
C22   C     C_R   0.524106 0.063392 0.620434 0.098629
H1    H     H_    0.886380 0.611512 0.313148 0.167383
H2    H     H_    0.469367 0.107309 0.825766 0.230934
H3    H     H_    0.611287 0.664908 0.124490 0.174898
H4    H     H_    0.255206 0.403633 0.888202 0.217605
H5    H     H_    0.322858 0.245970 0.881818 0.171770
H6    H     H_    0.335418 0.237517 0.124094 0.108677
H7    H     H_    0.918460 0.451142 0.570716 0.153082
H8    H     H_    0.118725 0.559190 0.294351 0.197196
H9    H     H_    0.586954 0.884106 0.288795 0.203112
H10   H     H_    0.332087 0.886698 0.697500 0.203234
H11   H     H_    0.459695 0.885757 0.825562 0.247819
H12   H     H_    0.338204 0.110390 0.699768 0.199530
N1    N     N_R   0.499170 0.499140 0.142800 -0.114576
N2    N     N_R   0.499170 0.499180 0.857150 -0.130336
O1    O     O_R   0.500020 0.316790 0.614690 -0.614270
O2    O     O_R   0.500000 0.316760 0.385350 -0.567353
O3    O     O_R   0.319080 0.500020 0.614640 -0.622410
O4    O     O_R   0.319070 0.499980 0.385300 -0.579654
O5    O     O_R   0.500000 0.683240 0.614650 -0.567610
O6    O     O_R   0.499980 0.683210 0.385310 -0.638749
O7    O     O_R   0.680930 0.500020 0.614700 -0.569296
O8    O     O_R   0.680920 0.499980 0.385360 -0.617496
Zn1   Zn    Zn3+2 0.500010 0.500020 0.653130 1.002532
Zn2   Zn    Zn3+2 0.499990 0.499980 0.346870 1.007576
Cl1   Cl    Cl    0.659725 0.703221 0.843366 -0.605243
O9    O     O_3   0.232813 0.406897 0.140147 -0.583586
C23   C     C_3   0.121365 0.332252 0.153604 -0.317092
H13   H     H_    0.127865 0.267584 0.241188 0.175991
H14   H     H_    0.100301 0.278284 0.060311 0.169796
H15   H     H_    0.039969 0.393388 0.171976 0.192553
O10   O     O_3   0.080295 0.614572 0.621824 -0.582413
C24   C     C_3   0.092143 0.543383 0.740678 -0.239996
H16   H     H_    0.174005 0.579768 0.797562 0.193864
H17   H     H_    0.098393 0.440926 0.721796 0.120191
H18   H     H_    0.006997 0.556970 0.805571 0.205383
Cl2   Cl    Cl    0.617323 0.138303 0.226104 -0.643116

loop_
_geom_bond_atom_site_label_1
_geom_bond_atom_site_label_2
_ccdc_geom_bond_type
C2    C22   A    
C8    C22   S    
C17   O7    A    
C20   H8    S    
C12   O4    A    
C6    C7    S    
C13   C14   S    
C14   H5    S    
C7    H11   S    
C11   Cl1   S    
C1    O1    A    
O3    Zn1   S    
C23   H15   S    
C12   O3    A    
C2    C3    A    
C9    C15   S    
C17   O8    A    
N2    Zn1   S    
C8    H12   S    
O10   C24   S    
C14   H4    S    
C21   O10   S    
O7    Zn1   S    
C15   H6    S    
C10   N1    A    
C1    O2    A    
O9    C23   S    
C15   O9    S    
C10   H3    S    
C11   N2    A    
C17   C19   S    
O8    Zn2   S    
C23   H13   S    
C18   C20   S    
C5    C6    A    
C24   H17   S    
O2    Zn2   S    
C4    H9    S    
C10   C11   A    
O4    Zn2   S    
O1    Zn1   S    
C3    C4    A    
C19   H7    S    
C3    Cl2   S    
C16   O6    A    
C7    C8    S    
C20   C21   D    
C13   N2    A    
C1    C2    S    
O6    Zn2   S    
C23   H14   S    
C9    N1    A    
O5    Zn1   S    
C14   C15   S    
C18   C19   D    
C5    C16   S    
C9    C13   A    
C7    H10   S    
C8    H2    S    
C24   H16   S    
N1    Zn2   S    
C12   C21   S    
C18   H1    S    
C4    C5    A    
C16   O5    A    
C24   H18   S    
C6    C22   A    
