data_mof_unit_6170.cif
_audit_creation_date              2012-12-10T17:49:43-0500
_audit_creation_method            fapswitch 2.2
_symmetry_space_group_name_H-M    P1
_symmetry_Int_Tables_number       1
_space_group_crystal_system       triclinic
_cell_length_a                    10.506267
_cell_length_b                    10.664818
_cell_length_c                    9.943091
_cell_angle_alpha                 90.058013
_cell_angle_beta                  89.934772
_cell_angle_gamma                 91.348121
_cell_volume                      1113.78810435

loop_
_atom_site_label
_atom_site_type_symbol
_atom_type_description
_atom_site_fract_x
_atom_site_fract_y
_atom_site_fract_z
_atom_type_partial_charge
C1    C     C_R   0.501982 0.260629 0.500210 0.931827
C2    C     C_R   0.608079 0.067956 0.568218 0.021444
C3    C     C_R   0.507643 0.127959 0.501158 -0.156815
C4    C     C_R   0.257682 0.500422 0.500140 0.869750
C5    C     C_R   0.409795 0.061205 0.435270 0.438660
C6    C     C_R   0.412824 0.932011 0.434274 -0.314815
C7    C     C_R   0.510135 0.871454 0.500401 -0.149690
C8    C     C_R   0.331060 0.338823 0.139366 -0.113584
C9    C     C_R   0.246985 0.260063 0.069426 -0.176405
C10   C     C_R   0.247349 0.259575 0.930233 -0.215265
C11   C     C_R   0.331571 0.338061 0.860192 -0.150865
C12   C     C_3   0.959986 0.500684 0.371549 -0.138569
C13   C     C_R   0.416961 0.420345 0.927696 0.168917
C14   C     C_R   0.416854 0.420553 0.072050 0.143116
C15   C     C_R   0.579663 0.575997 0.071389 -0.112380
C16   C     C_R   0.503175 0.739190 0.500066 0.891750
C17   C     C_R   0.579585 0.576023 0.928466 -0.109250
C18   C     C_R   0.742647 0.500329 0.499797 0.829314
C19   C     C_3   0.041256 0.501216 0.627773 -0.143313
C20   C     C_3   0.956343 0.397848 0.563350 -0.181120
C21   C     C_3   0.878116 0.500699 0.499041 0.040229
C22   C     C_3   0.960744 0.604161 0.563241 -0.181670
C23   C     C_3   0.040584 0.397706 0.436150 -0.174875
C24   C     C_3   0.045174 0.604140 0.436024 -0.175630
C25   C     C_3   0.122831 0.501072 0.500513 0.033952
C26   C     C_R   0.707728 0.135146 0.634214 -0.160845
C27   C     C_R   0.805077 0.072296 0.699038 -0.132423
C28   C     C_R   0.806629 0.942110 0.697098 -0.146555
C29   C     C_R   0.710409 0.874398 0.631123 -0.174214
C30   C     C_R   0.609334 0.936641 0.567438 0.102279
H1    H     H_    0.919146 0.313707 0.616391 0.126772
H2    H     H_    0.644668 0.638313 0.874932 0.143321
H3    H     H_    0.078053 0.501194 0.732433 0.148760
H4    H     H_    0.925542 0.688274 0.615642 0.124169
H5    H     H_    0.086255 0.688067 0.384423 0.131116
H6    H     H_    0.923232 0.500438 0.266890 0.145344
H7    H     H_    0.077870 0.313756 0.384548 0.151826
H8    H     H_    0.711908 0.236246 0.636302 0.147922
H9    H     H_    0.880039 0.124672 0.750272 0.123659
H10   H     H_    0.249520 0.062802 0.336360 0.322315
H11   H     H_    0.882914 0.893485 0.746315 0.126106
H12   H     H_    0.716643 0.773482 0.629992 0.134052
H13   H     H_    0.337367 0.878058 0.385026 0.143443
H14   H     H_    0.644850 0.638211 0.124826 0.145027
H15   H     H_    0.326436 0.332912 0.245852 0.239437
H16   H     H_    0.181497 0.198656 0.123697 0.155601
H17   H     H_    0.182265 0.197701 0.875994 0.149467
H18   H     H_    0.327057 0.331251 0.753561 0.209343
N1    N     N_R   0.498800 0.498800 0.142780 -0.124443
N2    N     N_R   0.498760 0.498720 0.857170 -0.121935
O1    O     O_R   0.500000 0.316780 0.614690 -0.654057
O2    O     O_R   0.499990 0.316750 0.385360 -0.605363
O3    O     O_R   0.313960 0.499980 0.614650 -0.645085
O4    O     O_R   0.313940 0.499960 0.385310 -0.642236
O5    O     O_R   0.500010 0.683250 0.614640 -0.617105
O6    O     O_R   0.500000 0.683220 0.385310 -0.613606
O7    O     O_R   0.686060 0.500040 0.614690 -0.633845
O8    O     O_R   0.686040 0.500020 0.385350 -0.625635
O9    O     O_3   0.310416 0.124284 0.377116 -0.818474
Zn1   Zn    Zn3+2 0.500010 0.500020 0.653130 0.927998
Zn2   Zn    Zn3+2 0.499990 0.499980 0.346870 0.943151

loop_
_geom_bond_atom_site_label_1
_geom_bond_atom_site_label_2
_ccdc_geom_bond_type
C17   N2    A    
C16   O6    A    
C6    C7    A    
O4    Zn2   S    
C13   C14   A    
C4    O3    A    
C12   H6    S    
C18   C21   S    
C11   C13   A    
C9    C10   A    
C12   C24   S    
C18   O7    A    
C19   C20   S    
C20   C23   S    
C2    C30   A    
N2    Zn1   S    
O8    Zn2   S    
C15   N1    A    
C2    C3    A    
C26   C27   A    
C16   O5    A    
C9    H16   S    
C2    C26   A    
H10   O9    S    
C21   C22   S    
C24   C25   S    
C22   H4    S    
C1    O1    A    
C12   C23   S    
O5    Zn1   S    
C11   H18   S    
C29   C30   A    
C19   C25   S    
C6    H13   S    
C28   C29   A    
O3    Zn1   S    
C15   H14   S    
C4    C25   S    
O2    Zn2   S    
C23   C25   S    
C5    C6    A    
C29   H12   S    
C1    O2    A    
C22   C24   S    
C14   N1    A    
N1    Zn2   S    
C10   C11   A    
C5    O9    S    
C13   N2    A    
C24   H5    S    
C3    C5    A    
C28   H11   S    
C10   H17   S    
C19   C22   S    
C20   C21   S    
C15   C17   A    
C19   H3    S    
C27   C28   A    
C7    C30   A    
C17   H2    S    
O6    Zn2   S    
C7    C16   S    
O7    Zn1   S    
C8    C14   A    
O1    Zn1   S    
C4    O4    A    
C23   H7    S    
C12   C21   S    
C18   O8    A    
C26   H8    S    
C8    H15   S    
C27   H9    S    
C8    C9    A    
C1    C3    S    
C20   H1    S    
