data_mof_unit_61424.cif
_audit_creation_date              2012-12-10T19:32:13-0500
_audit_creation_method            fapswitch 2.2
_symmetry_space_group_name_H-M    P1
_symmetry_Int_Tables_number       1
_space_group_crystal_system       triclinic
_cell_length_a                    23.456125
_cell_length_b                    15.734034
_cell_length_c                    14.947828
_cell_angle_alpha                 90.035679
_cell_angle_beta                  90.073832
_cell_angle_gamma                 90.003728
_cell_volume                      5516.63179148

loop_
_atom_site_label
_atom_site_type_symbol
_atom_type_description
_atom_site_fract_x
_atom_site_fract_y
_atom_site_fract_z
_atom_type_partial_charge
C1    C     C_R   0.500005 0.337478 0.499967 0.915802
C2    C     C_R   0.499995 0.662522 0.500033 0.915682
C3    C     C_R   0.237696 0.499787 0.580218 -0.168136
C4    C     C_R   0.762296 0.501781 0.419766 -0.170201
C5    C     C_R   0.296839 0.499838 0.580721 -0.202175
C6    C     C_R   0.703156 0.500933 0.419267 -0.204117
C7    C     C_R   0.326883 0.499821 0.499619 -0.109073
C8    C     C_R   0.673117 0.500736 0.500379 -0.108734
C9    C     C_R   0.297103 0.499696 0.418084 -0.251663
C10   C     C_R   0.702898 0.501419 0.581920 -0.253481
C11   C     C_R   0.237869 0.499641 0.417559 0.446030
C12   C     C_R   0.762130 0.502279 0.582442 0.444616
C13   C     C_R   0.208304 0.499704 0.498933 0.235284
C14   C     C_R   0.791691 0.502454 0.501058 0.245887
C15   C     C_3   0.548944 0.971946 0.536328 -0.155817
C16   C     C_3   0.451059 0.028053 0.463672 -0.154770
C17   C     C_3   0.544459 0.028044 0.451668 -0.157980
C18   C     C_3   0.455544 0.971955 0.548332 -0.157081
C19   C     C_1   0.500005 0.248567 0.499920 -0.172130
C20   C     C_1   0.499996 0.751432 0.500080 -0.172231
C21   C     C_3   0.504488 0.028184 0.584611 -0.160153
C22   C     C_3   0.495515 0.971815 0.415389 -0.160166
C23   C     C_R   0.389054 0.499935 0.499938 0.899239
C24   C     C_R   0.610946 0.500120 0.500061 0.899020
C25   C     C_3   0.500003 0.082483 0.499951 0.194269
C26   C     C_3   0.500000 0.917516 0.500049 0.194280
C27   C     C_1   0.500004 0.173295 0.499917 -0.064545
C28   C     C_1   0.499998 0.826704 0.500083 -0.064684
C29   C     C_3   0.487160 0.421023 0.969843 -0.227816
C30   C     C_3   0.512840 0.578979 0.030157 -0.227905
C31   C     C_3   0.539428 0.443984 0.030124 -0.177216
C32   C     C_3   0.460573 0.556018 0.969876 -0.176893
C33   C     C_3   0.449738 0.477981 0.029877 0.164344
C34   C     C_3   0.550262 0.522021 0.970123 0.164392
C35   C     C_3   0.500657 0.500359 0.089808 0.070756
C36   C     C_3   0.499343 0.499642 0.910192 0.070677
C37   C     C_1   0.500263 0.500145 0.189866 0.071120
C38   C     C_1   0.499737 0.499856 0.810134 0.071202
C39   C     C_R   0.880195 0.579002 0.501531 0.551500
C40   C     C_R   0.119519 0.423991 0.498444 0.573058
C41   C     C_R   0.880254 0.427056 0.498659 0.566972
C42   C     C_R   0.119923 0.575851 0.501316 0.564291
C43   C     C_R   0.939612 0.425282 0.498496 -0.027826
C44   C     C_R   0.060492 0.577963 0.501477 -0.063377
C45   C     C_R   0.969928 0.502619 0.499999 -0.032563
C46   C     C_R   0.030004 0.500899 0.499982 -0.053829
C47   C     C_R   0.940302 0.581363 0.501501 -0.055426
C48   C     C_R   0.059557 0.422269 0.498481 -0.016414
C49   C     C_R   0.968870 0.347764 0.496996 -0.202922
C50   C     C_R   0.031366 0.655482 0.502965 -0.107658
C51   C     C_R   0.028291 0.345354 0.496976 0.117348
C52   C     C_R   0.972106 0.658394 0.502992 0.096355
H1    H     H_    0.945753 0.288117 0.495845 0.192427
H2    H     H_    0.054642 0.714992 0.504098 0.202136
H3    H     H_    0.572747 0.399257 0.053883 0.148885
H4    H     H_    0.427253 0.600745 0.946117 0.149157
H5    H     H_    0.475398 0.356485 0.946161 0.146436
H6    H     H_    0.524602 0.643517 0.053839 0.146276
H7    H     H_    0.214550 0.499841 0.642860 0.157332
H8    H     H_    0.785438 0.501866 0.357116 0.156547
H9    H     H_    0.318935 0.499920 0.644385 0.174751
H10   H     H_    0.681060 0.500441 0.355596 0.174786
H11   H     H_    0.319658 0.499678 0.354890 0.197933
H12   H     H_    0.680346 0.501304 0.645122 0.198102
H13   H     H_    0.580788 0.053162 0.412172 0.146806
H14   H     H_    0.419215 0.946837 0.587829 0.147473
H15   H     H_    0.588937 0.946816 0.566012 0.148486
H16   H     H_    0.411066 0.053183 0.433988 0.149416
H17   H     H_    0.491851 0.946576 0.346251 0.144547
H18   H     H_    0.508152 0.053423 0.653749 0.144499
N1    N     N_R   0.852305 0.502869 0.500383 -0.339046
N2    N     N_R   0.147704 0.499847 0.499599 -0.348450
N3    N     N_1   0.500020 0.500000 0.268010 -0.091620
N4    N     N_1   0.499980 0.500000 0.731990 -0.091613
O1    O     O_R   0.500000 0.376780 0.574460 -0.608245
O2    O     O_R   0.500000 0.623220 0.425540 -0.608305
O3    O     O_R   0.500010 0.376780 0.425520 -0.610329
O4    O     O_R   0.499990 0.623220 0.574480 -0.610379
O5    O     O_R   0.416150 0.499970 0.574490 -0.621020
O6    O     O_R   0.583850 0.500030 0.425510 -0.621193
O7    O     O_R   0.416160 0.499980 0.425550 -0.614390
O8    O     O_R   0.583840 0.500020 0.574450 -0.614543
O9    O     O_2   0.849275 0.651203 0.502816 -0.567958
O10   O     O_2   0.149851 0.351155 0.497130 -0.510118
O11   O     O_2   0.850367 0.353698 0.497323 -0.543625
O12   O     O_2   0.149995 0.649023 0.502651 -0.541180
Zn1   Zn    Zn3+2 0.499990 0.500000 0.599450 0.987934
Zn2   Zn    Zn3+2 0.500010 0.500000 0.400550 0.987904
N5    N     N_3   0.606262 0.545915 0.936689 -0.436398
H19   H     H_    0.631742 0.559924 0.992161 0.190935
H20   H     H_    0.601401 0.602476 0.900885 0.188046
N6    N     N_3   0.393738 0.454087 0.063310 -0.435925
H21   H     H_    0.368258 0.440079 0.007838 0.191405
H22   H     H_    0.398599 0.397524 0.099113 0.188327
N7    N     N_3   0.056172 0.264285 0.495389 -0.366614
H23   H     H_    0.042828 0.229727 0.551323 0.194709
H24   H     H_    0.042726 0.231642 0.438160 0.199402
N8    N     N_3   0.946372 0.740973 0.504582 -0.436645
H25   H     H_    0.921456 0.748918 0.447190 0.239030
H26   H     H_    0.921543 0.746990 0.562232 0.248247
Cl1   Cl    Cl    0.201362 0.499648 0.314698 -0.567986
Cl2   Cl    Cl    0.798639 0.502949 0.685312 -0.571500

loop_
_geom_bond_atom_site_label_1
_geom_bond_atom_site_label_2
_ccdc_geom_bond_type
O4    Zn1   S    
C18   C21   S    
C1    O3    A    
C14   N1    S    
C40   O10   S    
N7    H23   S    
C18   C26   S    
O5    Zn1   S    
C45   C46   A    
C29   C36   S    
C50   H2    S    
C30   C35   S    
C32   C36   S    
C35   C37   S    
O1    Zn1   S    
C49   H1    S    
C31   H3    S    
O8    Zn1   S    
C29   C33   S    
C40   C48   A    
C24   O8    A    
C37   N3    T    
C33   C35   S    
C24   O6    A    
C48   C51   A    
O3    Zn2   S    
C49   C51   A    
C50   C52   A    
C16   H16   S    
N4    Zn1   S    
N5    H20   S    
C19   C27   T    
O2    Zn2   S    
C22   H17   S    
C3    C13   A    
C41   N1    A    
O6    Zn2   S    
C41   C43   A    
C42   C44   A    
C42   N2    A    
C44   C46   A    
C45   C47   A    
C46   C48   A    
C1    C19   S    
C30   C34   S    
C2    C20   S    
C1    O1    A    
C4    C6    A    
C33   N6    S    
C5    C7    A    
C43   C49   A    
C15   C26   S    
C6    C8    A    
C20   C28   T    
C23   O7    A    
N3    Zn2   S    
C12   Cl2   S    
C2    O4    A    
C9    C11   A    
C15   H15   S    
C4    H8    S    
N6    H22   S    
C31   C34   S    
C5    H9    S    
C11   Cl1   S    
C43   C45   A    
C10   C12   A    
C42   O12   S    
C16   C18   S    
C29   H5    S    
N8    H26   S    
C31   C35   S    
C18   H14   S    
C2    O2    A    
C39   C47   A    
C38   N4    T    
C44   C50   A    
C16   C25   S    
C7    C9    A    
C21   C25   S    
C16   C22   S    
C40   N2    A    
C9    H11   S    
C17   H13   S    
C10   H12   S    
C12   C14   A    
C3    C5    A    
N7    H24   S    
C15   C17   S    
C47   C52   A    
C13   N2    S    
C25   C27   S    
C41   O11   S    
C26   C28   S    
C17   C22   S    
C21   H18   S    
C17   C25   S    
C32   C33   S    
C6    H10   S    
C36   C38   S    
C34   N5    S    
C39   O9    S    
C29   C31   S    
C30   C32   S    
C11   C13   A    
C7    C23   S    
C30   H6    S    
C52   N8    S    
N6    H21   S    
C8    C24   S    
C34   C36   S    
C4    C14   A    
O7    Zn2   S    
C15   C21   S    
C8    C10   A    
N8    H25   S    
C22   C26   S    
C39   N1    A    
C23   O5    A    
N5    H19   S    
C32   H4    S    
C51   N7    S    
C3    H7    S    
