data_mof_unit_51652.cif
_audit_creation_date              2012-12-10T21:07:47-0500
_audit_creation_method            fapswitch 2.2
_symmetry_space_group_name_H-M    P1
_symmetry_Int_Tables_number       1
_space_group_crystal_system       triclinic
_cell_length_a                    8.607615
_cell_length_b                    17.108194
_cell_length_c                    16.828213
_cell_angle_alpha                 86.696931
_cell_angle_beta                  96.88171
_cell_angle_gamma                 91.900284
_cell_volume                      2455.33266596

loop_
_atom_site_label
_atom_site_type_symbol
_atom_type_description
_atom_site_fract_x
_atom_site_fract_y
_atom_site_fract_z
_atom_type_partial_charge
C1    C     C_R   0.499289 0.351437 0.502533 0.854020
C2    C     C_R   0.392766 0.452753 0.250055 -0.021453
C3    C     C_R   0.596438 0.555006 0.834507 -0.277984
C4    C     C_R   0.384953 0.450575 0.165461 -0.276996
C5    C     C_R   0.502687 0.502024 0.876165 0.129511
C6    C     C_R   0.486500 0.498445 0.123111 0.130923
C7    C     C_1   0.496679 0.501478 0.963322 -0.047359
C8    C     C_1   0.488547 0.498993 0.035675 -0.048178
C9    C     C_R   0.201359 0.496915 0.480217 0.985938
C10   C     C_R   0.798747 0.501937 0.520024 0.982147
C11   C     C_2   0.038015 0.487419 0.471550 -0.398907
C12   C     C_R   0.493317 0.648626 0.497360 0.860150
C13   C     C_2   0.962360 0.509547 0.529677 -0.397709
C14   C     C_R   0.335523 0.833987 0.560748 -0.215962
C15   C     C_R   0.321555 0.160065 0.438233 -0.209678
C16   C     C_R   0.393219 0.759664 0.560538 -0.231136
C17   C     C_R   0.384015 0.235488 0.436802 -0.233077
C18   C     C_R   0.449255 0.732499 0.492118 -0.104939
C19   C     C_R   0.462471 0.266463 0.506473 -0.103137
C20   C     C_R   0.446230 0.783556 0.421382 0.069547
C21   C     C_R   0.480742 0.218787 0.579505 0.072136
C22   C     C_R   0.384077 0.859769 0.421888 0.107075
C23   C     C_1   0.299994 0.964032 0.500500 -0.063575
C24   C     C_R   0.397654 0.145441 0.582515 0.112993
C25   C     C_R   0.330668 0.883655 0.492550 0.097221
C26   C     C_R   0.327237 0.115473 0.510118 0.094823
C27   C     C_3   0.513039 0.760027 0.346968 -0.416779
C28   C     C_3   0.385413 0.724485 0.286209 -0.314220
C29   C     C_3   0.411347 0.745385 0.199101 -0.917628
C30   C     C_3   0.594278 0.241966 0.651616 -0.425900
C31   C     C_3   0.731969 0.185689 0.668969 -0.362004
C32   C     C_3   0.806335 0.188555 0.755880 -0.912563
C33   C     C_3   0.376476 0.917214 0.348659 -0.439368
C34   C     C_1   0.298402 0.033316 0.505340 -0.071147
C35   C     C_3   0.523222 0.971131 0.350923 -0.332869
C36   C     C_3   0.515744 0.027398 0.276964 -0.890125
C37   C     C_3   0.384358 0.097279 0.660991 -0.444406
C38   C     C_3   0.214404 0.092394 0.680499 -0.341357
C39   C     C_3   0.199732 0.041350 0.756795 -0.898658
C40   C     C_3   0.295220 0.389299 0.706129 -0.418372
C41   C     C_3   0.124374 0.403257 0.717410 -0.360490
C42   C     C_3   0.013881 0.350572 0.665293 -0.884041
C43   C     C_3   0.725682 0.599845 0.291699 -0.426822
C44   C     C_3   0.891198 0.576840 0.279033 -0.352526
C45   C     C_R   0.410339 0.448005 0.831943 -0.269087
C46   C     C_3   0.013703 0.630423 0.322848 -0.875738
C47   C     C_R   0.592399 0.546933 0.166984 -0.264908
C48   C     C_R   0.405976 0.448274 0.747817 0.240236
C49   C     C_R   0.601988 0.546284 0.251311 0.247123
C50   C     C_R   0.594343 0.552576 0.750244 -0.020602
H1    H     H_    0.980151 0.460462 0.418817 0.171703
H2    H     H_    0.312590 0.416108 0.281508 0.131712
H3    H     H_    0.670891 0.597846 0.866670 0.142762
H4    H     H_    0.300038 0.411980 0.133624 0.141926
H5    H     H_    0.402899 0.809463 0.185627 0.255188
H6    H     H_    0.527337 0.726855 0.186297 0.259255
H7    H     H_    0.319974 0.715323 0.158582 0.257260
H8    H     H_    0.382447 0.659860 0.295737 0.245193
H9    H     H_    0.268513 0.745836 0.294991 0.218062
H10   H     H_    0.572856 0.810746 0.318691 0.205796
H11   H     H_    0.610036 0.719942 0.364217 0.180962
H12   H     H_    0.020292 0.535158 0.583379 0.173112
H13   H     H_    0.836385 0.249798 0.771564 0.273196
H14   H     H_    0.723957 0.162900 0.796896 0.259622
H15   H     H_    0.914743 0.154275 0.764659 0.255846
H16   H     H_    0.695477 0.124143 0.657601 0.227287
H17   H     H_    0.821295 0.202417 0.628109 0.220037
H18   H     H_    0.649257 0.300338 0.643100 0.220951
H19   H     H_    0.529351 0.245228 0.704402 0.198911
H20   H     H_    0.509237 0.994212 0.221778 0.258609
H21   H     H_    0.411727 0.064702 0.273665 0.258546
H22   H     H_    0.622542 0.065863 0.280432 0.250953
H23   H     H_    0.298068 0.853589 0.615407 0.148104
H24   H     H_    0.534423 0.005969 0.405057 0.234593
H25   H     H_    0.630116 0.936025 0.353883 0.211247
H26   H     H_    0.359385 0.886370 0.292183 0.215274
H27   H     H_    0.270838 0.953434 0.345687 0.199567
H28   H     H_    0.240134 0.981337 0.750082 0.262361
H29   H     H_    0.270587 0.067226 0.808846 0.260647
H30   H     H_    0.075452 0.037146 0.768464 0.248478
H31   H     H_    0.174481 0.152230 0.688732 0.217690
H32   H     H_    0.136022 0.067128 0.630612 0.230324
H33   H     H_    0.428082 0.037499 0.656320 0.204257
H34   H     H_    0.270059 0.135953 0.382613 0.147772
H35   H     H_    0.456334 0.121555 0.713102 0.218642
H36   H     H_    0.029423 0.361195 0.601039 0.267178
H37   H     H_    0.037892 0.288254 0.682866 0.261416
H38   H     H_    0.891392 0.362991 0.673379 0.262780
H39   H     H_    0.104691 0.390389 0.780929 0.214846
H40   H     H_    0.096128 0.465415 0.701510 0.232182
H41   H     H_    0.302899 0.390850 0.642022 0.271381
H42   H     H_    0.326959 0.329494 0.730618 0.169224
H43   H     H_    0.002806 0.691228 0.296319 0.245588
H44   H     H_    0.999123 0.630616 0.387458 0.268054
H45   H     H_    0.392471 0.723037 0.615178 0.174989
H46   H     H_    0.131862 0.609530 0.316733 0.264521
H47   H     H_    0.910561 0.515025 0.299794 0.228037
H48   H     H_    0.906738 0.581991 0.214360 0.212805
H49   H     H_    0.708423 0.660035 0.265148 0.182596
H50   H     H_    0.716475 0.602253 0.355739 0.255352
H51   H     H_    0.369767 0.269878 0.380431 0.164607
H52   H     H_    0.339353 0.405748 0.863134 0.138076
H53   H     H_    0.669415 0.585467 0.135192 0.135707
H54   H     H_    0.668024 0.593423 0.719279 0.134591
N1    N     N_R   0.500040 0.500030 0.707230 -0.103437
N2    N     N_R   0.499960 0.499970 0.292770 -0.108193
O1    O     O_R   0.500000 0.389130 0.566570 -0.651604
O2    O     O_R   0.500000 0.610870 0.433430 -0.639474
O3    O     O_R   0.499990 0.389100 0.433480 -0.610030
O4    O     O_R   0.500010 0.610900 0.566520 -0.618256
O5    O     O_R   0.271750 0.500010 0.550980 -0.619565
O6    O     O_R   0.728250 0.499990 0.449020 -0.618967
O7    O     O_R   0.271740 0.499980 0.417890 -0.632076
O8    O     O_R   0.728260 0.500020 0.582110 -0.624203
Zn1   Zn    Zn3+2 0.500010 0.500020 0.588860 0.912376
Zn2   Zn    Zn3+2 0.499990 0.499980 0.411140 0.909510

loop_
_geom_bond_atom_site_label_1
_geom_bond_atom_site_label_2
_ccdc_geom_bond_type
C9    O5    A    
C31   H16   S    
C41   H39   S    
C35   H24   S    
C50   H54   S    
C11   C13   D    
C41   C42   S    
C35   C36   S    
C12   O4    A    
O8    Zn1   S    
C7    C8    T    
C47   C49   A    
C31   H17   S    
C35   H25   S    
C37   H35   S    
C28   C29   S    
C19   C21   A    
C43   H49   S    
C27   H10   S    
C30   C31   S    
C45   C48   A    
C15   C17   A    
C17   H51   S    
C27   H11   S    
O3    Zn2   S    
C1    O3    A    
C44   H48   S    
C26   C34   S    
C13   H12   S    
C31   C32   S    
C36   H20   S    
C22   C25   A    
C50   N1    A    
C10   O6    A    
C42   H36   S    
C10   O8    A    
C36   H21   S    
O7    Zn2   S    
C41   H40   S    
C14   C25   A    
C38   H32   S    
C3    C50   A    
C44   C46   S    
C1    C19   S    
C47   H53   S    
C6    C47   A    
C29   H7    S    
C39   H28   S    
C43   H50   S    
C32   H14   S    
C4    C6    A    
C12   O2    A    
C43   C49   S    
C15   C26   A    
C6    C8    S    
C29   H5    S    
C5    C45   A    
C2    N2    A    
N2    Zn2   S    
C39   H29   S    
C2    C4    A    
C43   C44   S    
C14   H23   S    
C37   C38   S    
C44   H47   S    
C33   H26   S    
C48   N1    A    
C46   H44   S    
C23   C34   T    
C24   C37   S    
C40   H42   S    
C9    C11   S    
O1    Zn1   S    
C15   H34   S    
C2    H2    S    
C1    O1    A    
C40   C41   S    
C29   H6    S    
C20   C22   A    
C38   H31   S    
C14   C16   A    
C42   H38   S    
C17   C19   A    
O6    Zn2   S    
C30   H19   S    
C5    C7    S    
C28   H9    S    
C40   C48   S    
C22   C33   S    
C16   H45   S    
C4    H4    S    
N1    Zn1   S    
C32   H13   S    
C24   C26   A    
C3    C5    A    
C10   C13   S    
C49   N2    A    
C20   C27   S    
C28   H8    S    
C21   C30   S    
C9    O7    A    
C39   H30   S    
O2    Zn2   S    
C3    H3    S    
C33   H27   S    
C38   C39   S    
C46   H43   S    
C33   C35   S    
C18   C20   A    
C23   C25   S    
C40   H41   S    
C11   H1    S    
C45   H52   S    
C46   H46   S    
C16   C18   A    
C21   C24   A    
C12   C18   S    
C27   C28   S    
C37   H33   S    
O5    Zn1   S    
C42   H37   S    
O4    Zn1   S    
C30   H18   S    
C36   H22   S    
C32   H15   S    
