data_mof_unit_45596.cif
_audit_creation_date              2012-12-10T18:52:55-0500
_audit_creation_method            fapswitch 2.2
_symmetry_space_group_name_H-M    P1
_symmetry_Int_Tables_number       1
_space_group_crystal_system       triclinic
_cell_length_a                    9.813787
_cell_length_b                    10.672654
_cell_length_c                    16.466238
_cell_angle_alpha                 91.175004
_cell_angle_beta                  84.096761
_cell_angle_gamma                 90.014625
_cell_volume                      1715.15024932

loop_
_atom_site_label
_atom_site_type_symbol
_atom_type_description
_atom_site_fract_x
_atom_site_fract_y
_atom_site_fract_z
_atom_type_partial_charge
C1    C     C_R   0.499638 0.739878 0.503289 0.910007
C2    C     C_R   0.500240 0.259971 0.497687 0.924738
C3    C     C_R   0.597399 0.930267 0.451148 -0.236186
C4    C     C_R   0.403160 0.069365 0.551009 -0.210906
C5    C     C_R   0.597613 0.058625 0.444757 -0.013530
C6    C     C_R   0.403645 0.940871 0.557822 -0.013863
C7    C     C_R   0.499719 0.127325 0.496021 -0.116544
C8    C     C_R   0.500546 0.872330 0.505819 -0.093941
C9    C     C_R   0.935199 0.409138 0.458159 0.026097
C10   C     C_R   0.064915 0.591330 0.541356 -0.011886
C11   C     C_R   0.079231 0.409102 0.458239 0.011232
C12   C     C_R   0.920811 0.591005 0.541662 -0.029678
C13   C     C_R   0.479107 0.498178 0.655063 0.878888
C14   C     C_R   0.520316 0.509127 0.345892 0.888389
C15   C     C_R   0.462380 0.511234 0.745620 -0.214727
C16   C     C_R   0.536468 0.559686 0.262443 -0.182861
C17   C     C_R   0.579324 0.502838 0.788875 -0.156895
C18   C     C_R   0.445206 0.654590 0.241662 -0.164515
C19   C     C_R   0.575743 0.556849 0.866648 -0.143547
C20   C     C_R   0.466866 0.711497 0.166409 -0.198509
C21   C     C_R   0.456141 0.612115 0.905140 0.083122
C22   C     C_R   0.575418 0.675063 0.109676 0.103706
C23   C     C_R   0.333501 0.605269 0.867740 -0.079333
C24   C     C_R   0.673554 0.588633 0.130809 -0.066120
C25   C     C_R   0.335360 0.552153 0.788199 -0.070099
C26   C     C_R   0.653421 0.529403 0.207054 -0.092554
C27   C     C_2   0.453776 0.651492 0.991429 -0.144044
C28   C     C_2   0.563685 0.698653 0.023179 -0.178818
H1    H     H_    0.392703 0.778972 0.149289 0.176372
H2    H     H_    0.665633 0.549027 0.899354 0.180584
H3    H     H_    0.668854 0.874274 0.410772 0.193674
H4    H     H_    0.331648 0.125420 0.591288 0.197720
H5    H     H_    0.886316 0.336688 0.424655 0.158035
H6    H     H_    0.114056 0.664521 0.574053 0.156339
H7    H     H_    0.139718 0.336592 0.424798 0.143401
H8    H     H_    0.860364 0.663572 0.575075 0.144415
N1    N     N_R   0.142790 0.500030 0.500020 -0.083689
N2    N     N_R   0.857210 0.499970 0.499980 -0.087945
O1    O     O_R   0.385380 0.683250 0.500010 -0.597759
O2    O     O_R   0.614620 0.316750 0.499990 -0.598795
O3    O     O_R   0.614710 0.683220 0.500000 -0.628338
O4    O     O_R   0.385290 0.316780 0.500000 -0.620793
O5    O     O_R   0.371780 0.500040 0.615800 -0.582739
O6    O     O_R   0.628220 0.499960 0.384200 -0.574654
O7    O     O_R   0.601110 0.500010 0.615800 -0.605775
O8    O     O_R   0.398890 0.499990 0.384200 -0.591557
Zn1   Zn    Zn3+2 0.346870 0.500020 0.500000 1.038816
Zn2   Zn    Zn3+2 0.653130 0.499980 0.500000 1.029043
C29   C     C_2   0.705677 0.433218 0.756470 1.007025
O9    O     O_2   0.817903 0.474908 0.768429 -0.559399
O10   O     O_R   0.699004 0.318341 0.714551 -0.729916
H9    H     H_    0.602080 0.286210 0.713318 0.293627
C30   C     C_2   0.325392 0.699592 0.296676 0.987157
O11   O     O_2   0.222503 0.635047 0.306355 -0.525915
O12   O     O_R   0.325914 0.817849 0.334627 -0.761472
H10   H     H_    0.415645 0.863747 0.321532 0.299605
C31   C     C_2   0.754138 0.434526 0.226752 1.002299
O13   O     O_2   0.848139 0.464876 0.266302 -0.601344
O14   O     O_R   0.745577 0.312338 0.195641 -0.713027
H11   H     H_    0.825036 0.257985 0.208380 0.354761
C32   C     C_2   0.203839 0.539881 0.751295 1.039007
O15   O     O_2   0.167079 0.437161 0.727548 -0.572485
O16   O     O_R   0.120454 0.645029 0.746215 -0.777638
H12   H     H_    0.032375 0.624486 0.721717 0.356515
H13   H     H_    0.653860 0.725113 0.983533 0.198038
H14   H     H_    0.365531 0.622533 0.032119 0.175800
C33   C     C_2   0.203583 0.652323 0.912848 0.956614
O17   O     O_2   0.100834 0.586969 0.917582 -0.575906
O18   O     O_R   0.199926 0.770852 0.950813 -0.764535
H15   H     H_    0.106461 0.792099 0.979920 0.380170
C34   C     C_2   0.794372 0.557778 0.071701 0.901757
O19   O     O_2   0.867105 0.642120 0.042742 -0.593130
O20   O     O_R   0.823937 0.433234 0.048541 -0.750334
H16   H     H_    0.908242 0.424857 0.007717 0.384283
C35   C     C_2   0.695939 0.115896 0.381690 0.900986
O21   O     O_2   0.665136 0.211048 0.347869 -0.627816
O22   O     O_R   0.822715 0.058516 0.359183 -0.782058
H17   H     H_    0.880937 0.106182 0.315755 0.346222
C36   C     C_2   0.307951 0.883375 0.622321 0.923399
O23   O     O_2   0.341442 0.789544 0.656734 -0.629694
O24   O     O_R   0.180996 0.939729 0.645914 -0.773965
H18   H     H_    0.125480 0.893043 0.690977 0.377392

loop_
_geom_bond_atom_site_label_1
_geom_bond_atom_site_label_2
_ccdc_geom_bond_type
O12   H10   S    
C1    C8    S    
O20   H16   S    
C2    C7    S    
O24   H18   S    
C6    C36   S    
C14   O8    A    
O22   H17   S    
C10   N1    A    
O1    Zn1   S    
C19   C21   A    
C24   C26   A    
C31   O14   S    
C18   C20   A    
O2    Zn2   S    
C23   C33   S    
C32   O16   S    
C18   C30   S    
C29   O10   S    
C11   N1    A    
N1    Zn1   S    
N2    Zn2   S    
C21   C27   S    
O14   H11   S    
C22   C28   S    
C9    H5    S    
O18   H15   S    
C4    C7    A    
C5    C7    A    
C20   H1    S    
C30   O12   S    
C16   C26   A    
C33   O17   D    
C4    C6    A    
C3    C8    A    
C17   C29   S    
C36   O24   S    
C6    C8    A    
C30   O11   D    
O10   H9    S    
C33   O18   S    
C5    C35   S    
C35   O21   D    
C35   O22   S    
C10   H6    S    
C25   C32   S    
C3    H3    S    
C9    C11   A    
C4    H4    S    
C10   C12   A    
C1    O3    A    
C20   C22   A    
C13   C15   S    
C14   C16   S    
C12   H8    S    
C13   O5    A    
C14   O6    A    
O7    Zn2   S    
C15   C17   A    
O8    Zn1   S    
O16   H12   S    
C3    C5    A    
C21   C23   A    
C28   H13   S    
C34   O19   D    
C27   H14   S    
C13   O7    A    
C31   O13   D    
C2    O4    A    
C11   H7    S    
C9    N2    A    
C17   C19   A    
O3    Zn2   S    
C22   C24   A    
O4    Zn1   S    
C23   C25   A    
C12   N2    A    
C32   O15   D    
C26   C31   S    
C15   C25   A    
C1    O1    A    
C36   O23   D    
C2    O2    A    
C16   C18   A    
C29   O9    D    
C34   O20   S    
C27   C28   D    
C19   H2    S    
O5    Zn1   S    
O6    Zn2   S    
C24   C34   S    
