data_mof_unit_47968.cif
_audit_creation_date              2012-12-11T14:32:58-0500
_audit_creation_method            fapswitch 2.2
_symmetry_space_group_name_H-M    P1
_symmetry_Int_Tables_number       1
_space_group_crystal_system       triclinic
_cell_length_a                    6.942484
_cell_length_b                    13.908801
_cell_length_c                    17.826739
_cell_angle_alpha                 112.6349
_cell_angle_beta                  95.690051
_cell_angle_gamma                 90.21822
_cell_volume                      1579.31180328

loop_
_atom_site_label
_atom_site_type_symbol
_atom_type_description
_atom_site_fract_x
_atom_site_fract_y
_atom_site_fract_z
_atom_type_partial_charge
O1    O     O_R   0.484560 0.544530 0.414330 -0.543365
O2    O     O_R   0.197040 0.638810 0.585080 -0.540944
O3    O     O_R   0.026800 0.455470 0.585670 -0.543631
C1    C     C_R   0.374068 0.679397 0.609524 0.689571
O4    O     O_R   0.155000 0.556150 0.414940 -0.520482
O5    O     O_R   0.984450 0.372220 0.414320 -0.536152
C2    C     C_R   0.317959 0.567237 0.387770 0.731823
O6    O     O_R   0.526900 0.627780 0.585680 -0.541739
O7    O     O_3   0.339170 0.439750 0.499990 -0.376020
V1    V     V_3+5 0.064350 0.511180 0.500000 1.404843
O8    O     O_R   0.654880 0.361190 0.414920 -0.543900
C3    C     C_R   0.816956 0.324503 0.386447 0.761927
O9    O     O_R   0.696930 0.443850 0.585060 -0.543006
C4    C     C_R   0.873615 0.432459 0.612263 0.679760
V2    V     V_3+5 0.564340 0.488820 0.500000 1.381352
O10   O     O_3   0.839390 0.560250 0.500010 -0.369284
C5    C     C_R   0.040754 0.863768 0.822777 -0.058937
C6    C     C_R   0.907457 0.395183 0.680072 -0.041952
C7    C     C_R   0.921985 0.826540 0.681214 -0.158723
C8    C     C_R   0.972218 0.792424 0.744266 0.201553
C9    C     C_R   0.054449 0.970567 0.837344 -0.271601
C10   C     C_R   0.001444 0.007024 0.773647 0.103621
C11   C     C_R   0.936155 0.931934 0.694994 0.084341
C12   C     C_R   0.008136 0.114779 0.785007 0.070237
C13   C     C_R   0.951283 0.144377 0.717288 0.059726
C14   C     C_R   0.890290 0.065418 0.640546 -0.174623
C15   C     C_R   0.883135 0.961629 0.629905 -0.197466
C16   C     C_R   0.067695 0.193906 0.861892 -0.178674
C17   C     C_R   0.069511 0.297982 0.872998 -0.196012
C18   C     C_R   0.014768 0.327677 0.808031 0.117545
C19   C     C_R   0.955570 0.252095 0.728768 0.091366
C20   C     C_R   0.019171 0.433494 0.822421 -0.146077
C21   C     C_R   0.964564 0.466464 0.759631 -0.165190
C22   C     C_R   0.904214 0.288143 0.664682 -0.207540
H1    H     H_    0.833319 0.903717 0.569818 0.139890
H2    H     H_    0.863998 0.235837 0.602270 0.093956
H3    H     H_    0.966238 0.548443 0.775052 0.152128
H4    H     H_    0.114967 0.356174 0.933458 0.123164
H5    H     H_    0.870724 0.770077 0.620752 0.136705
H6    H     H_    0.103376 0.022579 0.899003 0.103967
H7    H     H_    0.844131 0.081009 0.587093 0.130490
H8    H     H_    0.113125 0.178285 0.915406 0.127528
H9    H     H_    0.064256 0.491466 0.882962 0.137113
H10   H     H_    0.114260 0.223685 0.308775 0.153383
H11   H     H_    0.834249 0.034587 0.193851 0.155695
C23   C     C_2   0.135673 0.037381 0.184047 -0.341193
C24   C     C_2   0.972713 0.077763 0.217137 -0.118194
H12   H     H_    0.674584 0.177691 0.294711 0.126901
C25   C     C_2   0.812783 0.220989 0.318482 -0.347735
C26   C     C_2   0.975776 0.180539 0.285460 -0.125827
H13   H     H_    0.273848 0.080712 0.207784 0.124073
C27   C     C_R   0.409997 0.784932 0.677179 -0.071019
C28   C     C_R   0.539064 0.471032 0.828062 -0.093030
C29   C     C_R   0.534324 0.884489 0.818244 -0.125144
C30   C     C_R   0.479413 0.789438 0.754683 -0.138729
C31   C     C_R   0.398946 0.879633 0.664169 -0.211810
C32   C     C_R   0.455635 0.979153 0.729116 0.097415
C33   C     C_R   0.523517 0.978359 0.806365 0.122744
C34   C     C_R   0.450064 0.078929 0.720789 0.052780
C35   C     C_R   0.509731 0.175422 0.789804 0.077180
C36   C     C_R   0.582880 0.166146 0.863333 -0.155431
C37   C     C_R   0.586054 0.070867 0.871565 -0.241802
C38   C     C_R   0.389517 0.084844 0.645267 -0.175381
C39   C     C_R   0.385711 0.179340 0.636136 -0.198900
C40   C     C_R   0.438350 0.273470 0.701825 0.071996
C41   C     C_R   0.499704 0.275900 0.781166 0.095264
C42   C     C_R   0.426434 0.365451 0.687192 -0.131646
C43   C     C_R   0.477534 0.462116 0.748860 -0.173288
C44   C     C_R   0.542933 0.378941 0.845954 0.147693
H14   H     H_    0.643907 0.069369 0.929878 0.120972
H15   H     H_    0.466269 0.531051 0.734680 0.106357
H16   H     H_    0.338125 0.178718 0.576139 0.124520
H17   H     H_    0.588426 0.884544 0.877313 0.144621
H18   H     H_    0.493820 0.718544 0.765961 0.102239
H19   H     H_    0.348673 0.872813 0.603116 0.110553
H20   H     H_    0.648970 0.229693 0.915778 0.187262
H21   H     H_    0.344322 0.016856 0.591152 0.136363
H22   H     H_    0.377092 0.362550 0.626738 0.146107
H23   H     H_    0.349349 0.693212 0.206979 0.183883
H24   H     H_    0.585768 0.557828 0.287421 0.144438
C45   C     C_2   0.316374 0.615625 0.326637 -0.023458
C46   C     C_2   0.465930 0.605038 0.280774 -0.141897
H25   H     H_    0.757723 0.609290 0.191609 0.165211
C47   C     C_2   0.630839 0.648288 0.179257 -0.322026
C48   C     C_2   0.474356 0.653423 0.219896 -0.086005
O11   O     O_R   0.421600 0.630430 0.917010 -0.540055
O12   O     O_R   0.793840 0.702190 0.087630 -0.533425
O13   O     O_R   0.964010 0.886170 0.088190 -0.536515
C49   C     C_R   0.630915 0.692003 0.115366 0.761139
O14   O     O_R   0.751460 0.619510 0.917500 -0.538892
O15   O     O_R   0.921330 0.802900 0.916840 -0.534992
C50   C     C_R   0.574320 0.579165 0.892792 0.689352
O16   O     O_R   0.464290 0.713700 0.088350 -0.539798
O17   O     O_3   0.609200 0.818520 0.002630 -0.378667
V3    V     V_3+5 0.884140 0.747190 0.002530 1.403984
O18   O     O_R   0.251150 0.814630 0.917340 -0.547152
C51   C     C_R   0.074586 0.827151 0.891000 0.725780
O19   O     O_R   0.293530 0.897310 0.087470 -0.543863
C52   C     C_R   0.131493 0.933909 0.116039 0.766121
V4    V     V_3+5 0.384070 0.769710 0.002370 1.382376
O20   O     O_3   0.109180 0.698190 0.002460 -0.373711
N1    N     N_3   0.576300 0.392983 0.930066 -0.713920
H26   H     H_    0.470592 0.440427 0.961847 0.218797
H27   H     H_    0.711967 0.431102 0.954115 0.219633
I1    I     I_    0.083401 0.714023 0.324278 -0.488083
N2    N     N_3   0.955289 0.684219 0.728501 -0.702190
H28   H     H_    0.095611 0.657047 0.725001 0.210220
H29   H     H_    0.875761 0.643877 0.671941 0.251436

loop_
_geom_bond_atom_site_label_1
_geom_bond_atom_site_label_2
_ccdc_geom_bond_type
C33   C37   A    
C23   C52   S    
C13   C19   A    
C4    C6    S    
O2    C1    A    
C7    C8    A    
C1    O6    A    
C28   C44   A    
C3    C25   S    
O14   V3    S    
C44   N1    S    
C14   C15   A    
C1    C27   S    
C16   C17   A    
O5    C3    A    
C18   C19   A    
C32   C34   A    
C41   C44   A    
N2    H28   S    
V2    O10   S    
O19   C52   A    
C5    C8    A    
C31   C32   A    
C37   H14   S    
C28   C43   A    
C23   C24   D    
C30   H18   S    
O8    V2    S    
C47   C48   D    
C40   C42   A    
O12   V3    S    
C17   H4    S    
O1    V2    S    
C11   C15   A    
O11   V4    S    
O7    V1    S    
C36   C37   A    
C27   C30   A    
C38   H21   S    
O13   V3    S    
C35   C41   A    
C34   C35   A    
C31   H19   S    
O9    C4    A    
N1    H26   S    
C42   H22   S    
C45   C46   D    
C24   C26   S    
C8    N2    S    
H11   C24   S    
C36   H20   S    
C45   I1    S    
C42   C43   A    
C12   C13   A    
H24   C46   S    
O4    C2    A    
C15   H1    S    
C13   C14   A    
C23   H13   S    
C21   H3    S    
C35   C36   A    
C7    C11   A    
C17   C18   A    
C29   H17   S    
O14   C50   A    
H25   C47   S    
O17   V4    S    
O18   C51   A    
C28   C50   S    
C19   C22   A    
O15   C51   A    
N1    H27   S    
C6    C22   A    
O16   V4    S    
O3    C4    A    
C7    H5    S    
H12   C25   S    
C2    C45   S    
C25   C26   D    
O6    V2    S    
O19   V4    S    
O12   C49   A    
C10   C12   A    
C47   C49   S    
O2    V1    S    
H23   C48   S    
C29   C33   A    
H10   C26   S    
C29   C30   A    
O1    C2    A    
C12   C16   A    
O5    V1    S    
O8    C3    A    
C46   C48   S    
C34   C38   A    
C20   C21   A    
O9    V2    S    
O7    V2    S    
O4    V1    S    
O3    V1    S    
O11   C50   A    
C39   C40   A    
C18   C20   A    
C32   C33   A    
C9    H6    S    
N2    H29   S    
C43   H15   S    
O18   V4    S    
C16   H8    S    
V4    O20   S    
C20   H9    S    
C22   H2    S    
C39   H16   S    
C49   O16   A    
O17   V3    S    
C6    C21   A    
C5    C9    A    
O13   C52   A    
O15   V3    S    
C38   C39   A    
C27   C31   A    
C40   C41   A    
C10   C11   A    
V1    O10   S    
C9    C10   A    
C5    C51   S    
V3    O20   S    
C14   H7    S    
