data_mof_unit_11998.cif
_audit_creation_date              2012-12-11T15:53:57-0500
_audit_creation_method            fapswitch 2.2
_symmetry_space_group_name_H-M    P1
_symmetry_Int_Tables_number       1
_space_group_crystal_system       triclinic
_cell_length_a                    10.639732
_cell_length_b                    10.807756
_cell_length_c                    17.102621
_cell_angle_alpha                 80.321677
_cell_angle_beta                  99.517146
_cell_angle_gamma                 118.850123
_cell_volume                      1689.95120595

loop_
_atom_site_label
_atom_site_type_symbol
_atom_type_description
_atom_site_fract_x
_atom_site_fract_y
_atom_site_fract_z
_atom_type_partial_charge
C1    C     C_R   0.384112 0.282791 0.632040 0.550208
C2    C     C_R   0.389076 0.826528 0.671484 -0.147803
C3    C     C_R   0.381359 0.850268 0.748136 -0.057190
C4    C     C_3   0.174454 0.460773 0.803396 -0.106079
C5    C     C_3   0.178948 0.434177 0.719437 -0.116916
C6    C     C_R   0.312869 0.689114 0.646710 -0.010711
C7    C     C_1   0.823144 0.656142 0.706088 -0.034467
C8    C     C_1   0.851501 0.684936 0.773560 -0.037938
C9    C     C_1   0.363420 0.230043 0.713838 -0.039976
C10   C     C_1   0.331650 0.182909 0.780721 -0.041141
C11   C     C_1   0.335160 0.664390 0.277882 -0.055265
C12   C     C_R   0.368643 0.654027 0.585664 0.539908
C13   C     C_1   0.322624 0.674370 0.207251 -0.050708
C14   C     C_R   0.862267 0.681579 0.165258 0.000445
C15   C     C_R   0.895558 0.589770 0.221104 0.011021
C16   C     C_R   0.884470 0.583146 0.300247 0.014226
C17   C     C_R   0.833403 0.783933 0.272080 -0.042569
C18   C     C_R   0.844126 0.786880 0.191466 -0.133582
C19   C     C_3   0.840207 0.434142 0.221529 -0.234878
C20   C     C_3   0.824273 0.423748 0.309060 -0.131914
C21   C     C_R   0.840174 0.670680 0.326448 0.019386
C22   C     C_R   0.305657 0.123622 0.171413 -0.011243
C23   C     C_R   0.776198 0.618140 0.626995 0.541899
C24   C     C_R   0.191803 0.122389 0.202100 0.037943
C25   C     C_R   0.198113 0.136928 0.280111 0.000499
C26   C     C_R   0.415110 0.112409 0.308748 -0.072300
C27   C     C_R   0.414196 0.106600 0.226673 -0.068878
C28   C     C_3   0.103758 0.198518 0.174941 -0.140525
C29   C     C_3   0.119315 0.223946 0.261541 -0.239765
C30   C     C_R   0.316458 0.147146 0.333063 -0.014163
C31   C     C_R   0.892878 0.702580 0.855691 0.543428
C32   C     C_R   0.283339 0.750451 0.882618 0.556758
C33   C     C_R   0.285046 0.115448 0.857494 0.529470
C34   C     C_R   0.349256 0.222368 0.401938 0.558127
C35   C     C_R   0.891686 0.692906 0.085068 0.549468
C36   C     C_R   0.312543 0.701863 0.124164 0.547337
C37   C     C_R   0.282674 0.100328 0.087997 0.540211
C38   C     C_R   0.365040 0.653944 0.360805 0.549593
C39   C     C_R   0.772322 0.623176 0.399975 0.543976
C40   C     C_R   0.287866 0.736567 0.799390 -0.010880
C41   C     C_R   0.196958 0.606446 0.768630 0.019218
C42   C     C_R   0.206268 0.583448 0.692813 0.013901
Cr1   Cr    Cr6+3 0.608440 0.389080 0.519680 1.030944
Cr2   Cr    Cr6+3 0.288640 0.400090 0.490760 0.987251
Cr3   Cr    Cr6+3 0.602940 0.710800 0.489510 1.034350
Cr4   Cr    Cr6+3 0.052530 0.947560 0.964210 1.017163
Cr5   Cr    Cr6+3 0.059970 0.626800 0.992920 0.998689
Cr6   Cr    Cr6+3 0.373320 0.938440 0.995370 1.059350
H1    H     H_    0.468824 0.911710 0.635357 0.157032
H2    H     H_    0.735429 0.384015 0.184573 0.141138
H3    H     H_    0.709629 0.365289 0.321803 0.177248
H4    H     H_    0.991472 0.125856 0.152643 0.152111
H5    H     H_    0.189520 0.336786 0.273210 0.160831
H6    H     H_    0.016053 0.173975 0.288466 0.122533
H7    H     H_    0.068306 0.394855 0.827886 0.166381
H8    H     H_    0.271226 0.417830 0.712174 0.150122
H9    H     H_    0.832113 0.867538 0.148635 0.139215
H10   H     H_    0.923981 0.408673 0.208822 0.153210
O1    O     O_R   0.754020 0.497590 0.609930 -0.514813
O2    O     O_R   0.295080 0.533620 0.397890 -0.521193
O3    O     O_R   0.485280 0.746620 0.388440 -0.500022
O4    O     O_R   0.720550 0.696220 0.420010 -0.509842
O5    O     O_3   0.500010 0.499990 0.499980 -0.269617
O6    O     O_R   0.163320 0.092900 0.874450 -0.521128
O7    O     O_R   0.934650 0.822080 0.882840 -0.490883
O8    O     O_R   0.915520 0.604140 0.893670 -0.513664
O9    O     O_R   0.191760 0.638110 0.923230 -0.513375
O10   O     O_R   0.406180 0.826930 0.920660 -0.501771
O11   O     O_R   0.358620 0.062870 0.901950 -0.492683
O12   O     O_R   0.481420 0.271390 0.600630 -0.478495
O13   O     O_R   0.163910 0.085460 0.050210 -0.524815
O14   O     O_R   0.935200 0.815170 0.045770 -0.502282
O15   O     O_R   0.916120 0.596690 0.069430 -0.516194
O16   O     O_R   0.192310 0.631200 0.086170 -0.519799
O17   O     O_R   0.406770 0.819480 0.096420 -0.484092
O18   O     O_R   0.359170 0.055960 0.064880 -0.489532
O19   O     O_3   0.161940 0.837600 0.984160 -0.279936
O20   O     O_R   0.263810 0.254550 0.589590 -0.516797
O21   O     O_R   0.300820 0.531200 0.560890 -0.521629
O22   O     O_R   0.491480 0.744020 0.564270 -0.503340
O23   O     O_R   0.726290 0.693800 0.583010 -0.495190
O24   O     O_R   0.747830 0.500190 0.434090 -0.524667
O25   O     O_R   0.475680 0.273800 0.437630 -0.490783
O26   O     O_R   0.257620 0.257160 0.413750 -0.523634
C43   C     C_3   0.921929 0.372309 0.364305 -0.370709
H11   H     H_    0.880620 0.257344 0.360548 0.139895
H12   H     H_    0.033536 0.430514 0.346919 0.156262
H13   H     H_    0.923240 0.388648 0.426841 0.161774
C44   C     C_1   0.518594 0.087318 0.366721 0.216208
N1    N     N_1   0.600849 0.067034 0.413061 -0.297423
C45   C     C_1   0.528469 0.090793 0.200985 0.227813
N2    N     N_1   0.620280 0.078770 0.180803 -0.317554
C46   C     C_3   0.173055 0.335144 0.119884 -0.389125
H14   H     H_    0.283917 0.407671 0.144311 0.131410
H15   H     H_    0.176786 0.313473 0.059561 0.161336
H16   H     H_    0.102403 0.385328 0.113666 0.164870
C47   C     C_1   0.487596 0.985102 0.775500 0.232871
N3    N     N_1   0.574931 0.092680 0.797093 -0.283201
C48   C     C_3   0.302762 0.462521 0.860979 -0.395451
H17   H     H_    0.407512 0.540706 0.837860 0.138783
H18   H     H_    0.300196 0.487134 0.920757 0.168240
H19   H     H_    0.297001 0.357116 0.869209 0.148322
C49   C     C_3   0.034377 0.324277 0.682585 -0.380210
H20   H     H_    0.040015 0.325650 0.618188 0.162032
H21   H     H_    0.010640 0.216827 0.712413 0.153692
H22   H     H_    0.945171 0.346556 0.689195 0.157813
C50   C     C_3   0.799061 0.892640 0.294377 -0.350163
H23   H     H_    0.867608 0.939377 0.348830 0.146302
H24   H     H_    0.817204 0.979956 0.246037 0.122524
H25   H     H_    0.683467 0.843301 0.303014 0.198165

loop_
_geom_bond_atom_site_label_1
_geom_bond_atom_site_label_2
_ccdc_geom_bond_type
C31   O8    A    
C5    C42   S    
C5    C49   S    
C46   H14   S    
Cr1   O25   S    
C41   C42   A    
C14   C18   A    
C5    H8    S    
C19   C20   S    
Cr6   O11   S    
C39   O24   A    
C47   N3    T    
C49   H22   S    
Cr1   O5    S    
C7    C8    T    
C43   H11   S    
C26   C44   S    
C15   C19   S    
C26   C27   A    
C16   C21   A    
C28   C29   S    
C36   O17   A    
C20   H3    S    
C17   C50   S    
C6    C12   S    
C4    C41   S    
C15   C16   A    
C12   O21   A    
Cr3   O4    S    
Cr6   O18   S    
C50   H23   S    
C27   C45   S    
C10   C33   S    
C9    C10   T    
Cr5   O8    S    
Cr4   O14   S    
Cr1   O1    S    
C32   O10   A    
C38   O3    A    
C46   H15   S    
C1    O20   A    
C50   H24   S    
Cr6   O17   S    
C2    C6    A    
C34   O26   A    
Cr5   O9    S    
C43   H12   S    
Cr2   O5    S    
C25   C29   S    
C30   C34   S    
C1    C9    S    
C24   C25   A    
Cr5   O15   S    
C13   C36   S    
C45   N2    T    
C22   C37   S    
Cr3   O5    S    
C17   C21   A    
Cr4   O6    S    
C28   C46   S    
Cr6   O19   S    
C11   C38   S    
C23   O1    A    
C2    H1    S    
C3    C47   S    
C18   H9    S    
C48   H17   S    
C21   C39   S    
C16   C20   S    
C20   C43   S    
C17   C18   A    
C49   H21   S    
Cr6   O10   S    
Cr4   O13   S    
C36   O16   A    
Cr4   O7    S    
C32   O9    A    
C38   O2    A    
C40   C41   A    
C48   H18   S    
C37   O18   A    
C3    C40   A    
C26   C30   A    
C46   H16   S    
C22   C27   A    
C37   O13   A    
C4    H7    S    
C6    C42   A    
C50   H25   S    
C22   C24   A    
C34   O25   A    
Cr5   O19   S    
C14   C35   S    
C43   H13   S    
C25   C30   A    
C31   O7    A    
C39   O4    A    
C35   O15   A    
C23   O23   A    
C8    C31   S    
Cr2   O21   S    
Cr3   O23   S    
C24   C28   S    
Cr5   O16   S    
C4    C5    S    
Cr2   O26   S    
C35   O14   A    
Cr4   O19   S    
C28   H4    S    
C33   O11   A    
Cr1   O12   S    
C19   H10   S    
C1    O12   A    
Cr2   O20   S    
C2    C3    A    
C11   C13   T    
C19   H2    S    
C29   H5    S    
Cr2   O2    S    
C33   O6    A    
C7    C23   S    
C12   O22   A    
Cr3   O3    S    
Cr3   O22   S    
C32   C40   S    
C48   H19   S    
C29   H6    S    
C4    C48   S    
C49   H20   S    
Cr1   O24   S    
C14   C15   A    
C44   N1    T    
