data_mof_unit_62480.cif
_audit_creation_date              2012-10-26T19:17:33-0400
_audit_creation_method            fapswitch 2.2
_symmetry_space_group_name_H-M    P1
_symmetry_Int_Tables_number       1
_space_group_crystal_system       triclinic
_cell_length_a                    14.35334
_cell_length_b                    15.865617
_cell_length_c                    17.126361
_cell_angle_alpha                 96.858915
_cell_angle_beta                  91.333453
_cell_angle_gamma                 92.841586
_cell_volume                      3865.74427833

loop_
_atom_site_label
_atom_site_type_symbol
_atom_type_description
_atom_site_fract_x
_atom_site_fract_y
_atom_site_fract_z
_atom_type_partial_charge
C1    C     C_R   0.499211 0.489319 0.348507 0.550119
C2    C     C_R   0.539017 0.160451 0.541471 -0.120420
C3    C     C_R   0.514801 0.891714 0.517262 0.183565
C4    C     C_R   0.485200 0.108286 0.482738 0.183563
C5    C     C_R   0.564904 0.851833 0.571313 -0.092264
C6    C     C_R   0.435093 0.148167 0.428690 -0.092261
C7    C     C_R   0.563386 0.762620 0.567370 0.140769
C8    C     C_R   0.436611 0.237380 0.432632 0.140767
C9    C     C_R   0.330930 0.499750 0.499849 0.542885
C10   C     C_R   0.669070 0.500250 0.500151 0.542885
C11   C     C_1   0.228627 0.499366 0.499830 -0.034771
C12   C     C_R   0.500789 0.510681 0.651493 0.550121
C13   C     C_1   0.771373 0.500634 0.500170 -0.034773
C14   C     C_1   0.143261 0.499450 0.499868 -0.030791
C15   C     C_1   0.856739 0.500550 0.500132 -0.030793
C16   C     C_1   0.042675 0.499814 0.499957 0.010785
C17   C     C_1   0.957325 0.500186 0.500043 0.010784
C18   C     C_R   0.498652 0.483550 0.262354 0.002119
C19   C     C_R   0.501346 0.516450 0.737646 0.002117
C20   C     C_R   0.499261 0.558075 0.225689 -0.153796
C21   C     C_R   0.500732 0.441924 0.774310 -0.153797
C22   C     C_R   0.499226 0.553617 0.144189 -0.083299
C23   C     C_R   0.497655 0.399813 0.134268 -0.097533
C24   C     C_R   0.500766 0.446383 0.855811 -0.083300
C25   C     C_R   0.498585 0.474009 0.097590 0.226373
C26   C     C_R   0.501412 0.525990 0.902410 0.226372
C27   C     C_2   0.621524 0.726941 0.626958 0.244570
C28   C     C_2   0.378469 0.273058 0.373046 0.244569
C29   C     C_R   0.502345 0.600186 0.865732 -0.097532
C30   C     C_R   0.497722 0.404289 0.216055 -0.137342
C31   C     C_R   0.502279 0.595711 0.783945 -0.137341
C32   C     C_R   0.459657 0.750088 0.456118 0.011520
C33   C     C_R   0.540346 0.249912 0.543880 0.011520
C34   C     C_R   0.460987 0.839549 0.458528 -0.120419
Cu1   Cu    Cu3+1 0.495850 0.415220 0.496180 0.931964
Cu2   Cu    Cu3+1 0.504150 0.584780 0.503820 0.931967
H1    H     H_    0.500194 0.379893 0.740093 0.132892
H2    H     H_    0.417519 0.711027 0.411166 0.131132
H3    H     H_    0.579836 0.132919 0.584950 0.132614
H4    H     H_    0.420170 0.867082 0.415047 0.132614
H5    H     H_    0.606912 0.891248 0.616363 0.161930
H6    H     H_    0.393084 0.108751 0.383641 0.161937
H7    H     H_    0.646851 0.664117 0.617094 0.162119
H8    H     H_    0.353153 0.335887 0.382905 0.162131
H9    H     H_    0.499796 0.620107 0.259907 0.132889
H10   H     H_    0.500225 0.387494 0.881910 0.142174
H11   H     H_    0.499764 0.612506 0.118090 0.142174
H12   H     H_    0.497100 0.338268 0.099198 0.133035
H13   H     H_    0.502903 0.661732 0.900802 0.133038
H14   H     H_    0.497366 0.345850 0.242894 0.166587
H15   H     H_    0.502638 0.654150 0.757107 0.166605
H16   H     H_    0.582487 0.288973 0.588831 0.131133
N1    N     N_2   0.498921 0.465574 0.014207 -0.245563
N2    N     N_2   0.501075 0.534425 0.985793 -0.245563
N3    N     N_R   0.510380 0.712130 0.509560 -0.245078
N4    N     N_R   0.489620 0.287870 0.490440 -0.245079
N5    N     N_2   0.521903 0.983153 0.525440 -0.232175
N6    N     N_2   0.478098 0.016847 0.474561 -0.232176
O1    O     O_R   0.496120 0.420530 0.382500 -0.514627
O2    O     O_2   0.356112 0.230707 0.310501 -0.539508
O3    O     O_R   0.503880 0.579470 0.617500 -0.514619
O4    O     O_R   0.503120 0.563720 0.388950 -0.500782
O5    O     O_R   0.496880 0.436280 0.611050 -0.500782
O6    O     O_R   0.372550 0.428390 0.496770 -0.506582
O7    O     O_R   0.627450 0.571610 0.503230 -0.506582
O8    O     O_R   0.379550 0.571580 0.503220 -0.472641
O9    O     O_R   0.620450 0.428420 0.496780 -0.472642
O10   O     O_2   0.643861 0.769287 0.689512 -0.539508

loop_
_geom_bond_atom_site_label_1
_geom_bond_atom_site_label_2
_ccdc_geom_bond_type
C2    C4    A    
C15   C17   S    
Cu1   O6    S    
C18   C30   A    
C7    N3    A    
C9    O6    A    
C2    H3    S    
C32   N3    A    
Cu1   Cu2   S    
Cu1   O9    S    
C24   H10   S    
C1    O4    A    
C8    N4    A    
C33   N4    A    
C23   C25   A    
C22   H11   S    
C30   H14   S    
C19   C31   A    
C29   C31   A    
Cu2   N3    S    
C29   H13   S    
N1    N2    D    
C23   H12   S    
C33   H16   S    
C12   O3    A    
C9    C11   S    
N5    N6    D    
C28   O2    D    
C26   C29   A    
Cu2   O4    S    
C26   N2    S    
C12   C19   S    
Cu1   O1    S    
C31   H15   S    
C19   C21   A    
C1    O1    A    
C24   C26   A    
C18   C20   A    
C32   H2    S    
C13   C15   T    
Cu2   O7    S    
C8    C28   S    
C11   C14   T    
C14   C16   S    
C10   O9    A    
C21   C24   A    
C5    H5    S    
Cu2   O3    S    
C23   C30   A    
C3    N5    S    
C7    C27   S    
C2    C33   A    
C21   H1    S    
C4    C6    A    
C6    H6    S    
C10   O7    A    
C4    N6    S    
C5    C7    A    
C27   H7    S    
C1    C18   S    
C9    O8    A    
C34   H4    S    
C6    C8    A    
C27   O10   D    
Cu2   O8    S    
C3    C34   A    
Cu1   N4    S    
C12   O5    A    
C22   C25   A    
Cu1   O5    S    
C28   H8    S    
C25   N1    S    
C20   H9    S    
C20   C22   A    
C16   C17   T    
C3    C5    A    
C10   C13   S    
C32   C34   A    
