data_mof_unit_40641.cif
_audit_creation_date              2012-12-10T18:35:15-0500
_audit_creation_method            fapswitch 2.2
_symmetry_space_group_name_H-M    P1
_symmetry_Int_Tables_number       1
_space_group_crystal_system       triclinic
_cell_length_a                    14.799557
_cell_length_b                    15.399306
_cell_length_c                    16.617222
_cell_angle_alpha                 90.953612
_cell_angle_beta                  99.747681
_cell_angle_gamma                 99.601228
_cell_volume                      3676.2287169

loop_
_atom_site_label
_atom_site_type_symbol
_atom_type_description
_atom_site_fract_x
_atom_site_fract_y
_atom_site_fract_z
_atom_type_partial_charge
C1    C     C_R   0.558424 0.663006 0.514306 0.889244
C2    C     C_R   0.454547 0.186816 0.526125 -0.284857
C3    C     C_R   0.542594 0.897632 0.549649 0.020818
C4    C     C_R   0.428420 0.095168 0.518477 0.028569
C5    C     C_R   0.624133 0.929777 0.607516 -0.064098
C6    C     C_R   0.342014 0.058475 0.468152 -0.066837
C7    C     C_R   0.472115 0.949541 0.529479 0.005189
C8    C     C_R   0.490517 0.039494 0.554239 0.009642
C9    C     C_R   0.571234 0.070694 0.612540 -0.293218
C10   C     C_R   0.382828 0.913253 0.486790 -0.299801
C11   C     C_R   0.635900 0.016952 0.639660 0.583314
C12   C     C_R   0.441023 0.336922 0.487628 0.891183
C13   C     C_R   0.318674 0.966067 0.457270 0.576461
C14   C     C_R   0.177735 0.659142 0.406978 0.146387
C15   C     C_R   0.824259 0.352043 0.614770 0.136746
C16   C     C_R   0.512755 0.502369 0.349114 0.869494
C17   C     C_R   0.489907 0.504478 0.651317 0.855127
C18   C     C_R   0.258788 0.622511 0.409444 -0.166900
C19   C     C_R   0.736857 0.373256 0.585633 -0.214120
C20   C     C_R   0.207128 0.511295 0.495970 0.719228
C21   C     C_R   0.803397 0.504319 0.529991 0.729866
C22   C     C_R   0.128264 0.549272 0.503765 -0.178593
C23   C     C_R   0.592594 0.756325 0.538926 -0.135445
C24   C     C_R   0.894612 0.487992 0.558866 -0.202276
C25   C     C_R   0.115619 0.627001 0.460671 -0.112762
C26   C     C_R   0.905220 0.410596 0.602632 -0.031599
C27   C     C_R   0.059790 0.511258 0.549866 -0.013234
C28   C     C_R   0.974738 0.542537 0.539772 -0.026948
C29   C     C_R   0.976656 0.631495 0.520582 0.297808
C30   C     C_R   0.074220 0.448823 0.610452 0.213335
C31   C     C_R   0.044683 0.673106 0.477110 0.132974
C32   C     C_R   0.996425 0.395883 0.634484 0.149230
C33   C     C_R   0.529590 0.529067 0.267664 -0.116510
C34   C     C_R   0.401516 0.242445 0.482427 -0.140962
C35   C     C_R   0.494668 0.529635 0.737129 -0.142777
C36   C     C_R   0.475845 0.585399 0.222280 0.210689
C37   C     C_R   0.553318 0.495472 0.799964 0.219471
C38   C     C_R   0.505153 0.623955 0.153926 -0.276006
C39   C     C_R   0.566574 0.532558 0.878924 -0.234929
C40   C     C_R   0.581163 0.600313 0.123982 0.131940
C41   C     C_R   0.523764 0.603742 0.896335 0.106013
C42   C     C_R   0.634764 0.544061 0.168811 0.233439
C43   C     C_R   0.465977 0.638313 0.833562 0.235267
C44   C     C_R   0.609640 0.510426 0.240976 -0.281668
C45   C     C_R   0.690158 0.873043 0.630828 0.164472
C46   C     C_R   0.451659 0.600746 0.754608 -0.333379
C47   C     C_2   0.596621 0.623041 0.040929 -0.219731
C48   C     C_2   0.524469 0.629454 0.981707 -0.203853
C49   C     C_3   0.310607 0.540347 0.210174 -0.763294
C50   C     C_3   0.696320 0.434645 0.802579 -0.791247
C51   C     C_3   0.979167 0.794711 0.407523 -0.791571
C52   C     C_3   0.024141 0.360517 0.777433 -0.774900
C53   C     C_3   0.220033 0.759130 0.297096 -0.727700
C54   C     C_3   0.796519 0.258883 0.727239 -0.678387
C55   C     C_3   0.983693 0.710054 0.647670 -0.828663
C56   C     C_R   0.283619 0.115585 0.428596 0.166236
C57   C     C_3   0.199741 0.530071 0.710138 -0.774370
C58   C     C_3   0.694198 0.433806 0.098920 -0.815022
C59   C     C_3   0.482847 0.795211 0.858431 -0.779572
C60   C     C_3   0.183867 0.284595 0.400308 -0.629366
C61   C     C_3   0.708261 0.686094 0.706292 -0.711726
C62   C     C_3   0.852090 0.942720 0.655306 -0.728751
C63   C     C_3   0.119038 0.062061 0.424234 -0.699799
C64   C     C_R   0.671115 0.784875 0.599439 0.151638
C65   C     C_R   0.315718 0.207313 0.433019 0.154593
C66   C     C_R   0.533975 0.814884 0.510950 -0.276684
F1    F     F_    0.787993 0.572899 0.482438 -0.671050
F2    F     F_    0.221470 0.433800 0.528233 -0.678110
F3    F     F_    0.710259 0.052836 0.696385 -0.717523
F4    F     F_    0.236039 0.924733 0.414715 -0.712520
H1    H     H_    0.584940 0.136046 0.641009 0.160449
H2    H     H_    0.465359 0.670138 0.122757 0.142775
H3    H     H_    0.520300 0.217000 0.561654 0.159714
H4    H     H_    0.479140 0.793135 0.459460 0.162787
H5    H     H_    0.381944 0.668006 0.234843 0.206890
H6    H     H_    0.249460 0.554650 0.235171 0.229255
H7    H     H_    0.320857 0.472501 0.226350 0.252700
H8    H     H_    0.296063 0.543738 0.142548 0.225498
H9    H     H_    0.563841 0.377486 0.737994 0.225238
H10   H     H_    0.723100 0.434868 0.744147 0.250120
H11   H     H_    0.719088 0.380290 0.839401 0.238656
H12   H     H_    0.359992 0.842959 0.476800 0.173993
H13   H     H_    0.727318 0.498163 0.836938 0.238363
H14   H     H_    0.117204 0.802789 0.471015 0.296643
H15   H     H_    0.008800 0.825117 0.355488 0.257393
H16   H     H_    0.949908 0.845454 0.438152 0.238077
H17   H     H_    0.922009 0.739311 0.383401 0.250503
H18   H     H_    0.054386 0.288615 0.680556 0.215603
H19   H     H_    0.008176 0.303289 0.815465 0.244249
H20   H     H_    0.977828 0.408430 0.786354 0.241558
H21   H     H_    0.097566 0.392025 0.798652 0.228085
H22   H     H_    0.087078 0.710691 0.319306 0.239564
H23   H     H_    0.675037 0.329973 0.596186 0.174168
H24   H     H_    0.193101 0.812927 0.261999 0.254445
H25   H     H_    0.227595 0.707036 0.253048 0.206941
H26   H     H_    0.288640 0.787495 0.334097 0.250535
H27   H     H_    0.800650 0.216560 0.609360 0.238421
H28   H     H_    0.817120 0.198911 0.755784 0.284690
H29   H     H_    0.719512 0.252147 0.717738 0.221676
H30   H     H_    0.828186 0.316149 0.769896 0.227413
H31   H     H_    0.907204 0.735906 0.536539 0.260267
H32   H     H_    0.947717 0.752925 0.680755 0.236203
H33   H     H_    0.991864 0.650915 0.683820 0.250515
H34   H     H_    0.313079 0.650086 0.376713 0.185070
H35   H     H_    0.053584 0.747705 0.643529 0.244392
H36   H     H_    0.178144 0.394332 0.685144 0.237179
H37   H     H_    0.267307 0.523536 0.748047 0.241549
H38   H     H_    0.150183 0.539556 0.751488 0.223792
H39   H     H_    0.210675 0.588913 0.672940 0.241254
H40   H     H_    0.771294 0.526489 0.185950 0.231285
H41   H     H_    0.681205 0.381216 0.142640 0.241420
H42   H     H_    0.755124 0.423915 0.071202 0.243492
H43   H     H_    0.632530 0.428397 0.049530 0.251496
H44   H     H_    0.360258 0.711929 0.809934 0.223541
H45   H     H_    0.409454 0.629822 0.706093 0.178645
H46   H     H_    0.508634 0.810899 0.800361 0.240445
H47   H     H_    0.542992 0.795245 0.908508 0.255494
H48   H     H_    0.444095 0.847273 0.873778 0.239547
H49   H     H_    0.261735 0.244361 0.318036 0.211280
H50   H     H_    0.122263 0.239839 0.365980 0.210013
H51   H     H_    0.178192 0.352921 0.382786 0.240811
H52   H     H_    0.183529 0.279923 0.466932 0.271117
H53   H     H_    0.798465 0.748125 0.634678 0.252287
H54   H     H_    0.727771 0.736720 0.757477 0.222391
H55   H     H_    0.748168 0.631697 0.720928 0.240045
H56   H     H_    0.652581 0.468638 0.275647 0.180423
H57   H     H_    0.633069 0.658989 0.699675 0.239331
H58   H     H_    0.764667 0.928193 0.743486 0.281407
H59   H     H_    0.838836 0.006244 0.629178 0.273638
H60   H     H_    0.866696 0.899366 0.606676 0.218373
H61   H     H_    0.914469 0.955750 0.704242 0.233273
H62   H     H_    0.195717 0.038002 0.333074 0.270582
H63   H     H_    0.128389 0.005939 0.463990 0.277759
H64   H     H_    0.052655 0.044223 0.380392 0.223625
H65   H     H_    0.114147 0.119720 0.463218 0.222040
H66   H     H_    0.457444 0.637650 0.995704 0.172396
H67   H     H_    0.662774 0.615710 0.023964 0.181655
H68   H     H_    0.607217 0.502309 0.927331 0.165741
N1    N     N_R   0.271750 0.551950 0.454510 -0.156691
N2    N     N_2   0.164776 0.451407 0.657783 -0.231385
N3    N     N_2   0.713064 0.519683 0.140825 -0.324746
N4    N     N_2   0.421770 0.710576 0.849473 -0.320010
N5    N     N_2   0.268412 0.262597 0.379049 -0.298334
N6    N     N_2   0.728969 0.724050 0.631121 -0.262654
N7    N     N_2   0.772951 0.900252 0.689056 -0.301673
N8    N     N_2   0.195357 0.082955 0.379581 -0.293004
N9    N     N_R   0.728250 0.448050 0.545490 -0.145569
N10   N     N_2   0.392103 0.604056 0.244448 -0.292263
N11   N     N_2   0.595550 0.421191 0.786138 -0.297609
N12   N     N_2   0.051613 0.765523 0.465362 -0.306134
N13   N     N_2   0.009922 0.330153 0.692561 -0.270685
N14   N     N_2   0.155121 0.723755 0.349335 -0.263086
N15   N     N_2   0.829369 0.269081 0.650161 -0.267486
N16   N     N_2   0.930988 0.684038 0.566592 -0.257631
O1    O     O_R   0.615140 0.606020 0.522930 -0.525178
O2    O     O_R   0.384860 0.393980 0.477070 -0.527243
O3    O     O_R   0.468580 0.639400 0.493740 -0.636889
O4    O     O_R   0.531420 0.360600 0.506260 -0.640164
O5    O     O_R   0.581950 0.481350 0.400520 -0.585013
O6    O     O_R   0.418050 0.518650 0.599480 -0.569085
O7    O     O_R   0.435380 0.514730 0.371330 -0.586943
O8    O     O_R   0.564620 0.485270 0.628670 -0.613840
Zn1   Zn    Zn3+2 0.597860 0.477710 0.519490 0.990690
Zn2   Zn    Zn3+2 0.402140 0.522290 0.480510 0.994831

loop_
_geom_bond_atom_site_label_1
_geom_bond_atom_site_label_2
_ccdc_geom_bond_type
C25   C31   A    
C55   N16   S    
C30   C32   A    
C26   C32   A    
C40   C47   S    
O6    Zn2   S    
H49   N5    S    
C62   H60   S    
C52   H20   S    
C50   N11   S    
C4    C8    A    
C51   H15   S    
C54   N15   S    
C7    C8    A    
C39   C41   A    
C15   C19   A    
C55   H32   S    
C44   H56   S    
C46   H45   S    
C55   H35   S    
C61   H54   S    
C45   N7    S    
H44   N4    S    
C23   C66   A    
N1    Zn2   S    
C35   C37   A    
C24   C26   A    
C5    C11   A    
C3    C7    A    
C60   N5    S    
C65   N5    S    
H58   N7    S    
C53   H25   S    
C13   F4    S    
C56   C65   A    
C66   H4    S    
C55   H33   S    
C33   C36   A    
C49   H8    S    
C51   H16   S    
C7    C10   A    
C1    O1    A    
C17   O6    A    
C14   C18   A    
C36   N10   S    
C57   H39   S    
C51   N12   S    
C49   H7    S    
C59   H46   S    
C62   N7    S    
H53   N6    S    
H22   N14   S    
C53   N14   S    
H27   N15   S    
C63   N8    S    
C19   H23   S    
H9    N11   S    
C2    C34   A    
C40   C42   A    
C39   H68   S    
C59   H47   S    
C21   F1    S    
C27   C30   A    
C41   C43   A    
C62   H59   S    
C54   H30   S    
C52   H19   S    
C18   N1    A    
C42   C44   A    
C12   O2    A    
C34   C65   A    
C48   H66   S    
C50   H13   S    
C38   H2    S    
C30   N2    S    
C58   H41   S    
C63   H64   S    
C9    H1    S    
C59   N4    S    
C4    C6    A    
C51   H17   S    
C31   N12   S    
C8    C9    A    
C15   C26   A    
C64   N6    S    
O1    Zn1   S    
C5    C45   A    
C22   C25   A    
C19   N9    A    
C57   N2    S    
C63   H65   S    
H40   N3    S    
C2    C4    A    
C16   C33   S    
C58   H43   S    
C61   N6    S    
H36   N2    S    
C47   C48   D    
C37   N11   S    
C47   H67   S    
C42   N3    S    
C49   H6    S    
C61   H57   S    
C18   H34   S    
C60   H52   S    
C9    C11   A    
O3    Zn2   S    
O2    Zn2   S    
C2    H3    S    
O4    Zn1   S    
C16   O5    A    
C23   C64   A    
C57   H37   S    
C20   C22   A    
C1    C23   S    
C59   H48   S    
C22   C27   A    
C16   O7    A    
H18   N13   S    
C58   H42   S    
C54   H29   S    
C3    C66   A    
C12   C34   S    
C63   H63   S    
O7    Zn2   S    
C20   N1    A    
O8    Zn1   S    
C28   C29   A    
C53   H24   S    
C33   C44   A    
C62   H61   S    
C20   F2    S    
C24   C28   A    
C6    C56   A    
C3    C5    A    
C10   C13   A    
C50   H10   S    
C11   F3    S    
H5    N10   S    
C45   C64   A    
H62   N8    S    
C1    O3    A    
C37   C39   A    
N9    Zn1   S    
C6    C13   A    
C38   C40   A    
C58   N3    S    
C32   N13   S    
H31   N16   S    
C52   N13   S    
C36   C38   A    
C41   C48   S    
C10   H12   S    
C60   H50   S    
O5    Zn1   S    
C14   C25   A    
C56   N8    S    
C60   H51   S    
C43   C46   A    
C15   N15   S    
C17   O8    A    
C21   N9    A    
C57   H38   S    
C49   N10   S    
C29   C31   A    
C21   C24   A    
C14   N14   S    
C27   C28   A    
C54   H28   S    
C43   N4    S    
C61   H55   S    
C17   C35   S    
C52   H21   S    
C12   O4    A    
C35   C46   A    
C50   H11   S    
C29   N16   S    
C53   H26   S    
H14   N12   S    
