data_mof_unit_44408.cif
_audit_creation_date              2013-03-05T15:55:02-0500
_audit_creation_method            fapswitch 2.2
_symmetry_space_group_name_H-M    P1
_symmetry_Int_Tables_number       1
_space_group_crystal_system       triclinic
_cell_length_a                    6.934641
_cell_length_b                    14.54156
_cell_length_c                    16.203242
_cell_angle_alpha                 90.443419
_cell_angle_beta                  89.98676
_cell_angle_gamma                 90.052941
_cell_volume                      1633.89332551

loop_
_atom_site_label
_atom_site_type_symbol
_atom_site_description
_atom_site_fract_x
_atom_site_fract_y
_atom_site_fract_z
_atom_type_partial_charge
O1    O     O_R   0.505810 0.583360 0.413880 -0.602538
O2    O     O_R   0.175870 0.595480 0.585520 -0.550933
O3    O     O_R   0.005540 0.416640 0.586120 -0.601220
C1    C     C_R   0.344405 0.617116 0.615119 0.955310
O4    O     O_R   0.176100 0.594390 0.414490 -0.607678
O5    O     O_R   0.005770 0.415540 0.413870 -0.576121
C2    C     C_R   0.345224 0.616464 0.385734 0.915318
O6    O     O_R   0.505580 0.584460 0.586130 -0.607014
O7    O     O_3   0.339190 0.441320 0.500000 -0.240205
V1    V     V_3+5 0.064350 0.510890 0.500000 1.204319
O8    O     O_R   0.676050 0.404520 0.414480 -0.559993
C3    C     C_R   0.844586 0.381196 0.386366 0.956865
O9    O     O_R   0.675830 0.405610 0.585510 -0.597369
C4    C     C_R   0.845017 0.383826 0.613828 1.018438
V2    V     V_3+5 0.564340 0.489110 0.500000 1.212529
O10   O     O_3   0.839370 0.558680 0.500000 -0.280515
C5    C     C_2   0.720543 0.209252 0.786329 -0.073727
C6    C     C_2   0.885815 0.181892 0.822620 -0.458121
H1    H     H_    0.584521 0.180707 0.807377 0.136782
H2    H     H_    0.023558 0.209688 0.803649 0.155049
C7    C     C_2   0.708127 0.277659 0.718344 -0.074073
C8    C     C_2   0.861570 0.315877 0.680823 -0.449432
H3    H     H_    0.564079 0.296463 0.698339 0.135655
H4    H     H_    0.006782 0.297876 0.699033 0.157635
C9    C     C_R   0.023962 0.248670 0.198341 -0.123992
H5    H     H_    0.146099 0.252025 0.156794 0.126720
C10   C     C_R   0.009871 0.313111 0.262777 -0.075361
H6    H     H_    0.121121 0.365047 0.268710 0.152782
C11   C     C_R   0.853470 0.311693 0.318211 -0.307037
C12   C     C_R   0.709721 0.243200 0.307318 0.385913
C13   C     C_R   0.723603 0.180003 0.241657 -0.229921
H7    H     H_    0.612481 0.128075 0.234564 0.156589
C14   C     C_R   0.879750 0.182102 0.186536 -0.179165
C15   C     C_R   0.188687 0.705678 0.733602 0.664565
C16   C     C_R   0.202220 0.769953 0.798670 -0.303782
H8    H     H_    0.072733 0.787310 0.832786 0.152592
C17   C     C_R   0.379577 0.810487 0.820151 -0.196365
C18   C     C_R   0.543965 0.786575 0.774065 -0.114445
H9    H     H_    0.682793 0.816895 0.788419 0.146170
C19   C     C_R   0.530619 0.724912 0.707428 -0.186313
H10   H     H_    0.659299 0.710096 0.672063 0.207955
C20   C     C_R   0.353632 0.683870 0.685711 -0.320223
C21   C     C_R   0.188521 0.723116 0.283726 -0.138055
H11   H     H_    0.047732 0.704679 0.307329 0.120498
C22   C     C_R   0.199765 0.786238 0.218987 -0.126729
H12   H     H_    0.067066 0.814604 0.194924 0.124138
C23   C     C_R   0.379375 0.812422 0.185934 -0.125190
C24   C     C_R   0.547421 0.773681 0.219570 -0.136104
H13   H     H_    0.688205 0.792124 0.195965 0.119968
C25   C     C_R   0.536177 0.710554 0.284310 -0.129363
H14   H     H_    0.668869 0.682187 0.308378 0.121127
C26   C     C_R   0.356561 0.684368 0.317359 -0.122854
O11   O     O_R   0.230120 0.912300 0.917180 -0.595539
O12   O     O_R   0.559740 0.902430 0.088770 -0.600444
O13   O     O_R   0.729930 0.081310 0.089370 -0.596077
C27   C     C_R   0.390652 0.880324 0.117553 0.921988
O14   O     O_R   0.559840 0.901330 0.917750 -0.604201
O15   O     O_R   0.730030 0.080210 0.917120 -0.596096
C28   C     C_R   0.390838 0.878911 0.888937 0.959519
O16   O     O_R   0.230020 0.913400 0.089430 -0.596238
O17   O     O_3   0.396460 0.055470 0.003290 -0.273977
V3    V     V_3+5 0.671360 0.985960 0.003250 1.150353
O18   O     O_R   0.059740 0.091300 0.917690 -0.603926
C29   C     C_R   0.891045 0.113274 0.889502 1.013788
O19   O     O_R   0.059640 0.092400 0.088720 -0.596374
C30   C     C_R   0.890799 0.114454 0.117578 0.950315
V4    V     V_3+5 0.171350 0.007820 0.003190 1.155029
O20   O     O_3   0.896380 0.938200 0.003220 -0.282740
N1    N     N_R   0.553308 0.233720 0.364209 0.229629
O21   O     O_R   0.403660 0.286948 0.357756 -0.402570
O22   O     O_R   0.540616 0.159778 0.408539 -0.394305
O23   O     O_3   0.011031 0.668015 0.714658 -0.625158
C31   C     C_3   0.975231 0.594426 0.768708 -0.268540
H15   H     H_    0.960197 0.619081 0.833565 0.131773
H16   H     H_    0.089829 0.541004 0.764092 0.121612
H17   H     H_    0.836952 0.561437 0.750774 0.169101

loop_
_geom_bond_atom_site_label_1
_geom_bond_atom_site_label_2
_geom_bond_distance
_ccdc_geom_bond_type
O15   V3    2.004965 S    
C3    C11   1.492528 S    
C10   C11   1.408311 A    
C31   H15   1.112652 S    
C16   H8    1.083342 S    
C15   C20   1.416873 A    
C1    O6    1.301024 A    
O13   C30   1.296738 A    
O11   C28   1.297936 A    
O14   V3    2.001049 S    
C22   H12   1.082738 S    
C17   C18   1.405126 A    
C16   C17   1.406026 A    
C2    C26   1.491777 S    
O5    C3    1.301213 A    
C12   C13   1.403818 A    
C21   C26   1.406648 A    
O14   C28   1.301900 A    
V2    O10   2.158108 S    
O13   V3    2.000982 S    
C15   C16   1.406628 A    
N1    O22   1.300603 A    
O8    V2    2.002058 S    
C13   H7    1.083903 S    
O16   V4    2.008561 S    
O19   V4    2.002080 S    
C25   C26   1.408961 A    
C13   C14   1.403944 A    
O1    V2    2.005301 S    
O7    V1    2.158594 S    
C19   C20   1.407832 A    
C7    C8    1.347060 D    
C31   H16   1.113927 S    
O17   V3    2.158550 S    
C14   C30   1.484957 S    
C5    C6    1.349956 D    
O12   C27   1.302740 A    
C22   C23   1.408947 A    
O15   C29   1.296262 A    
O18   V4    2.005044 S    
V4    O20   2.158082 S    
O4    C2    1.302687 A    
O12   V3    2.004625 S    
C9    H5    1.083104 S    
C5    C7    1.492501 S    
C27   O16   1.297862 A    
O2    C1    1.300835 A    
C21   H11   1.082720 S    
C11   C12   1.418583 A    
O17   V4    1.707338 S    
C23   C24   1.406661 A    
C25   H14   1.082738 S    
C21   C22   1.401315 A    
C17   C28   1.490338 S    
O3    C4    1.292481 A    
C24   H13   1.082719 S    
O6    V2    2.001752 S    
O9    V2    2.005009 S    
C31   H17   1.109592 S    
C8    H4    1.082337 S    
O2    V1    2.000917 S    
C15   O23   1.381402 S    
C12   N1    1.430552 S    
C19   H10   1.081337 S    
O1    C2    1.297865 A    
O23   C31   1.409853 S    
O5    V1    2.001108 S    
O8    C3    1.298688 A    
C9    C10   1.400968 A    
V3    O20   1.708592 S    
C4    C8    1.478085 S    
C7    H3    1.086146 S    
O7    V2    1.708421 S    
O4    V1    2.004595 S    
O3    V1    2.005047 S    
V1    O10   1.708517 S    
C18   C19   1.401185 A    
C6    C29   1.479256 S    
C18   H9    1.083070 S    
C1    C20   1.495795 S    
C24   C25   1.401386 A    
C5    H1    1.086130 S    
C6    H2    1.082278 S    
N1    O21   1.299899 A    
O11   V4    2.002123 S    
O18   C29   1.297083 A    
O19   C30   1.300192 A    
C10   H6    1.082880 S    
O9    C4    1.300223 A    
C9    C14   1.403266 A    
C23   C27   1.491786 S    
