data_mof_unit_33674.cif
_audit_creation_date              2012-12-10T17:50:33-0500
_audit_creation_method            fapswitch 2.2
_symmetry_space_group_name_H-M    P1
_symmetry_Int_Tables_number       1
_space_group_crystal_system       triclinic
_cell_length_a                    15.721952
_cell_length_b                    10.726068
_cell_length_c                    9.919398
_cell_angle_alpha                 89.819738
_cell_angle_beta                  90.410667
_cell_angle_gamma                 92.151949
_cell_volume                      1671.52540595

loop_
_atom_site_label
_atom_site_type_symbol
_atom_type_description
_atom_site_fract_x
_atom_site_fract_y
_atom_site_fract_z
_atom_type_partial_charge
C1    C     C_R   0.505328 0.260077 0.501486 0.865133
C2    C     C_3   0.082937 0.495497 0.498780 0.152193
C3    C     C_3   0.974749 0.586532 0.581055 -0.196627
C4    C     C_3   0.917040 0.495353 0.499809 0.152397
C5    C     C_3   0.030622 0.606566 0.454172 -0.195919
C6    C     C_3   0.971267 0.515359 0.372693 -0.211520
C7    C     C_1   0.173830 0.496751 0.498521 -0.054864
C8    C     C_1   0.826160 0.496896 0.500781 -0.054864
C9    C     C_R   0.522716 0.110803 0.759369 -0.159458
C10   C     C_R   0.496974 0.049492 0.877253 -0.149249
C11   C     C_R   0.451486 0.936244 0.869281 -0.165696
C12   C     C_R   0.338049 0.499370 0.499565 0.885853
C13   C     C_R   0.439682 0.878639 0.744509 -0.149935
C14   C     C_R   0.472879 0.935142 0.625586 0.096044
C15   C     C_R   0.502175 0.059560 0.630731 0.095478
C16   C     C_R   0.508806 0.126164 0.506524 -0.122267
C17   C     C_R   0.504485 0.063364 0.383335 -0.220806
C18   C     C_R   0.493744 0.936285 0.381403 -0.216202
C19   C     C_R   0.480698 0.871233 0.502012 -0.127558
C20   C     C_R   0.388655 0.335062 0.139212 -0.159805
C21   C     C_R   0.333840 0.252277 0.069051 0.208598
C22   C     C_R   0.334010 0.253161 0.928983 -0.197239
C23   C     C_R   0.491534 0.738788 0.500188 0.877093
C24   C     C_R   0.388461 0.335225 0.859307 -0.191080
C25   C     C_R   0.445059 0.418716 0.927263 0.110571
C26   C     C_R   0.445127 0.418697 0.071708 0.100454
C27   C     C_R   0.552181 0.577692 0.073584 -0.126283
C28   C     C_R   0.552944 0.578464 0.930939 0.232197
C29   C     C_R   0.661977 0.500176 0.500422 0.908097
C30   C     C_3   0.969710 0.385310 0.543921 0.233988
C31   C     C_3   0.025022 0.405156 0.418286 0.236884
C32   C     C_1   0.249135 0.497998 0.498709 -0.184469
C33   C     C_1   0.750893 0.498519 0.501115 -0.188245
C34   C     C_3   0.028734 0.475372 0.625837 -0.213749
H1    H     H_    0.427979 0.890933 0.960061 0.139366
H2    H     H_    0.403943 0.790520 0.742158 0.164914
H3    H     H_    0.497088 0.889107 0.285235 0.169559
H4    H     H_    0.385387 0.331787 0.246169 0.210282
H5    H     H_    0.291894 0.189542 0.873120 0.158762
H6    H     H_    0.510777 0.091279 0.974592 0.141728
N1    N     N_R   0.499210 0.498800 0.142780 -0.131853
N2    N     N_R   0.499180 0.498720 0.857170 -0.122689
O1    O     O_R   0.500000 0.316780 0.614690 -0.651292
O2    O     O_R   0.499990 0.316750 0.385360 -0.639001
O3    O     O_R   0.376780 0.500000 0.614650 -0.635928
O4    O     O_R   0.376770 0.499980 0.385310 -0.628304
O5    O     O_R   0.500010 0.683250 0.614640 -0.635015
O6    O     O_R   0.500000 0.683220 0.385310 -0.619399
O7    O     O_R   0.623230 0.500020 0.614690 -0.621607
O8    O     O_R   0.623220 0.500000 0.385350 -0.608243
Zn1   Zn    Zn3+2 0.500010 0.500020 0.653130 0.920138
Zn2   Zn    Zn3+2 0.499990 0.499980 0.346870 0.932158
C35   C     C_3   0.055455 0.302951 0.326312 -0.939849
H7    H     H_    0.999747 0.251668 0.281021 0.245904
H8    H     H_    0.095243 0.344999 0.244827 0.248176
H9    H     H_    0.093805 0.236991 0.385387 0.247157
H10   H     H_    0.594526 0.640710 0.129707 0.154723
C36   C     C_3   0.274955 0.162550 0.142745 -0.933655
H11   H     H_    0.281651 0.172257 0.253833 0.237824
H12   H     H_    0.208001 0.180150 0.114406 0.248082
H13   H     H_    0.289494 0.065415 0.115128 0.244936
H14   H     H_    0.384727 0.329708 0.752338 0.217558
C37   C     C_3   0.615365 0.669935 0.867431 -0.846281
H15   H     H_    0.615305 0.668718 0.757543 0.296743
H16   H     H_    0.601025 0.765980 0.899398 0.221052
H17   H     H_    0.680787 0.649415 0.901700 0.210684
C38   C     C_3   0.933672 0.260395 0.594701 -0.935318
H18   H     H_    0.986600 0.198448 0.619375 0.244393
H19   H     H_    0.895371 0.274862 0.686497 0.245293
H20   H     H_    0.892584 0.216016 0.515591 0.247783
H21   H     H_    0.946069 0.531130 0.269440 0.145376
H22   H     H_    0.057701 0.697483 0.417611 0.148127
H23   H     H_    0.952088 0.661201 0.647624 0.147819
H24   H     H_    0.053941 0.458619 0.728895 0.146504
H25   H     H_    0.510467 0.112057 0.287766 0.173107
H26   H     H_    0.560703 0.195978 0.771698 0.171141

loop_
_geom_bond_atom_site_label_1
_geom_bond_atom_site_label_2
_ccdc_geom_bond_type
C37   H16   S    
O4    Zn2   S    
C2    C7    S    
C4    C8    S    
C29   O7    A    
C35   H7    S    
C18   H3    S    
C5    H22   S    
C5    C6    S    
O3    Zn1   S    
C36   H12   S    
C15   C16   A    
C29   C33   S    
C10   H6    S    
C18   C19   A    
C1    O1    A    
C16   C17   A    
O7    Zn1   S    
O8    Zn2   S    
C7    C32   T    
C9    H26   S    
C9    C10   A    
N1    Zn2   S    
C30   C38   S    
N2    Zn1   S    
O2    Zn2   S    
C36   H13   S    
C6    C31   S    
C37   H17   S    
C21   C22   A    
C12   C32   S    
C25   C26   A    
C29   O8    A    
C35   H8    S    
C6    H21   S    
C23   O5    A    
C30   C34   S    
C38   H18   S    
C24   C25   A    
C13   H2    S    
C4    C6    S    
C27   H10   S    
O5    Zn1   S    
C3    C34   S    
C36   H11   S    
C2    C31   S    
C38   H19   S    
C19   C23   S    
C20   H4    S    
C27   N1    A    
C1    O2    A    
C17   C18   A    
C1    C16   S    
C31   C35   S    
C34   H24   S    
C12   O4    A    
C22   C24   A    
C2    C5    S    
C3    C4    S    
C35   H9    S    
C24   H14   S    
C23   O6    A    
C2    C34   S    
C14   C19   A    
C12   O3    A    
C3    C5    S    
C25   N2    A    
C38   H20   S    
C11   H1    S    
C9    C15   A    
C21   C36   S    
C11   C13   A    
O1    Zn1   S    
C30   C31   S    
C20   C26   A    
C22   H5    S    
C28   N2    A    
C8    C33   T    
C3    H23   S    
C10   C11   A    
C37   H15   S    
C28   C37   S    
O6    Zn2   S    
C20   C21   A    
C27   C28   A    
C17   H25   S    
C14   C15   A    
C13   C14   A    
C4    C30   S    
C26   N1    A    
