data_mof_unit_17165.cif
_audit_creation_date              2012-12-10T18:33:29-0500
_audit_creation_method            fapswitch 2.2
_symmetry_space_group_name_H-M    P1
_symmetry_Int_Tables_number       1
_space_group_crystal_system       triclinic
_cell_length_a                    8.773479
_cell_length_b                    15.093276
_cell_length_c                    13.857868
_cell_angle_alpha                 89.846153
_cell_angle_beta                  97.748994
_cell_angle_gamma                 90.188563
_cell_volume                      1818.29452528

loop_
_atom_site_label
_atom_site_type_symbol
_atom_type_description
_atom_site_fract_x
_atom_site_fract_y
_atom_site_fract_z
_atom_type_partial_charge
C1    C     C_R   0.501112 0.329928 0.500165 0.793704
C2    C     C_R   0.620070 0.540023 0.902146 -0.279336
C3    C     C_R   0.500394 0.499999 0.054755 0.128854
C4    C     C_R   0.500146 0.500145 0.945343 0.128969
C5    C     C_R   0.204306 0.498559 0.475505 0.800079
C6    C     C_R   0.795667 0.501493 0.524502 0.798888
C7    C     C_2   0.039606 0.490451 0.462669 0.136871
C8    C     C_2   0.960366 0.509748 0.537391 0.131064
C9    C     C_R   0.442690 0.093463 0.569254 -0.173211
C10   C     C_R   0.466407 0.906736 0.416154 -0.174599
C11   C     C_R   0.437738 0.185424 0.569418 -0.220222
C12   C     C_R   0.501446 0.670220 0.500049 0.797300
C13   C     C_R   0.461220 0.814732 0.415098 -0.215485
C14   C     C_R   0.507446 0.233597 0.500794 -0.078859
C15   C     C_R   0.508127 0.766849 0.500614 -0.086947
C16   C     C_R   0.585635 0.189450 0.433543 -0.299756
C17   C     C_R   0.563686 0.811724 0.586706 -0.298492
C18   C     C_R   0.597319 0.097074 0.435961 0.446391
C19   C     C_R   0.574614 0.904108 0.587348 0.446090
C20   C     C_R   0.521306 0.048876 0.502425 0.033059
C21   C     C_R   0.521759 0.951820 0.502090 0.033498
C22   C     C_3   0.973030 0.372482 0.363632 0.080914
C23   C     C_R   0.575617 0.566986 0.114274 -0.278541
C24   C     C_3   0.875521 0.343790 0.269728 -0.750645
C25   C     C_3   0.021516 0.627644 0.637554 0.076161
C26   C     C_3   0.116514 0.656930 0.732094 -0.757838
C27   C     C_3   0.837336 0.066915 0.399950 0.063560
C28   C     C_3   0.927303 0.004828 0.342548 -0.783494
C29   C     C_3   0.792479 0.938753 0.688562 0.061134
C30   C     C_3   0.858045 0.000561 0.770324 -0.776173
C31   C     C_R   0.379978 0.460364 0.882025 -0.283854
C32   C     C_R   0.575024 0.565353 0.215706 0.117595
C33   C     C_R   0.382908 0.460277 0.780807 0.102332
C34   C     C_R   0.425457 0.434553 0.203227 0.073520
C35   C     C_R   0.617063 0.539876 0.800408 0.079079
C36   C     C_R   0.425301 0.432893 0.101741 -0.279183
Cu1   Cu    Cu3+1 0.500000 0.499990 0.596430 0.943604
Cu2   Cu    Cu3+1 0.500000 0.500010 0.403570 0.947170
H1    H     H_    0.383898 0.056893 0.620685 0.168764
H2    H     H_    0.290290 0.428613 0.733833 0.151729
H3    H     H_    0.366133 0.382834 0.237621 0.125510
H4    H     H_    0.709537 0.571573 0.768905 0.129096
H5    H     H_    0.368034 0.378445 0.061045 0.131244
H6    H     H_    0.717372 0.570315 0.946226 0.131432
H7    H     H_    0.926533 0.339115 0.425465 0.108316
H8    H     H_    0.093447 0.350301 0.361444 0.132865
H9    H     H_    0.918749 0.375535 0.206254 0.246796
H10   H     H_    0.881033 0.270705 0.262017 0.183126
H11   H     H_    0.753887 0.363361 0.270934 0.259396
H12   H     H_    0.425352 0.942951 0.350194 0.169969
H13   H     H_    0.899872 0.647514 0.639658 0.126980
H14   H     H_    0.066597 0.662716 0.576287 0.124948
H15   H     H_    0.239622 0.640771 0.730721 0.263148
H16   H     H_    0.105276 0.729606 0.741107 0.185530
H17   H     H_    0.075516 0.622712 0.794879 0.239473
H18   H     H_    0.871103 0.052619 0.478934 0.128346
H19   H     H_    0.870044 0.136256 0.384299 0.135372
H20   H     H_    0.898894 0.018241 0.263332 0.250991
H21   H     H_    0.052673 0.015073 0.364239 0.196231
H22   H     H_    0.898064 0.934901 0.357511 0.247137
H23   H     H_    0.376533 0.218858 0.621577 0.152444
H24   H     H_    0.846089 0.956460 0.622527 0.128499
H25   H     H_    0.824195 0.869574 0.710747 0.136796
H26   H     H_    0.809181 0.983911 0.838024 0.251634
H27   H     H_    0.985081 0.993536 0.784164 0.195115
H28   H     H_    0.829383 0.070315 0.749694 0.249292
H29   H     H_    0.417687 0.781136 0.347985 0.161843
H30   H     H_    0.640310 0.226616 0.380595 0.156132
H31   H     H_    0.600832 0.775281 0.653146 0.156625
H32   H     H_    0.633095 0.621403 0.083136 0.129576
H33   H     H_    0.282646 0.430221 0.909780 0.134053
H34   H     H_    0.634370 0.617001 0.260018 0.126262
N1    N     N_R   0.500000 0.500020 0.258690 -0.176072
N2    N     N_R   0.500000 0.499980 0.741310 -0.180077
O1    O     O_R   0.500010 0.371450 0.581430 -0.584058
O2    O     O_3   0.033388 0.534794 0.628451 -0.576336
O3    O     O_3   0.678221 0.053233 0.371568 -0.587326
O4    O     O_3   0.631001 0.948348 0.672015 -0.586861
O5    O     O_R   0.499990 0.628550 0.418570 -0.597379
O6    O     O_R   0.500010 0.371460 0.418560 -0.602550
O7    O     O_R   0.499990 0.628540 0.581440 -0.592136
O8    O     O_R   0.274840 0.499990 0.562640 -0.560598
O9    O     O_R   0.725160 0.500010 0.437360 -0.547400
O10   O     O_R   0.274840 0.500000 0.399770 -0.566550
O11   O     O_R   0.725160 0.500000 0.600230 -0.579743
O12   O     O_3   0.966620 0.465662 0.371524 -0.560787

loop_
_geom_bond_atom_site_label_1
_geom_bond_atom_site_label_2
_ccdc_geom_bond_type
C2    C35   A    
Cu1   N2    S    
C29   H25   S    
C35   N2    A    
C17   H31   S    
C30   H26   S    
Cu2   O9    S    
C3    C23   A    
C8    O2    S    
C26   H17   S    
C7    C8    D    
C32   H34   S    
C29   C30   S    
C6    O11   A    
C22   C24   S    
Cu1   O11   S    
C19   C21   A    
C11   C14   A    
C7    O12   S    
Cu2   O5    S    
C12   O5    A    
C9    H1    S    
C35   H4    S    
C29   O4    S    
C2    H6    S    
C31   C33   A    
C16   H30   S    
C18   C20   A    
C4    C31   A    
C31   H33   S    
Cu1   O1    S    
C23   H32   S    
Cu1   O7    S    
C34   H3    S    
C26   H16   S    
C28   H22   S    
C10   C21   A    
C33   H2    S    
C24   H10   S    
C27   H19   S    
C32   N1    A    
C5    C7    S    
C5    O10   A    
C27   H18   S    
C6    C8    S    
C27   O3    S    
C25   C26   S    
C1    O1    A    
C19   O4    S    
C2    C4    A    
C25   H13   S    
Cu1   Cu2   S    
C9    C20   A    
C12   C15   S    
C9    C11   A    
C30   H28   S    
C22   H8    S    
C13   C15   A    
C14   C16   A    
Cu1   O8    S    
C3    C4    S    
C10   H12   S    
C26   H15   S    
C13   H29   S    
C28   H21   S    
C24   H11   S    
C15   C17   A    
C29   H24   S    
C6    O9    A    
Cu2   O10   S    
C24   H9    S    
C11   H23   S    
C10   C13   A    
C28   H20   S    
C25   O2    S    
C23   C32   A    
C25   H14   S    
C5    O8    A    
Cu2   O6    S    
C3    C36   A    
C18   O3    S    
C17   C19   A    
C12   O7    A    
C34   C36   A    
C22   O12   S    
C30   H27   S    
C34   N1    A    
C33   N2    A    
C22   H7    S    
C20   C21   S    
C16   C18   A    
C27   C28   S    
C1    O6    A    
C36   H5    S    
C1    C14   S    
Cu2   N1    S    
