data_mof_unit_23287.cif
_audit_creation_date              2012-12-10T17:43:24-0500
_audit_creation_method            fapswitch 2.2
_symmetry_space_group_name_H-M    P1
_symmetry_Int_Tables_number       1
_space_group_crystal_system       triclinic
_cell_length_a                    15.040977
_cell_length_b                    13.714506
_cell_length_c                    10.624615
_cell_angle_alpha                 90.086424
_cell_angle_beta                  89.878725
_cell_angle_gamma                 89.575538
_cell_volume                      2191.57341065

loop_
_atom_site_label
_atom_site_type_symbol
_atom_type_description
_atom_site_fract_x
_atom_site_fract_y
_atom_site_fract_z
_atom_type_partial_charge
C1    C     C_R   0.328971 0.500341 0.503015 0.811716
C2    C     C_R   0.671029 0.499658 0.496980 0.811720
C3    C     C_R   0.953118 0.499598 0.497265 0.034839
C4    C     C_R   0.046883 0.500401 0.502727 0.034837
C5    C     C_R   0.908967 0.457655 0.392284 0.090643
C6    C     C_R   0.091033 0.542332 0.607716 0.090647
C7    C     C_R   0.946995 0.581502 0.700553 -0.210054
C8    C     C_R   0.053005 0.418496 0.299441 -0.210048
C9    C     C_R   0.039209 0.581918 0.706356 -0.215552
C10   C     C_R   0.960791 0.418064 0.293650 -0.215571
C11   C     C_R   0.457641 0.793933 0.594344 -0.007033
C12   C     C_R   0.542359 0.206067 0.405656 -0.007045
C13   C     C_R   0.543092 0.792998 0.406210 0.018506
C14   C     C_R   0.456909 0.207001 0.593791 0.018505
C15   C     C_R   0.543964 0.896000 0.403838 -0.010759
C16   C     C_R   0.456038 0.104000 0.596163 -0.010756
C17   C     C_R   0.456393 0.896914 0.596414 -0.002214
C18   C     C_R   0.543609 0.103086 0.403588 -0.002216
C19   C     C_R   0.500054 0.948218 0.500031 0.089395
C20   C     C_R   0.499948 0.051782 0.499970 0.089396
C21   C     C_R   0.587511 0.947832 0.307955 -0.196296
C22   C     C_R   0.412492 0.052168 0.692047 -0.196302
C23   C     C_R   0.412716 0.949605 0.692214 -0.204794
C24   C     C_R   0.587287 0.050395 0.307788 -0.204796
C25   C     C_R   0.499779 0.499854 0.259262 0.830977
C26   C     C_R   0.500222 0.500146 0.740738 0.830978
C27   C     C_3   0.427827 0.550554 0.042027 -0.313674
C28   C     C_3   0.572175 0.449445 0.957973 -0.313701
C29   C     C_3   0.503062 0.593661 0.959364 -0.270284
C30   C     C_3   0.496939 0.406337 0.040636 -0.270308
C31   C     C_3   0.426912 0.458433 0.958963 0.579875
C32   C     C_3   0.573090 0.541566 0.041038 0.579874
C33   C     C_3   0.500698 0.500656 0.877293 -0.107728
C34   C     C_3   0.499304 0.499343 0.122707 -0.107724
C35   C     C_R   0.814585 0.456982 0.389190 0.091808
C36   C     C_R   0.185416 0.542996 0.610818 0.091765
C37   C     C_R   0.767403 0.499044 0.491550 -0.082064
C38   C     C_R   0.232598 0.500956 0.508442 -0.082069
C39   C     C_R   0.811679 0.541157 0.592687 -0.288255
C40   C     C_R   0.188322 0.458859 0.407294 -0.288251
C41   C     C_R   0.903793 0.541040 0.596944 0.116873
C42   C     C_R   0.096208 0.458966 0.403043 0.116879
Cu1   Cu    Cu3+1 0.500000 0.597420 0.500000 0.946798
Cu2   Cu    Cu3+1 0.500000 0.402580 0.500000 0.946793
H1    H     H_    0.369120 0.590748 0.079442 0.150533
H2    H     H_    0.630881 0.409251 0.920555 0.150529
H3    H     H_    0.506786 0.669545 0.923576 0.155490
H4    H     H_    0.493219 0.330453 0.076425 0.155472
H5    H     H_    0.773673 0.572742 0.669852 0.136989
H6    H     H_    0.226329 0.427286 0.330120 0.136976
H7    H     H_    0.909239 0.612910 0.777854 0.136708
H8    H     H_    0.090762 0.387088 0.222141 0.136709
H9    H     H_    0.068408 0.613958 0.789215 0.153167
H10   H     H_    0.931592 0.386008 0.210803 0.153168
H11   H     H_    0.425063 0.753707 0.668460 0.134626
H12   H     H_    0.574938 0.246293 0.331540 0.134637
H13   H     H_    0.577083 0.752035 0.333200 0.153638
H14   H     H_    0.422918 0.247965 0.666801 0.153632
H15   H     H_    0.621693 0.909071 0.233027 0.144492
H16   H     H_    0.378310 0.090929 0.766975 0.144484
H17   H     H_    0.378655 0.911507 0.767208 0.137563
H18   H     H_    0.621348 0.088493 0.232794 0.137556
N1    N     N_R   0.500000 0.743810 0.500000 -0.185025
N2    N     N_R   0.500000 0.256190 0.500000 -0.185023
O1    O     O_R   0.370260 0.582280 0.500030 -0.579791
O2    O     O_R   0.629740 0.417720 0.499970 -0.579795
O3    O     O_R   0.629740 0.582280 0.499970 -0.575197
O4    O     O_R   0.370260 0.417720 0.500030 -0.575197
O5    O     O_R   0.499980 0.582260 0.316850 -0.571453
O6    O     O_R   0.500020 0.417740 0.683150 -0.571456
O7    O     O_R   0.500020 0.582260 0.683150 -0.604490
O8    O     O_R   0.499980 0.417740 0.316850 -0.604497
O9    O     O_3   0.351532 0.414451 0.905014 -0.595065
C43   C     C_3   0.291402 0.389106 0.001123 -0.371271
H19   H     H_    0.264340 0.455113 0.048993 0.156614
H20   H     H_    0.322408 0.338832 0.070732 0.167784
H21   H     H_    0.234531 0.350455 0.958003 0.194140
O10   O     O_3   0.648464 0.585560 0.094985 -0.595027
C44   C     C_3   0.708637 0.610811 0.998889 -0.371301
H22   H     H_    0.677650 0.660951 0.929105 0.167741
H23   H     H_    0.735773 0.544751 0.951228 0.156647
H24   H     H_    0.765451 0.649576 0.041981 0.194162
C45   C     C_3   0.764273 0.414174 0.277654 -0.361880
C46   C     C_3   0.761554 0.302960 0.284483 -0.845825
H25   H     H_    0.829190 0.270734 0.277307 0.249548
H26   H     H_    0.731532 0.279521 0.374927 0.266338
H27   H     H_    0.720818 0.274371 0.205778 0.229157
H28   H     H_    0.694887 0.441715 0.273286 0.219941
H29   H     H_    0.793974 0.438128 0.187250 0.200570
C47   C     C_3   0.235728 0.585756 0.722387 -0.361839
C48   C     C_3   0.238472 0.696974 0.715627 -0.845786
H30   H     H_    0.268482 0.720433 0.625178 0.266326
H31   H     H_    0.170843 0.729228 0.722855 0.249518
H32   H     H_    0.279238 0.725511 0.794337 0.229173
H33   H     H_    0.206016 0.561777 0.812775 0.200606
H34   H     H_    0.305108 0.558195 0.726744 0.219957

loop_
_geom_bond_atom_site_label_1
_geom_bond_atom_site_label_2
_ccdc_geom_bond_type
C27   C29   S    
O9    C43   S    
Cu2   O2    S    
C19   C20   A    
C46   H27   S    
C6    C9    A    
Cu1   N1    S    
C47   H33   S    
C39   C41   A    
Cu2   N2    S    
C15   C19   A    
C28   H2    S    
C17   C23   A    
C43   H20   S    
C29   H3    S    
C18   C24   A    
C30   H4    S    
C35   C37   A    
C46   H26   S    
C21   H15   S    
C29   C32   S    
C11   N1    A    
C22   H16   S    
C30   C31   S    
C12   N2    A    
C31   O9    S    
C13   H13   S    
C29   C33   S    
C1    O4    A    
C11   C17   A    
C43   H21   S    
C1    O1    A    
C31   C33   S    
Cu2   O6    S    
C8    H8    S    
Cu1   O1    S    
C25   C34   S    
C27   H1    S    
C40   C42   A    
C45   H28   S    
Cu1   O5    S    
C24   H18   S    
C26   O7    A    
C14   H14   S    
C27   C34   S    
C45   H29   S    
C43   H19   S    
C30   C34   S    
C27   C31   S    
C28   C32   S    
Cu1   O7    S    
C46   H25   S    
C4    C6    A    
C2    O3    A    
C48   H30   S    
C44   H23   S    
C35   C45   S    
O10   C44   S    
C3    C5    A    
C32   C34   S    
Cu1   Cu2   S    
C48   H31   S    
C26   C33   S    
C45   C46   S    
C13   N1    A    
C23   H17   S    
C16   C20   A    
C14   N2    A    
C25   O8    A    
C12   H12   S    
C1    C38   S    
Cu1   O3    S    
C39   H5    S    
C28   C33   S    
C13   C15   A    
C26   O6    A    
C14   C16   A    
Cu2   O4    S    
C25   O5    A    
C3    C4    A    
C11   H11   S    
C36   C47   S    
C7    C9    A    
C3    C41   A    
C16   C22   A    
C8    C42   A    
C2    O2    A    
C44   H24   S    
C47   H34   S    
C28   C30   S    
C7    H7    S    
C5    C10   A    
C37   C39   A    
C48   H32   S    
C38   C40   A    
C2    C37   S    
C47   C48   S    
C4    C42   A    
C40   H6    S    
C5    C35   A    
C36   C38   A    
C17   C19   A    
C6    C36   A    
Cu2   O8    S    
C18   C20   A    
C7    C41   A    
C10   H10   S    
C32   O10   S    
C44   H22   S    
C15   C21   A    
C9    H9    S    
C8    C10   A    
C21   C24   A    
C12   C18   A    
C22   C23   A    
