data_mof_unit_11350.cif
_audit_creation_date              2012-12-10T18:16:26-0500
_audit_creation_method            fapswitch 2.2
_symmetry_space_group_name_H-M    P1
_symmetry_Int_Tables_number       1
_space_group_crystal_system       triclinic
_cell_length_a                    12.685019
_cell_length_b                    13.012386
_cell_length_c                    26.796061
_cell_angle_alpha                 93.441365
_cell_angle_beta                  102.16924
_cell_angle_gamma                 81.260685
_cell_volume                      4271.6397295

loop_
_atom_site_label
_atom_site_type_symbol
_atom_type_description
_atom_site_fract_x
_atom_site_fract_y
_atom_site_fract_z
_atom_type_partial_charge
C1    C     C_R   0.438981 0.690762 0.490649 0.997031
C2    C     C_R   0.670273 0.344163 0.034004 0.030659
C3    C     C_R   0.499986 0.267274 0.016826 0.084228
C4    C     C_R   0.502238 0.497722 0.594288 0.925803
C5    C     C_R   0.580298 0.316642 0.050974 0.089114
C6    C     C_R   0.745125 0.398115 0.068205 -0.301236
C7    C     C_R   0.733684 0.423679 0.118473 0.515234
C8    C     C_R   0.644555 0.395711 0.135640 -0.101860
C9    C     C_R   0.569119 0.340692 0.102158 -0.129320
C10   C     C_R   0.480928 0.311381 0.119616 -0.032999
C11   C     C_R   0.468286 0.338360 0.169582 0.623927
C12   C     C_R   0.481912 0.477044 0.731031 0.385296
C13   C     C_R   0.626943 0.422656 0.185310 0.642093
C14   C     C_R   0.444315 0.501962 0.260569 0.326003
C15   C     C_R   0.428986 0.527733 0.310918 0.286527
C16   C     C_R   0.561237 0.308441 0.505354 0.835394
C17   C     C_R   0.585768 0.397516 0.342342 -0.405849
C18   C     C_R   0.596099 0.367829 0.292581 0.474915
C19   C     C_R   0.525680 0.420680 0.251902 0.157519
C20   C     C_R   0.679230 0.323430 0.982438 0.032042
C21   C     C_R   0.591330 0.289437 0.946899 0.093899
C22   C     C_R   0.503682 0.257079 0.963967 0.004581
C23   C     C_R   0.546979 0.379314 0.742327 0.041746
C24   C     C_R   0.773611 0.335994 0.965065 -0.265170
C25   C     C_R   0.418701 0.218541 0.874991 0.393143
C26   C     C_R   0.415873 0.234593 0.036582 -0.178080
C27   C     C_R   0.406871 0.256223 0.086937 -0.100907
C28   C     C_R   0.498908 0.498669 0.405529 1.005301
C29   C     C_R   0.421514 0.217494 0.927295 -0.270379
C30   C     C_R   0.722570 0.052168 0.479001 0.522739
C31   C     C_R   0.598507 0.197620 0.502697 -0.134980
C32   C     C_R   0.293851 0.842869 0.482263 -0.239869
C33   C     C_R   0.263529 0.950076 0.481783 0.409842
C34   C     C_R   0.589293 0.292376 0.893866 -0.121674
C35   C     C_R   0.342405 0.014245 0.482262 -0.207179
C36   C     C_R   0.450638 0.971124 0.478980 -0.025753
C37   C     C_R   0.472963 0.864328 0.468541 0.003500
C38   C     C_R   0.536501 0.030860 0.484841 -0.007099
C39   C     C_R   0.638194 0.988324 0.472111 -0.071817
C40   C     C_R   0.660228 0.354443 0.825985 0.671033
C41   C     C_R   0.650114 0.886290 0.450924 0.303320
C42   C     C_R   0.564684 0.825910 0.447068 0.371331
C43   C     C_R   0.523660 0.131969 0.504619 -0.192349
C44   C     C_R   0.699304 0.157794 0.491125 -0.198502
C45   C     C_R   0.676900 0.326465 0.877225 -0.136042
C46   C     C_R   0.400157 0.799764 0.478370 -0.100322
C47   C     C_R   0.088763 0.359734 0.417572 0.418194
C48   C     C_R   0.806332 0.596688 0.573228 0.601376
C49   C     C_R   0.910368 0.562798 0.601868 -0.269390
C50   C     C_R   0.985492 0.500932 0.577764 -0.072220
C51   C     C_R   0.963356 0.488292 0.524305 0.063984
C52   C     C_R   0.488135 0.292217 0.806398 0.684253
C53   C     C_R   0.852709 0.496420 0.501480 0.131353
C54   C     C_R   0.043456 0.455282 0.494074 -0.145891
C55   C     C_R   0.011197 0.398110 0.447713 0.010061
C56   C     C_R   0.774600 0.336093 0.913227 0.419636
C57   C     C_R   0.902407 0.379415 0.433505 -0.165638
C58   C     C_R   0.824064 0.430692 0.459169 -0.163226
C59   C     C_R   0.149842 0.485573 0.505112 0.463824
C60   C     C_R   0.194801 0.381099 0.433335 -0.047566
C61   C     C_R   0.596341 0.322855 0.704662 0.391555
C62   C     C_R   0.583316 0.365764 0.657063 -0.288313
C63   C     C_R   0.466502 0.516414 0.682175 -0.230225
C64   C     C_R   0.497959 0.265556 0.857665 -0.129023
C65   C     C_R   0.518615 0.461627 0.645822 -0.128153
C66   C     C_R   0.504046 0.476804 0.351899 -0.234311
H1    H     H_    0.415251 0.589830 0.672483 0.200406
H2    H     H_    0.255275 0.351203 0.411044 0.192633
H3    H     H_    0.875541 0.327147 0.402080 0.161153
H4    H     H_    0.060178 0.464730 0.600718 0.230459
H5    H     H_    0.931852 0.581229 0.642347 0.196025
H6    H     H_    0.744236 0.410608 0.447774 0.186131
H7    H     H_    0.810841 0.426438 0.055984 0.150018
H8    H     H_    0.848683 0.344168 0.991606 0.175060
H9    H     H_    0.621801 0.323436 0.628005 0.183504
H10   H     H_    0.610238 0.124537 0.643804 0.352790
H11   H     H_    0.320317 0.021811 0.878707 0.362081
H12   H     H_    0.354485 0.192559 0.014288 0.165096
H13   H     H_    0.718050 0.259569 0.315197 0.346406
H14   H     H_    0.758240 0.771554 0.437367 0.351640
H15   H     H_    0.850025 0.950158 0.492438 0.398929
H16   H     H_    0.442732 0.704790 0.759214 0.367336
H17   H     H_    0.055302 0.929278 0.413508 0.373437
H18   H     H_    0.606297 0.735437 0.391649 0.354899
H19   H     H_    0.990139 0.328470 0.354591 0.353776
H20   H     H_    0.282769 0.698471 0.588482 0.380265
H21   H     H_    0.762484 0.680353 0.629806 0.337725
H22   H     H_    0.020552 0.370457 0.965179 0.361813
H23   H     H_    0.639556 0.355827 0.373810 0.151909
H24   H     H_    0.257486 0.744840 0.271288 0.369769
H25   H     H_    0.387300 0.629832 0.227206 0.357722
H26   H     H_    0.866090 0.489611 0.133087 0.347467
H27   H     H_    0.339810 0.231033 0.099880 0.199926
H28   H     H_    0.355978 0.186874 0.938128 0.193417
H29   H     H_    0.759917 0.208323 0.491364 0.191278
H30   H     H_    0.452899 0.163160 0.519979 0.170417
H31   H     H_    0.234845 0.793733 0.486407 0.242938
H32   H     H_    0.316343 0.097097 0.483164 0.175039
N1    N     N_R   0.566235 0.339432 0.792673 -0.342569
N2    N     N_R   0.540083 0.393861 0.200892 -0.323141
N3    N     N_R   0.222180 0.444690 0.474320 -0.193850
N4    N     N_R   0.776980 0.554780 0.525420 -0.146294
O1    O     O_R   0.366730 0.627160 0.487740 -0.542757
O2    O     O_R   0.410930 0.482330 0.420550 -0.580974
O3    O     O_R   0.589030 0.517690 0.436960 -0.618164
O4    O     O_2   0.732889 0.403056 0.809849 -0.436346
O5    O     O_2   0.786949 0.212046 0.744968 -0.147357
O6    O     O_2   0.623629 0.134854 0.746549 -0.263824
O7    O     O_3   0.685596 0.135240 0.660151 -0.504683
O8    O     O_2   0.226243 0.237389 0.808906 -0.118548
O9    O     O_2   0.362455 0.090097 0.793943 -0.210342
O10   O     O_3   0.261487 0.080089 0.867650 -0.482180
O11   O     O_3   0.674568 0.288032 0.282463 -0.717611
O12   O     O_2   0.695113 0.477777 0.217939 -0.448056
O13   O     O_3   0.743158 0.847828 0.432936 -0.712458
O14   O     O_3   0.827059 0.015472 0.473378 -0.623204
O15   O     O_2   0.322223 0.503119 0.783487 -0.172149
O16   O     O_2   0.496923 0.553037 0.827655 -0.294207
O17   O     O_3   0.375361 0.674081 0.757987 -0.473990
O18   O     O_2   0.114330 0.006188 0.538363 -0.202278
O19   O     O_2   0.102263 0.111831 0.464220 -0.280787
O20   O     O_3   0.042489 0.927731 0.448646 -0.464171
O21   O     O_3   0.563444 0.733993 0.418441 -0.732341
O22   O     O_3   0.065116 0.302792 0.372524 -0.699416
O23   O     O_2   0.399467 0.277094 0.770660 -0.425740
O24   O     O_2   0.081933 0.657601 0.559368 -0.281505
O25   O     O_2   0.221001 0.525131 0.605890 -0.318769
O26   O     O_3   0.275906 0.658063 0.555698 -0.538157
O27   O     O_3   0.728458 0.658545 0.594744 -0.718439
O28   O     O_2   0.915047 0.270668 0.851372 -0.123303
O29   O     O_2   0.907057 0.451623 0.883114 -0.218643
O30   O     O_3   0.005654 0.305523 0.945469 -0.521626
O31   O     O_2   0.242078 0.557532 0.344650 -0.221496
O32   O     O_2   0.352399 0.698487 0.361069 -0.319248
O33   O     O_3   0.237962 0.673669 0.269726 -0.472039
O34   O     O_2   0.384831 0.309627 0.186859 -0.506105
O35   O     O_3   0.382736 0.555173 0.219076 -0.674984
O36   O     O_3   0.808290 0.477173 0.150860 -0.662377
O37   O     O_R   0.544830 0.662520 0.504140 -0.551555
O38   O     O_R   0.410970 0.482310 0.563040 -0.532523
O39   O     O_R   0.589070 0.517670 0.579450 -0.569649
O40   O     O_R   0.455170 0.337480 0.495860 -0.626758
O41   O     O_R   0.633270 0.372840 0.512260 -0.642375
S1    S     S_3+6 0.674754 0.198690 0.715834 0.101461
S2    S     S_3+6 0.315690 0.156287 0.834220 0.147956
S3    S     S_3+6 0.418743 0.551278 0.777052 0.095667
S4    S     S_3+6 0.128338 0.003239 0.483983 0.082992
S5    S     S_3+6 0.182574 0.581620 0.556591 0.055658
S6    S     S_3+6 0.901938 0.342152 0.896514 0.132739
S7    S     S_3+6 0.314091 0.616179 0.322643 0.078552
Zn1   Zn    Zn3+2 0.381080 0.476390 0.489050 1.057620
Zn2   Zn    Zn3+2 0.618920 0.523610 0.510950 1.007767

loop_
_geom_bond_atom_site_label_1
_geom_bond_atom_site_label_2
_ccdc_geom_bond_type
C10   C27   A    
C23   N1    S    
C63   C65   A    
C8    C13   A    
C22   C29   A    
C41   C42   A    
C28   C66   S    
C35   C36   A    
H26   O36   S    
C40   N1    A    
C47   O22   S    
C7    C8    A    
C39   C41   A    
C30   O14   S    
O10   S2    S    
O17   S3    S    
C12   C23   A    
C26   C27   A    
C26   H12   S    
C31   C43   A    
O2    Zn1   S    
C40   O4    S    
C36   C37   A    
O9    S2    D    
C38   C39   A    
C1    C46   S    
O32   S7    D    
O37   Zn2   S    
C32   H31   S    
H19   O22   S    
C18   C19   A    
C12   S3    S    
C37   C42   A    
C4    C65   S    
C33   S4    S    
C47   C60   A    
H25   O35   S    
C20   C24   A    
C45   C56   A    
H10   O7    S    
O19   S4    D    
O8    S2    D    
C9    C10   A    
C53   N4    A    
C13   O12   S    
C1    O37   A    
O1    Zn1   S    
O25   S5    D    
C59   S5    S    
C21   C22   A    
O30   S6    S    
C30   C44   A    
C2    C6    A    
H16   O17   S    
C41   O13   S    
C18   O11   S    
C42   O21   S    
C43   H30   S    
C54   C59   A    
C25   C29   A    
C40   C45   A    
C63   H1    S    
C31   C44   A    
H20   O26   S    
C59   N3    A    
O16   S3    D    
C16   O41   A    
C17   H23   S    
C52   C64   A    
C14   O35   S    
C4    O39   A    
C12   C63   A    
O24   S5    D    
C8    C9    A    
C21   C34   A    
C50   C51   A    
C15   C66   A    
C2    C20   A    
N3    Zn1   S    
O15   S3    D    
C16   C31   S    
C25   C64   A    
O40   Zn1   S    
H11   O10   S    
C16   O40   A    
C5    C9    A    
C4    O38   A    
C58   H6    S    
C28   O2    A    
C61   S1    S    
H18   O21   S    
H14   O13   S    
C28   O3    A    
C52   O23   S    
C48   N4    A    
O28   S6    D    
C34   C64   A    
C17   C18   A    
C17   C66   A    
C34   C45   A    
O20   S4    S    
O38   Zn1   S    
C48   C49   A    
C55   C57   A    
C48   O27   S    
C27   H27   S    
C2    C5    A    
H22   O30   S    
C60   N3    A    
C35   H32   S    
O6    S1    D    
C6    H7    S    
C47   C55   A    
O3    Zn2   S    
C1    O1    A    
C54   C55   A    
O41   Zn2   S    
C62   C65   A    
C32   C46   A    
C14   C19   A    
C3    C26   A    
O26   S5    S    
O31   S7    D    
C3    C5    A    
C7    O36   S    
C53   C58   A    
C6    C7    A    
C24   C56   A    
O33   S7    S    
C52   N1    A    
C51   C54   A    
C57   H3    S    
C32   C33   A    
H21   O27   S    
C13   N2    A    
H13   O11   S    
C37   C46   A    
C38   C43   A    
C44   H29   S    
C11   O34   S    
C19   N2    S    
H24   O33   S    
C24   H8    S    
C57   C58   A    
C29   H28   S    
H15   O14   S    
C36   C38   A    
C33   C35   A    
C30   C39   A    
O7    S1    S    
H17   O20   S    
C50   H4    S    
C61   C62   A    
C62   H9    S    
O29   S6    D    
C10   C11   A    
O5    S1    D    
C23   C61   A    
C20   C21   A    
C60   H2    S    
O18   S4    D    
C49   C50   A    
C49   H5    S    
C14   C15   A    
C11   N2    A    
C3    C22   A    
C25   S2    S    
C51   C53   A    
C56   S6    S    
C15   S7    S    
O39   Zn2   S    
N4    Zn2   S    
