data_mof_unit_37475.cif
_audit_creation_date              2012-12-10T18:35:14-0500
_audit_creation_method            fapswitch 2.2
_symmetry_space_group_name_H-M    P1
_symmetry_Int_Tables_number       1
_space_group_crystal_system       triclinic
_cell_length_a                    14.979446
_cell_length_b                    15.51171
_cell_length_c                    16.829928
_cell_angle_alpha                 91.304218
_cell_angle_beta                  100.946264
_cell_angle_gamma                 98.998584
_cell_volume                      3786.59100285

loop_
_atom_site_label
_atom_site_type_symbol
_atom_type_description
_atom_site_fract_x
_atom_site_fract_y
_atom_site_fract_z
_atom_type_partial_charge
C1    C     C_R   0.558862 0.662774 0.513403 0.869932
C2    C     C_R   0.465521 0.186950 0.496410 -0.303574
C3    C     C_R   0.558563 0.902349 0.513319 0.059103
C4    C     C_R   0.444090 0.097965 0.478238 0.060701
C5    C     C_R   0.653008 0.939052 0.529537 0.063314
C6    C     C_R   0.350329 0.060284 0.457648 0.044417
C7    C     C_R   0.488860 0.955600 0.502588 0.029968
C8    C     C_R   0.514140 0.045106 0.489453 0.029837
C9    C     C_R   0.608474 0.078206 0.488308 0.170912
C10   C     C_R   0.394399 0.922863 0.503950 0.172858
C11   C     C_R   0.676289 0.028293 0.517523 -0.246511
C12   C     C_R   0.440942 0.337115 0.486875 0.875548
C13   C     C_R   0.326723 0.971853 0.472170 -0.246800
C14   C     C_R   0.174172 0.651244 0.394103 -0.338186
C15   C     C_R   0.835378 0.361013 0.613196 -0.291507
C16   C     C_R   0.509231 0.494707 0.349275 0.879404
C17   C     C_R   0.491289 0.506013 0.650819 0.875488
C18   C     C_R   0.251507 0.611343 0.396700 0.320609
C19   C     C_R   0.747522 0.382811 0.597318 0.311227
C20   C     C_R   0.209637 0.522006 0.500523 -0.091073
C21   C     C_R   0.796204 0.495978 0.514956 -0.088920
C22   C     C_R   0.123503 0.552053 0.491213 -0.025059
C23   C     C_R   0.597578 0.757001 0.523761 -0.129942
C24   C     C_R   0.887176 0.476509 0.530422 -0.026343
C25   C     C_R   0.105531 0.616594 0.435100 0.074587
C26   C     C_R   0.907436 0.411225 0.585404 0.063067
C27   C     C_R   0.052262 0.514523 0.530599 -0.030641
C28   C     C_R   0.959175 0.522240 0.496061 -0.031374
C29   C     C_R   0.942127 0.575258 0.428553 0.181322
C30   C     C_R   0.070496 0.465480 0.600212 0.185488
C31   C     C_R   0.015361 0.635015 0.410905 0.199177
C32   C     C_R   0.999627 0.403435 0.618568 0.199981
C33   C     C_R   0.508845 0.479513 0.263567 -0.122918
C34   C     C_R   0.402144 0.242724 0.474241 -0.138881
C35   C     C_R   0.493995 0.522771 0.736846 -0.123798
C36   C     C_R   0.425348 0.459156 0.208282 -0.243042
C37   C     C_R   0.578584 0.538085 0.791159 -0.239697
C38   C     C_R   0.424140 0.442629 0.126329 0.179973
C39   C     C_R   0.582376 0.554386 0.873591 0.176624
C40   C     C_R   0.509109 0.448627 0.100085 0.126688
C41   C     C_R   0.498739 0.552315 0.901469 0.127580
C42   C     C_R   0.593206 0.461249 0.156665 0.221785
C43   C     C_R   0.414058 0.544847 0.846071 0.224049
C44   C     C_R   0.592099 0.477580 0.237987 -0.221625
C45   C     C_R   0.720861 0.883900 0.551087 0.149304
C46   C     C_R   0.412894 0.530048 0.764050 -0.227164
C47   C     C_2   0.511342 0.461799 0.015311 -0.255873
C48   C     C_2   0.497473 0.539102 0.986439 -0.250940
C49   C     C_3   0.640120 0.159735 0.446653 -0.914843
C50   C     C_3   0.362465 0.843274 0.548021 -0.906194
C51   C     C_3   0.995520 0.709094 0.356436 -0.950304
C52   C     C_3   0.022052 0.334643 0.678766 -0.944452
C53   C     C_3   0.680965 0.336754 0.646361 -0.394590
C54   C     C_3   0.713674 0.360570 0.737155 -0.902177
C55   C     C_3   0.289795 0.616077 0.319548 -0.362565
C56   C     C_R   0.282360 0.113669 0.431461 0.154435
C57   C     C_3   0.367808 0.692240 0.319995 -0.837854
C58   C     C_3   0.855739 0.554603 0.362857 -0.943312
C59   C     C_3   0.157807 0.490726 0.663749 -0.950341
C60   C     C_3   0.685452 0.462003 0.132841 -0.953324
C61   C     C_3   0.323232 0.547463 0.871685 -0.956058
C62   C     C_3   0.675908 0.570709 0.930158 -0.425266
C63   C     C_3   0.734019 0.655671 0.913101 -0.878366
C64   C     C_3   0.331626 0.421685 0.068548 -0.421319
C65   C     C_3   0.277409 0.334633 0.085921 -0.879581
C66   C     C_3   0.238170 0.265857 0.407631 -0.374811
C67   C     C_R   0.690863 0.792907 0.558714 0.127423
C68   C     C_3   0.252774 0.303574 0.327054 -0.855892
C69   C     C_3   0.755839 0.736861 0.606005 -0.388348
C70   C     C_3   0.722887 0.703987 0.682202 -0.826491
C71   C     C_3   0.823261 0.920376 0.561038 -0.435454
C72   C     C_3   0.862203 0.965015 0.644999 -0.863762
C73   C     C_3   0.184574 0.070750 0.392365 -0.426235
C74   C     C_3   0.120508 0.062901 0.453557 -0.889585
C75   C     C_R   0.308697 0.206761 0.438157 0.137886
C76   C     C_R   0.535603 0.812962 0.498176 -0.316561
H1    H     H_    0.360763 0.455592 0.228722 0.156731
H2    H     H_    0.527610 0.410629 0.977892 0.165445
H3    H     H_    0.747158 0.059295 0.523734 0.167497
H4    H     H_    0.255572 0.942702 0.468777 0.170075
H5    H     H_    0.533446 0.213144 0.530126 0.189186
H6    H     H_    0.467202 0.786472 0.466222 0.202037
H7    H     H_    0.582799 0.181563 0.404316 0.259105
H8    H     H_    0.675329 0.213014 0.492233 0.237339
H9    H     H_    0.690004 0.145979 0.408768 0.239736
H10   H     H_    0.326807 0.788744 0.503836 0.248075
H11   H     H_    0.419786 0.822353 0.591090 0.257900
H12   H     H_    0.642001 0.537543 0.769481 0.173907
H13   H     H_    0.312900 0.859016 0.585449 0.239455
H14   H     H_    0.924748 0.723297 0.354022 0.253132
H15   H     H_    0.043262 0.770104 0.380721 0.238399
H16   H     H_    0.003575 0.692458 0.293940 0.241154
H17   H     H_    0.096638 0.331676 0.695005 0.254017
H18   H     H_    0.997408 0.347918 0.735330 0.243043
H19   H     H_    0.988588 0.268808 0.651744 0.233959
H20   H     H_    0.732552 0.432495 0.748167 0.264136
H21   H     H_    0.657742 0.336760 0.770068 0.252042
H22   H     H_    0.774439 0.329854 0.762163 0.252520
H23   H     H_    0.778967 0.551860 0.482443 0.154042
H24   H     H_    0.611611 0.351611 0.630619 0.270054
H25   H     H_    0.674758 0.264872 0.635886 0.174877
H26   H     H_    0.350819 0.753253 0.344884 0.240549
H27   H     H_    0.433740 0.678392 0.354694 0.279882
H28   H     H_    0.377441 0.702614 0.256890 0.233297
H29   H     H_    0.305737 0.552681 0.301834 0.214934
H30   H     H_    0.234000 0.624861 0.267776 0.163687
H31   H     H_    0.874410 0.555656 0.302022 0.254857
H32   H     H_    0.818259 0.487571 0.366039 0.245026
H33   H     H_    0.809593 0.603556 0.365741 0.231670
H34   H     H_    0.225868 0.470190 0.539396 0.155695
H35   H     H_    0.140086 0.497560 0.724505 0.257942
H36   H     H_    0.202682 0.440060 0.665096 0.230134
H37   H     H_    0.196570 0.555202 0.653448 0.247467
H38   H     H_    0.679169 0.439762 0.068678 0.240443
H39   H     H_    0.725779 0.529081 0.143091 0.243730
H40   H     H_    0.724251 0.417145 0.170681 0.246366
H41   H     H_    0.331107 0.565604 0.936997 0.240241
H42   H     H_    0.287710 0.596767 0.837298 0.248099
H43   H     H_    0.278886 0.482426 0.858223 0.244998
H44   H     H_    0.751797 0.650937 0.852355 0.256463
H45   H     H_    0.161688 0.699042 0.349166 0.168636
H46   H     H_    0.696065 0.711286 0.916519 0.266302
H47   H     H_    0.799179 0.668529 0.958906 0.250684
H48   H     H_    0.669792 0.576028 0.994577 0.234781
H49   H     H_    0.712889 0.515114 0.922951 0.203816
H50   H     H_    0.318382 0.281303 0.082516 0.265617
H51   H     H_    0.259517 0.337852 0.146835 0.257041
H52   H     H_    0.212369 0.319190 0.040177 0.250634
H53   H     H_    0.291027 0.474818 0.074501 0.201059
H54   H     H_    0.339200 0.417057 0.004410 0.232953
H55   H     H_    0.205151 0.351062 0.309476 0.239058
H56   H     H_    0.847599 0.308700 0.653162 0.168814
H57   H     H_    0.324471 0.337479 0.331004 0.268370
H58   H     H_    0.238132 0.250180 0.279000 0.243332
H59   H     H_    0.166142 0.232290 0.398381 0.202697
H60   H     H_    0.238483 0.317770 0.453901 0.217120
H61   H     H_    0.725787 0.760082 0.725369 0.249086
H62   H     H_    0.651438 0.667862 0.668602 0.263397
H63   H     H_    0.768794 0.659420 0.711746 0.234007
H64   H     H_    0.765417 0.682112 0.566826 0.215119
H65   H     H_    0.826107 0.772809 0.628483 0.207145
H66   H     H_    0.826746 0.020849 0.655029 0.257734
H67   H     H_    0.348065 0.522253 0.721564 0.177583
H68   H     H_    0.853519 0.918021 0.692809 0.262305
H69   H     H_    0.936827 0.990003 0.650317 0.249017
H70   H     H_    0.863874 0.869184 0.549431 0.195055
H71   H     H_    0.835948 0.966368 0.513433 0.195768
H72   H     H_    0.144356 0.020581 0.502807 0.258213
H73   H     H_    0.117887 0.127806 0.481244 0.255762
H74   H     H_    0.049769 0.033334 0.422531 0.251241
H75   H     H_    0.156323 0.106265 0.339392 0.207951
H76   H     H_    0.183846 0.004860 0.364887 0.198778
H77   H     H_    0.656839 0.490233 0.281190 0.176269
H78   H     H_    0.480906 0.590043 0.023934 0.165453
N1    N     N_R   0.271750 0.551950 0.454510 -0.116042
N2    N     N_R   0.728250 0.448050 0.545490 -0.116804
O1    O     O_R   0.615140 0.606020 0.522930 -0.612016
O2    O     O_R   0.384860 0.393980 0.477070 -0.610194
O3    O     O_R   0.468580 0.639400 0.493740 -0.603713
O4    O     O_R   0.531420 0.360600 0.506260 -0.635831
O5    O     O_R   0.581950 0.481350 0.400520 -0.611382
O6    O     O_R   0.418050 0.518650 0.599480 -0.615372
O7    O     O_R   0.435380 0.514730 0.371330 -0.626808
O8    O     O_R   0.564620 0.485270 0.628670 -0.626701
Zn1   Zn    Zn3+2 0.597860 0.477710 0.519490 0.921905
Zn2   Zn    Zn3+2 0.402140 0.522290 0.480510 0.927684

loop_
_geom_bond_atom_site_label_1
_geom_bond_atom_site_label_2
_ccdc_geom_bond_type
C25   C31   A    
C40   C47   S    
C66   C68   S    
C26   C32   A    
C20   N1    A    
C61   H43   S    
C58   H33   S    
C73   C74   S    
C14   C18   A    
C37   H12   S    
C60   H38   S    
C68   H58   S    
C23   C76   A    
C4    C8    A    
C28   C29   A    
C62   H48   S    
C7    C8    A    
C39   C41   A    
C53   C54   S    
C72   H66   S    
C57   H26   S    
O2    Zn2   S    
C55   H29   S    
C44   H77   S    
C65   H51   S    
C49   H8    S    
C74   H72   S    
O8    Zn1   S    
C35   C37   A    
C24   C26   A    
C5    C11   A    
C3    C7    A    
C36   H1    S    
C51   H14   S    
C21   H23   S    
C45   C71   S    
C66   C75   S    
N1    Zn2   S    
C69   H65   S    
C72   H69   S    
C33   C36   A    
C52   H19   S    
C58   H31   S    
C7    C10   A    
C23   C67   A    
C39   C62   S    
C32   C52   S    
C51   H15   S    
O6    Zn2   S    
C41   C48   S    
C15   H56   S    
C53   H25   S    
C8    C9    A    
C22   C25   A    
C45   C67   A    
C59   H35   S    
C54   H21   S    
C52   H18   S    
C30   C32   A    
C54   H20   S    
C34   C75   A    
C2    C34   A    
C69   H64   S    
C40   C42   A    
C13   H4    S    
C70   H63   S    
C53   H24   S    
C56   C75   A    
C73   H75   S    
C27   C30   A    
C19   N2    A    
C41   C43   A    
C42   C44   A    
C2    H5    S    
C38   C64   S    
C16   O7    A    
C57   H27   S    
C55   H30   S    
C61   H41   S    
C65   H52   S    
C49   H9    S    
C1    O3    A    
O7    Zn2   S    
C9    C49   S    
C4    C6    A    
O1    Zn1   S    
C15   C26   A    
C5    C45   A    
C67   C69   S    
C68   H55   S    
C15   C19   A    
C62   C63   S    
C17   O8    A    
C31   C51   S    
C16   C33   S    
C50   H13   S    
C47   C48   D    
C59   H37   S    
C30   C59   S    
C59   H36   S    
C52   H17   S    
C74   H73   S    
O4    Zn1   S    
C12   O4    A    
C3    C76   A    
C9    C11   A    
C71   H71   S    
C11   H3    S    
C18   C55   S    
C51   H16   S    
C66   H60   S    
C50   H11   S    
C64   H54   S    
C1    C23   S    
C22   C27   A    
C55   C57   S    
C73   H76   S    
C20   H34   S    
C60   H40   S    
C20   C22   A    
C12   C34   S    
C10   C50   S    
C42   C60   S    
C63   H46   S    
C29   C58   S    
C43   C61   S    
C72   H68   S    
C57   H28   S    
C48   H78   S    
C68   H57   S    
C56   C73   S    
C61   H42   S    
C33   C44   A    
C54   H22   S    
C24   C28   A    
C6    C56   A    
C3    C5    A    
C10   C13   A    
C62   H49   S    
C63   H47   S    
C70   H62   S    
C46   H67   S    
C16   O5    A    
O3    Zn2   S    
C65   H50   S    
C49   H7    S    
C36   C38   A    
C71   C72   S    
C37   C39   A    
C64   C65   S    
C6    C13   A    
C38   C40   A    
C63   H44   S    
C19   C53   S    
N2    Zn1   S    
C76   H6    S    
C2    C4    A    
C1    O1    A    
C21   N2    A    
C58   H32   S    
C14   C25   A    
C69   C70   S    
C43   C46   A    
C17   O6    A    
C50   H10   S    
C66   H59   S    
C71   H70   S    
C64   H53   S    
C70   H61   S    
C29   C31   A    
C21   C24   A    
C27   C28   A    
C14   H45   S    
C74   H74   S    
C60   H39   S    
C17   C35   S    
C47   H2    S    
C12   O2    A    
C35   C46   A    
O5    Zn1   S    
C18   N1    A    
