data_mof_unit_15095.cif
_audit_creation_date              2012-12-10T18:11:41-0500
_audit_creation_method            fapswitch 2.2
_symmetry_space_group_name_H-M    P1
_symmetry_Int_Tables_number       1
_space_group_crystal_system       triclinic
_cell_length_a                    10.473051
_cell_length_b                    12.636575
_cell_length_c                    13.098583
_cell_angle_alpha                 81.138858
_cell_angle_beta                  91.718007
_cell_angle_gamma                 100.68874
_cell_volume                      1683.10152562

loop_
_atom_site_label
_atom_site_type_symbol
_atom_type_description
_atom_site_fract_x
_atom_site_fract_y
_atom_site_fract_z
_atom_type_partial_charge
C1    C     C_R   0.479958 0.438530 0.691012 0.877400
C2    C     C_3   0.059747 0.578172 0.554666 -0.159226
C3    C     C_3   0.955739 0.480674 0.597400 0.342898
C4    C     C_3   0.876937 0.499437 0.499226 -0.171552
C5    C     C_R   0.401394 0.699262 0.058602 -0.165112
C6    C     C_R   0.503362 0.596276 0.198010 -0.071696
C7    C     C_R   0.493663 0.296833 0.841426 -0.091564
C8    C     C_R   0.508327 0.268589 0.947246 -0.045179
C9    C     C_R   0.499814 0.343781 0.012889 -0.134446
C10   C     C_R   0.467517 0.446429 0.973374 0.097455
C11   C     C_R   0.433047 0.466972 0.868396 0.089777
C12   C     C_R   0.741631 0.500098 0.498825 0.919211
C13   C     C_R   0.466824 0.529097 0.034459 0.106398
C14   C     C_R   0.409573 0.620775 0.995872 0.125000
C15   C     C_R   0.358669 0.631516 0.896249 -0.212117
C16   C     C_R   0.370858 0.555847 0.832847 -0.191258
C17   C     C_R   0.522333 0.523556 0.132789 -0.172076
C18   C     C_R   0.445376 0.685245 0.160093 -0.067997
C19   C     C_R   0.462840 0.398332 0.801213 -0.114629
C20   C     C_R   0.429925 0.126732 0.302226 -0.234565
C21   C     C_R   0.624377 0.782979 0.648355 -0.017667
C22   C     C_R   0.666515 0.882232 0.681812 -0.297853
C23   C     C_R   0.513966 0.561083 0.308536 0.886280
C24   C     C_R   0.648740 0.978632 0.620254 0.473619
C25   C     C_R   0.577562 0.973305 0.526370 -0.148501
C26   C     C_R   0.545124 0.869335 0.491438 0.026057
C27   C     C_R   0.530276 0.062272 0.465304 -0.019456
C28   C     C_R   0.500491 0.054787 0.360356 -0.046324
C29   C     C_R   0.517544 0.961167 0.322941 0.380268
C30   C     C_R   0.487588 0.864465 0.392614 0.283125
C31   C     C_R   0.499074 0.152075 0.504284 -0.018060
C32   C     C_R   0.386095 0.204317 0.349411 0.530050
C33   C     C_R   0.258335 0.499277 0.502784 0.910654
C34   C     C_3   0.940869 0.420558 0.449069 -0.173857
C35   C     C_3   0.021319 0.401224 0.549168 -0.179451
C36   C     C_3   0.123042 0.499268 0.504328 -0.065993
C37   C     C_3   0.045408 0.518319 0.404561 -0.076299
C38   C     C_3   0.979321 0.597205 0.454773 -0.097833
H1    H     H_    0.042350 0.322036 0.588660 0.227611
H2    H     H_    0.574542 0.459335 0.162871 0.148808
H3    H     H_    0.510285 0.240918 0.790787 0.207454
H4    H     H_    0.514352 0.318258 0.094228 0.159462
H5    H     H_    0.531660 0.189941 0.977970 0.216283
H6    H     H_    0.328990 0.566512 0.756228 0.156727
H7    H     H_    0.644959 0.710528 0.695992 0.201222
H8    H     H_    0.719415 0.883907 0.754066 0.208144
H9    H     H_    0.086677 0.533297 0.325440 0.175420
H10   H     H_    0.958712 0.676799 0.416006 0.203870
H11   H     H_    0.108234 0.638533 0.602994 0.205761
H12   H     H_    0.355864 0.768523 0.030587 0.199610
N1    N     N_R   0.432930 0.222190 0.444670 -0.171132
N2    N     N_R   0.566370 0.776980 0.554790 -0.101208
O1    O     O_R   0.467970 0.366730 0.627150 -0.622105
O2    O     O_R   0.510820 0.544830 0.662520 -0.627864
O3    O     O_R   0.664630 0.410960 0.482340 -0.629832
O4    O     O_R   0.707470 0.589060 0.517710 -0.594812
O5    O     O_R   0.489180 0.455170 0.337480 -0.579150
O6    O     O_R   0.532030 0.633270 0.372850 -0.596212
O7    O     O_R   0.292530 0.410940 0.482290 -0.566263
O8    O     O_R   0.335370 0.589040 0.517660 -0.541976
Zn1   Zn    Zn3+2 0.471390 0.381080 0.476380 1.028842
Zn2   Zn    Zn3+2 0.528610 0.618920 0.523620 1.033933
S1    S     S_3+6 0.245666 0.253278 0.298691 0.065345
O9    O     O_2   0.177144 0.179854 0.226208 -0.246749
O10   O     O_2   0.155224 0.252095 0.385916 -0.272008
O11   O     O_3   0.282280 0.379979 0.233332 -0.568036
H13   H     H_    0.197520 0.402971 0.217649 0.377267
S2    S     S_3+6 0.553417 0.964291 0.191695 0.015323
O12   O     O_2   0.429486 0.938545 0.132289 -0.317328
O13   O     O_2   0.624143 0.076157 0.148267 -0.288027
O14   O     O_3   0.649457 0.873585 0.181576 -0.561932
H14   H     H_    0.666326 0.880575 0.106602 0.395532
H15   H     H_    0.394040 0.112934 0.226117 0.234558
H16   H     H_    0.523180 0.166342 0.581983 0.190761
H17   H     H_    0.889471 0.357577 0.404346 0.225771
S3    S     S_3+6 0.743891 0.098713 0.654274 0.041178
O15   O     O_2   0.672931 0.137239 0.735225 -0.322964
O16   O     O_2   0.871431 0.075074 0.698719 -0.230460
O17   O     O_3   0.774076 0.195247 0.550460 -0.558218
H18   H     H_    0.773978 0.263796 0.577727 0.395261
S4    S     S_3+6 0.317429 0.813352 0.394973 0.037616
O18   O     O_2   0.245485 0.894171 0.332935 -0.262117
O19   O     O_2   0.285105 0.709519 0.350099 -0.316828
O20   O     O_3   0.265018 0.792245 0.517672 -0.563242
H19   H     H_    0.267260 0.865949 0.535534 0.356810
S5    S     S_3+6 0.894910 0.459933 0.726091 0.045297
O21   O     O_2   0.847685 0.560063 0.746275 -0.312129
O22   O     O_2   0.784141 0.364845 0.740045 -0.241733
O23   O     O_3   0.013762 0.434427 0.810208 -0.487694
H20   H     H_    0.080743 0.501610 0.799691 0.336888
H21   H     H_    0.429808 0.741404 0.209840 0.248281
H22   H     H_    0.311361 0.699400 0.866684 0.165501

loop_
_geom_bond_atom_site_label_1
_geom_bond_atom_site_label_2
_ccdc_geom_bond_type
O6    Zn2   S    
C23   O6    A    
C24   C25   A    
S1    O10   D    
C34   C37   S    
C35   C36   S    
N1    Zn1   S    
C8    H5    S    
S4    O18   D    
C7    C8    A    
C11   C19   A    
C9    H4    S    
C29   C30   A    
C18   H21   S    
C36   C37   S    
S3    O16   D    
S5    O22   D    
C15   C16   A    
C33   C36   S    
O8    Zn2   S    
C34   C35   S    
C1    O1    A    
C15   H22   S    
S2    O12   D    
O1    Zn1   S    
C8    C9    A    
S3    O17   S    
C37   H9    S    
C9    C10   A    
C16   H6    S    
C38   H10   S    
C34   H17   S    
O11   H13   S    
S1    O11   S    
C33   O7    A    
C21   C22   A    
C3    S5    S    
S4    O19   D    
C21   H7    S    
C6    C18   A    
C4    C34   S    
O7    Zn1   S    
C1    C19   S    
C27   C31   A    
O20   H19   S    
S5    O21   D    
C24   S3    S    
C31   H16   S    
C5    C18   A    
C20   C28   A    
C25   C26   A    
C10   C13   A    
O17   H18   S    
C17   H2    S    
C35   H1    S    
C1    O2    A    
C32   N1    A    
C37   C38   S    
C2    H11   S    
C26   N2    A    
C29   S2    S    
C11   C16   A    
C2    C38   S    
C3    C35   S    
S3    O15   D    
C5    C14   A    
C12   O4    A    
C22   H8    S    
C4    C38   S    
C26   C30   A    
C33   O8    A    
C7    C19   A    
C22   C24   A    
C5    H12   S    
C4    C12   S    
C3    C4    S    
S4    O20   S    
C20   C32   A    
C2    C36   S    
C23   O5    A    
C6    C17   A    
C28   C29   A    
C32   S1    S    
C31   N1    A    
S5    O23   S    
O5    Zn1   S    
C25   C27   A    
O2    Zn2   S    
C13   C17   A    
C30   S4    S    
C2    C3    S    
O14   H14   S    
N2    Zn2   S    
S2    O14   S    
C6    C23   S    
O3    Zn1   S    
C20   H15   S    
O4    Zn2   S    
C7    H3    S    
C12   O3    A    
C10   C11   A    
S1    O9    D    
S2    O13   D    
C27   C28   A    
C14   C15   A    
O23   H20   S    
C13   C14   A    
C21   N2    A    
