data_mof_unit_54010.cif
_audit_creation_date              2012-12-11T17:15:56-0500
_audit_creation_method            fapswitch 2.2
_symmetry_space_group_name_H-M    P1
_symmetry_Int_Tables_number       1
_space_group_crystal_system       triclinic
_cell_length_a                    14.489932
_cell_length_b                    7.241901
_cell_length_c                    13.637596
_cell_angle_alpha                 89.999907
_cell_angle_beta                  99.648981
_cell_angle_gamma                 90.00009
_cell_volume                      1410.81140642

loop_
_atom_site_label
_atom_site_type_symbol
_atom_type_description
_atom_site_fract_x
_atom_site_fract_y
_atom_site_fract_z
_atom_type_partial_charge
O1    O     O_R   0.398210 0.494340 0.401550 -0.525127
O2    O     O_R   0.601790 0.994340 0.598450 -0.525126
O3    O     O_R   0.586310 0.821730 0.403360 -0.539666
O4    O     O_R   0.413690 0.321730 0.596640 -0.539663
C1    C     C_R   0.615035 0.655864 0.381245 0.746597
C2    C     C_R   0.384965 0.155864 0.618755 0.746597
O5    O     O_R   0.397970 0.823900 0.389580 -0.534455
O6    O     O_R   0.602030 0.323900 0.610420 -0.534455
O7    O     O_R   0.412100 0.996500 0.584560 -0.546304
O8    O     O_R   0.587900 0.496500 0.415440 -0.546304
C3    C     C_R   0.366807 0.655062 0.361095 0.715171
C4    C     C_R   0.633193 0.155062 0.638904 0.715176
O9    O     O_3   0.504860 0.661550 0.563990 -0.380765
O10   O     O_3   0.495140 0.161550 0.436010 -0.380766
V1    V     V_3+5 0.499100 0.935510 0.488130 1.414488
V2    V     V_3+5 0.500900 0.435510 0.511870 1.414492
C5    C     C_1   0.713540 0.144657 0.719812 -0.182688
C6    C     C_1   0.286460 0.644657 0.280187 -0.182681
C7    C     C_1   0.781880 0.134082 0.785731 -0.176022
C8    C     C_1   0.218121 0.634082 0.214268 -0.176011
C9    C     C_3   0.249088 0.309433 0.831175 -0.326979
C10   C     C_3   0.750915 0.809437 0.168827 -0.326977
H1    H     H_    0.205478 0.435780 0.816471 0.171413
H2    H     H_    0.794528 0.935781 0.183533 0.171420
H3    H     H_    0.282190 0.318036 0.910796 0.166136
H4    H     H_    0.717813 0.818045 0.089207 0.166135
C11   C     C_3   0.326860 0.311121 0.765691 -0.370954
C12   C     C_3   0.673143 0.811128 0.234312 -0.370955
H5    H     H_    0.396120 0.296221 0.814502 0.163688
H6    H     H_    0.603883 0.796236 0.185502 0.163681
H7    H     H_    0.329579 0.447369 0.729243 0.146580
H8    H     H_    0.670427 0.947374 0.270763 0.146580
C13   C     C_3   0.133553 0.133970 0.701835 0.285611
C14   C     C_3   0.866447 0.633962 0.298165 0.285609
C15   C     C_3   0.256847 0.962669 0.829427 0.270084
C16   C     C_3   0.743149 0.462673 0.170570 0.270078
C17   C     C_3   0.187295 0.131133 0.812605 -0.009858
C18   C     C_3   0.812705 0.631132 0.187395 -0.009855
H9    H     H_    0.215727 0.832435 0.816669 0.081985
H10   H     H_    0.784267 0.332436 0.183326 0.081991
C19   C     C_3   0.313211 0.149336 0.689562 -0.046313
C20   C     C_3   0.686790 0.649337 0.310438 -0.046302
C21   C     C_3   0.210082 0.148492 0.630750 0.283030
C22   C     C_3   0.789918 0.648483 0.369250 0.283028
C23   C     C_3   0.325993 0.969426 0.753284 -0.459917
C24   C     C_3   0.674002 0.469433 0.246712 -0.459940
H11   H     H_    0.399618 0.960278 0.792767 0.182214
H12   H     H_    0.600378 0.460297 0.207229 0.182207
H13   H     H_    0.314197 0.845598 0.704410 0.127526
H14   H     H_    0.685794 0.345600 0.295584 0.127530
H15   H     H_    0.206556 0.014638 0.591492 0.083331
H16   H     H_    0.793442 0.514625 0.408505 0.083332
O11   O     O_R   0.912140 0.786650 0.084610 -0.532340
O12   O     O_R   0.087860 0.286650 0.915390 -0.532340
O13   O     O_R   0.102040 0.454810 0.110430 -0.530145
O14   O     O_R   0.897960 0.954810 0.889570 -0.530143
C25   C     C_R   0.135865 0.623478 0.135753 0.717493
C26   C     C_R   0.864135 0.123478 0.864247 0.717513
O15   O     O_R   0.913690 0.457060 0.096650 -0.539678
O16   O     O_R   0.086310 0.957060 0.903350 -0.539683
O17   O     O_R   0.898200 0.284560 0.901540 -0.531785
O18   O     O_R   0.101800 0.784560 0.098460 -0.531788
C27   C     C_R   0.883331 0.624784 0.115927 0.760668
C28   C     C_R   0.116669 0.124785 0.884073 0.760654
O19   O     O_3   0.995160 0.617270 0.936040 -0.373810
O20   O     O_3   0.004840 0.117270 0.063960 -0.373808
V3    V     V_3+5 0.000900 0.343280 0.011870 1.463326
V4    V     V_3+5 0.999100 0.843280 0.988130 1.463320
I1    I     I_    0.059888 0.865728 0.667015 -0.605511
I2    I     I_    0.940109 0.365716 0.332981 -0.605502
O21   O     O_3   0.073618 0.292525 0.693673 -0.558780
C29   C     C_3   0.980127 0.260074 0.648677 0.087760
H17   H     H_    0.945925 0.163827 0.694590 0.148166
H18   H     H_    0.977151 0.206517 0.571870 0.168702
C30   C     C_3   0.924796 0.439428 0.643319 -0.646276
H19   H     H_    0.944497 0.530676 0.584913 0.243102
H20   H     H_    0.848728 0.410268 0.624355 0.181129
H21   H     H_    0.937978 0.510835 0.716395 0.259430
O22   O     O_3   0.926383 0.792514 0.306328 -0.558782
C31   C     C_3   0.019874 0.760061 0.351323 0.087763
H22   H     H_    0.054075 0.663814 0.305409 0.148166
H23   H     H_    0.022851 0.706502 0.428130 0.168700
C32   C     C_3   0.075206 0.939415 0.356681 -0.646281
H24   H     H_    0.055505 0.030663 0.415086 0.243101
H25   H     H_    0.151274 0.910253 0.375645 0.181127
H26   H     H_    0.062025 0.010822 0.283604 0.259430
O23   O     O_3   0.193853 0.273833 0.548959 -0.554721
C33   C     C_3   0.172417 0.457484 0.571560 0.205716
H27   H     H_    0.189810 0.495607 0.650638 0.155708
H28   H     H_    0.096537 0.479601 0.546451 0.186342
C34   C     C_3   0.222999 0.588812 0.513221 -0.775968
H29   H     H_    0.206776 0.550968 0.433607 0.234066
H30   H     H_    0.198684 0.731275 0.522327 0.179084
H31   H     H_    0.299269 0.583331 0.540718 0.238770
O24   O     O_3   0.806149 0.773818 0.451044 -0.554722
C35   C     C_3   0.827589 0.957470 0.428446 0.205717
H32   H     H_    0.810197 0.995598 0.349368 0.155714
H33   H     H_    0.903468 0.979583 0.453556 0.186343
C36   C     C_3   0.777006 0.088797 0.486785 -0.775975
H34   H     H_    0.793227 0.050950 0.566398 0.234071
H35   H     H_    0.801323 0.231260 0.477680 0.179086
H36   H     H_    0.700736 0.083319 0.459287 0.238769
O25   O     O_3   0.307723 0.968467 0.928039 -0.548082
C37   C     C_3   0.332608 0.788585 0.963359 0.111081
H37   H     H_    0.366823 0.709013 0.909380 0.108517
H38   H     H_    0.269304 0.712755 0.977464 0.110215
C38   C     C_3   0.401173 0.802359 0.060565 -0.713751
H39   H     H_    0.368621 0.878395 0.116735 0.225049
H40   H     H_    0.420924 0.661834 0.089334 0.170805
H41   H     H_    0.465288 0.876647 0.048142 0.216895
O26   O     O_3   0.692276 0.468477 0.071956 -0.548083
C39   C     C_3   0.667363 0.288606 0.036645 0.111082
H42   H     H_    0.633118 0.209089 0.090618 0.108542
H43   H     H_    0.730654 0.212715 0.022563 0.110200
C40   C     C_3   0.598819 0.302403 0.939424 -0.713763
H44   H     H_    0.631425 0.378273 0.883239 0.225022
H45   H     H_    0.578992 0.161888 0.910698 0.170813
H46   H     H_    0.534744 0.376868 0.951810 0.216932

loop_
_geom_bond_atom_site_label_1
_geom_bond_atom_site_label_2
_ccdc_geom_bond_type
O23   C33   S    
C3    C6    S    
C11   H5    S    
C19   C21   S    
O24   C35   S    
O1    C3    A    
C1    C20   S    
O2    C4    A    
C2    O7    A    
C37   H38   S    
C25   O18   A    
O5    C3    A    
C32   H24   S    
C15   C17   S    
C15   O25   S    
C31   C32   S    
C40   H44   S    
C10   C18   S    
C35   C36   S    
C20   C24   S    
C12   C20   S    
O11   V4    S    
O17   V3    S    
C39   H42   S    
C16   H10   S    
O15   V3    S    
O26   C39   S    
C40   H45   S    
C2    C19   S    
C35   H33   S    
C4    C5    S    
C38   H39   S    
C16   C24   S    
C14   I2    S    
C13   I1    S    
C22   H16   S    
C26   O17   A    
O5    V1    S    
O20   V3    S    
C9    C11   S    
O6    V2    S    
C10   C12   S    
C38   H40   S    
C20   C22   S    
C29   C30   S    
C39   H43   S    
C37   H37   S    
C23   H11   S    
C9    H1    S    
C24   H12   S    
C11   H7    S    
C13   C21   S    
C12   H8    S    
O19   V4    S    
C14   C22   S    
C31   H23   S    
C34   H29   S    
C31   H22   S    
O12   V3    S    
O14   V4    S    
C13   C17   S    
C7    C26   S    
O4    V2    S    
C15   H9    S    
C30   H19   S    
C14   O22   S    
C34   H30   S    
C11   C19   S    
C36   H34   S    
C33   C34   S    
C23   H13   S    
O6    C4    A    
C40   H46   S    
C35   H32   S    
C36   H36   S    
C16   O26   S    
O1    V2    S    
O2    V1    S    
C30   H20   S    
C29   H18   S    
C32   H25   S    
C33   H28   S    
O13   C25   A    
C38   H41   S    
C10   H2    S    
O4    C2    A    
C15   C23   S    
C17   C28   S    
O3    V1    S    
C18   C27   S    
C9    H3    S    
C36   H35   S    
C14   C18   S    
C29   H17   S    
O3    C1    A    
O13   V3    S    
C24   H14   S    
O15   C27   A    
O18   V4    S    
O16   C28   A    
C21   O23   S    
C12   H6    S    
O7    V1    S    
O21   C29   S    
C22   O24   S    
O8    V2    S    
C34   H31   S    
O11   C27   A    
C21   H15   S    
O12   C28   A    
C16   C18   S    
C5    C7    T    
O14   C26   A    
C6    C8    T    
C39   C40   S    
C30   H21   S    
C13   O21   S    
O22   C31   S    
C1    O8    A    
C32   H26   S    
C9    C17   S    
C33   H27   S    
O16   V4    S    
C10   H4    S    
O9    V2    S    
O25   C37   S    
C19   C23   S    
O10   V1    S    
C8    C25   S    
C37   C38   S    
