data_mof_unit_62683.cif
_audit_creation_date              2013-03-05T15:54:21-0500
_audit_creation_method            fapswitch 2.2
_symmetry_space_group_name_H-M    P1
_symmetry_Int_Tables_number       1
_space_group_crystal_system       triclinic
_cell_length_a                    24.519072
_cell_length_b                    24.519075
_cell_length_c                    32.796579
_cell_angle_alpha                 90.000328
_cell_angle_beta                  89.999529
_cell_angle_gamma                 90.000679
_cell_volume                      19716.8102056

loop_
_atom_site_label
_atom_site_type_symbol
_atom_site_description
_atom_site_fract_x
_atom_site_fract_y
_atom_site_fract_z
_atom_type_partial_charge
Zn1   Zn    Zn3+2 0.500000 0.934510 0.781550 1.001921
Zn2   Zn    Zn3+2 0.500000 0.065490 0.218450 1.002001
Zn3   Zn    Zn3+2 0.065490 0.500000 0.781550 1.001926
Zn4   Zn    Zn3+2 0.934510 0.500000 0.218450 1.001997
Zn5   Zn    Zn3+2 0.500000 0.065490 0.781550 1.001928
Zn6   Zn    Zn3+2 0.500000 0.934510 0.218450 1.001904
Zn7   Zn    Zn3+2 0.934510 0.500000 0.781550 1.001922
Zn8   Zn    Zn3+2 0.065490 0.500000 0.218450 1.001907
Zn9   Zn    Zn3+2 0.000000 0.434510 0.281550 1.002001
Zn10  Zn    Zn3+2 0.000000 0.565490 0.718450 1.001921
Zn11  Zn    Zn3+2 0.565490 0.000000 0.281550 1.001997
Zn12  Zn    Zn3+2 0.434510 0.000000 0.718450 1.001926
Zn13  Zn    Zn3+2 0.000000 0.565490 0.281550 1.001904
Zn14  Zn    Zn3+2 0.000000 0.434510 0.718450 1.001928
Zn15  Zn    Zn3+2 0.434510 0.000000 0.281550 1.001907
Zn16  Zn    Zn3+2 0.565490 0.000000 0.718450 1.001922
C1    C     C_1   0.500000 1.000000 0.981186 0.055675
C2    C     C_1   0.500000 1.000000 0.018814 0.055685
C3    C     C_1   1.000000 0.500000 0.981186 0.055675
C4    C     C_1   0.000000 0.500000 0.018814 0.055685
C5    C     C_1   1.000000 0.500000 0.481185 0.055685
C6    C     C_1   1.000000 0.500000 0.518814 0.055675
C7    C     C_1   0.500000 0.000000 0.481185 0.055685
C8    C     C_1   0.500000 0.000000 0.518814 0.055675
O1    O     O_3   0.500000 0.000000 0.750000 -0.481019
O2    O     O_3   0.500000 0.000000 0.250000 -0.481055
O3    O     O_3   0.000000 0.500000 0.750000 -0.481019
O4    O     O_3   1.000000 0.500000 0.250000 -0.481055
O5    O     O_R   0.454070 1.000000 0.666090 -0.619900
O6    O     O_R   0.545930 1.000000 0.333910 -0.619846
O7    O     O_R   0.000000 0.454070 0.666090 -0.619901
O8    O     O_R   0.000000 0.545930 0.333910 -0.619917
O9    O     O_R   0.545930 1.000000 0.666090 -0.619905
O10   O     O_R   0.454070 1.000000 0.333910 -0.619915
O11   O     O_R   0.000000 0.545930 0.666090 -0.619905
O12   O     O_R   0.000000 0.454070 0.333910 -0.619844
O13   O     O_R   0.954070 0.500000 0.166090 -0.619846
O14   O     O_R   0.045930 0.500000 0.833910 -0.619900
O15   O     O_R   0.500000 0.954070 0.166090 -0.619918
O16   O     O_R   0.500000 0.045930 0.833910 -0.619901
O17   O     O_R   0.045930 0.500000 0.166090 -0.619916
O18   O     O_R   0.954070 0.500000 0.833910 -0.619905
O19   O     O_R   0.500000 0.045930 0.166090 -0.619844
O20   O     O_R   0.500000 0.954070 0.833910 -0.619905
O21   O     O_R   0.610280 0.935490 0.728060 -0.626269
O22   O     O_R   0.389720 0.064510 0.271940 -0.626275
O23   O     O_R   0.064510 0.610280 0.728060 -0.626284
O24   O     O_R   0.935490 0.389720 0.271940 -0.626173
O25   O     O_R   0.389720 0.064510 0.728060 -0.626264
O26   O     O_R   0.610280 0.935490 0.271940 -0.626297
O27   O     O_R   0.935490 0.389720 0.728060 -0.626290
O28   O     O_R   0.064510 0.610280 0.271940 -0.626268
O29   O     O_R   0.389720 0.935490 0.271940 -0.626270
O30   O     O_R   0.610280 0.064510 0.728060 -0.626290
O31   O     O_R   0.935490 0.610280 0.271940 -0.626280
O32   O     O_R   0.064510 0.389720 0.728060 -0.626263
O33   O     O_R   0.610280 0.064510 0.271940 -0.626171
O34   O     O_R   0.389720 0.935490 0.728060 -0.626285
O35   O     O_R   0.064510 0.389720 0.271940 -0.626293
O36   O     O_R   0.935490 0.610280 0.728060 -0.626269
O37   O     O_R   0.110280 0.435490 0.228060 -0.626276
O38   O     O_R   0.889720 0.564510 0.771940 -0.626269
O39   O     O_R   0.564510 0.110280 0.228060 -0.626172
O40   O     O_R   0.435490 0.889720 0.771940 -0.626284
O41   O     O_R   0.889720 0.564510 0.228060 -0.626297
O42   O     O_R   0.110280 0.435490 0.771940 -0.626264
O43   O     O_R   0.435490 0.889720 0.228060 -0.626269
O44   O     O_R   0.564510 0.110280 0.771940 -0.626290
O45   O     O_R   0.889720 0.435490 0.771940 -0.626290
O46   O     O_R   0.110280 0.564510 0.228060 -0.626270
O47   O     O_R   0.435490 0.110280 0.771940 -0.626263
O48   O     O_R   0.564510 0.889720 0.228060 -0.626280
O49   O     O_R   0.110280 0.564510 0.771940 -0.626285
O50   O     O_R   0.889720 0.435490 0.228060 -0.626171
O51   O     O_R   0.564510 0.889720 0.771940 -0.626269
O52   O     O_R   0.435490 0.110280 0.228060 -0.626294
C9    C     C_1   0.500000 0.000000 0.899099 -0.117426
C10   C     C_1   0.500000 1.000000 0.100901 -0.117384
C11   C     C_1   0.999999 0.500000 0.899099 -0.117426
C12   C     C_1   0.000000 0.500000 0.100901 -0.117384
C13   C     C_1   1.000000 0.500000 0.399099 -0.117384
C14   C     C_1   1.000000 0.500000 0.600901 -0.117426
C15   C     C_1   0.499999 0.000000 0.399099 -0.117384
C16   C     C_1   0.500000 0.000000 0.600901 -0.117426
C17   C     C_1   0.500000 0.000000 0.936728 0.035565
C18   C     C_1   0.500000 1.000000 0.063272 0.035593
C19   C     C_1   1.000000 0.500000 0.936728 0.035565
C20   C     C_1   0.000000 0.500000 0.063272 0.035593
C21   C     C_1   1.000000 0.500000 0.436728 0.035593
C22   C     C_1   1.000000 0.500000 0.563272 0.035565
C23   C     C_1   0.499999 0.000000 0.436728 0.035593
C24   C     C_1   0.500000 0.000000 0.563272 0.035565
C25   C     C_R   0.500000 1.000000 0.646122 0.780313
C26   C     C_R   0.500000 1.000000 0.353878 0.780309
C27   C     C_R   1.000000 0.500000 0.646122 0.780313
C28   C     C_R   1.000000 0.500000 0.353878 0.780309
C29   C     C_R   0.000000 0.500000 0.146121 0.780309
C30   C     C_R   1.000000 0.500000 0.853878 0.780313
C31   C     C_R   0.500000 1.000000 0.146121 0.780308
C32   C     C_R   0.500000 0.000000 0.853878 0.780313
C33   C     C_R   0.606142 0.893859 0.750000 0.829238
C34   C     C_R   0.393858 0.106141 0.250000 0.829205
C35   C     C_R   0.106141 0.606142 0.750000 0.829230
C36   C     C_R   0.893860 0.393860 0.250000 0.829180
C37   C     C_R   0.393859 0.106141 0.750000 0.829234
C38   C     C_R   0.606141 0.893858 0.250000 0.829206
C39   C     C_R   0.893858 0.393858 0.750000 0.829238
C40   C     C_R   0.106141 0.606141 0.250000 0.829236
C41   C     C_R   0.393859 0.893859 0.250000 0.829236
C42   C     C_R   0.606142 0.106142 0.750000 0.829238
C43   C     C_R   0.893858 0.606142 0.250000 0.829206
C44   C     C_R   0.106141 0.393858 0.750000 0.829234
C45   C     C_R   0.606140 0.106140 0.250000 0.829180
C46   C     C_R   0.393858 0.893858 0.750000 0.829231
C47   C     C_R   0.106142 0.393858 0.250000 0.829206
C48   C     C_R   0.893858 0.606141 0.750000 0.829238
C49   C     C_R   0.165612 0.672069 0.712843 0.114443
C50   C     C_R   0.834165 0.328169 0.287177 0.114483
C51   C     C_R   0.327967 0.165646 0.712840 0.114448
C52   C     C_R   0.672065 0.834383 0.287157 0.114433
C53   C     C_R   0.834401 0.327917 0.712845 0.114420
C54   C     C_R   0.165642 0.672037 0.287160 0.114451
C55   C     C_R   0.672045 0.834364 0.712841 0.114452
C56   C     C_R   0.327943 0.165624 0.287158 0.114436
C57   C     C_R   0.834383 0.672066 0.287157 0.114439
C58   C     C_R   0.165646 0.327966 0.712840 0.114451
C59   C     C_R   0.671831 0.165835 0.287177 0.114482
C60   C     C_R   0.327931 0.834387 0.712844 0.114444
C61   C     C_R   0.165624 0.327943 0.287158 0.114433
C62   C     C_R   0.834364 0.672044 0.712841 0.114448
C63   C     C_R   0.327962 0.834358 0.287160 0.114453
C64   C     C_R   0.672084 0.165599 0.712845 0.114421
C65   C     C_R   0.665836 0.171829 0.212822 0.114479
C66   C     C_R   0.334387 0.827931 0.787156 0.114443
C67   C     C_R   0.827936 0.665617 0.212843 0.114433
C68   C     C_R   0.172033 0.334354 0.787160 0.114450
C69   C     C_R   0.334358 0.827963 0.212841 0.114452
C70   C     C_R   0.665599 0.172083 0.787155 0.114421
C71   C     C_R   0.172059 0.334377 0.212843 0.114441
C72   C     C_R   0.827954 0.665636 0.787158 0.114452
C73   C     C_R   0.334354 0.172034 0.787160 0.114452
C74   C     C_R   0.665617 0.827935 0.212843 0.114438
C75   C     C_R   0.172069 0.665613 0.787156 0.114444
C76   C     C_R   0.828171 0.334164 0.212822 0.114480
C77   C     C_R   0.665635 0.827956 0.787158 0.114448
C78   C     C_R   0.334377 0.172058 0.212843 0.114434
C79   C     C_R   0.827916 0.334401 0.787155 0.114420
C80   C     C_R   0.172038 0.665641 0.212841 0.114453
C81   C     C_R   0.148586 0.648586 0.750000 -0.055507
C82   C     C_R   0.851418 0.351417 0.250000 -0.055112
C83   C     C_R   0.351414 0.148586 0.750000 -0.055448
C84   C     C_R   0.648586 0.851413 0.250000 -0.055515
C85   C     C_R   0.851413 0.351414 0.750000 -0.055528
C86   C     C_R   0.148586 0.648585 0.250000 -0.055459
C87   C     C_R   0.648586 0.851414 0.750000 -0.055469
C88   C     C_R   0.351414 0.148586 0.250000 -0.055503
C89   C     C_R   0.851414 0.648587 0.250000 -0.055515
C90   C     C_R   0.148586 0.351414 0.750000 -0.055449
C91   C     C_R   0.648583 0.148582 0.250000 -0.055111
C92   C     C_R   0.351414 0.851414 0.750000 -0.055507
C93   C     C_R   0.148587 0.351414 0.250000 -0.055504
C94   C     C_R   0.851413 0.648586 0.750000 -0.055469
C95   C     C_R   0.351414 0.851414 0.250000 -0.055459
C96   C     C_R   0.648586 0.148586 0.750000 -0.055529
C97   C     C_R   0.218223 0.700316 0.786242 -0.022149
C98   C     C_R   0.782020 0.299447 0.213691 -0.022133
C99   C     C_R   0.299648 0.218187 0.786252 -0.022142
C100  C     C_R   0.700321 0.781781 0.213756 -0.022149
C101  C     C_R   0.781762 0.299698 0.786238 -0.022142
C102  C     C_R   0.218192 0.700347 0.213749 -0.022147
C103  C     C_R   0.700340 0.781802 0.786249 -0.022143
C104  C     C_R   0.299673 0.218212 0.213755 -0.022154
C105  C     C_R   0.781782 0.700321 0.213756 -0.022157
C106  C     C_R   0.218187 0.299648 0.786252 -0.022143
C107  C     C_R   0.700553 0.217980 0.213691 -0.022133
C108  C     C_R   0.299684 0.781777 0.786242 -0.022148
C109  C     C_R   0.218213 0.299673 0.213755 -0.022147
C110  C     C_R   0.781801 0.700341 0.786249 -0.022143
C111  C     C_R   0.299653 0.781808 0.213749 -0.022148
C112  C     C_R   0.700302 0.218238 0.786238 -0.022142
C113  C     C_R   0.717982 0.200550 0.286307 -0.022130
C114  C     C_R   0.281777 0.799684 0.713758 -0.022149
C115  C     C_R   0.799679 0.718220 0.286243 -0.022149
C116  C     C_R   0.200352 0.281813 0.713748 -0.022142
C117  C     C_R   0.281809 0.799652 0.286251 -0.022148
C118  C     C_R   0.718238 0.200302 0.713762 -0.022141
C119  C     C_R   0.200328 0.281790 0.286246 -0.022155
C120  C     C_R   0.799659 0.718198 0.713751 -0.022143
C121  C     C_R   0.281813 0.200352 0.713748 -0.022142
C122  C     C_R   0.718219 0.799680 0.286243 -0.022156
C123  C     C_R   0.200316 0.718223 0.713758 -0.022149
C124  C     C_R   0.799450 0.282017 0.286307 -0.022129
C125  C     C_R   0.718199 0.799659 0.713751 -0.022143
C126  C     C_R   0.281789 0.200329 0.286246 -0.022150
C127  C     C_R   0.799698 0.281762 0.713762 -0.022142
C128  C     C_R   0.200348 0.718191 0.286251 -0.022149
C129  C     C_R   0.229640 0.729640 0.750000 -0.049380
C130  C     C_R   0.770363 0.270361 0.249999 -0.049392
C131  C     C_R   0.270360 0.229640 0.750000 -0.049378
C132  C     C_R   0.729640 0.770360 0.250000 -0.049393
C133  C     C_R   0.770360 0.270360 0.750000 -0.049373
C134  C     C_R   0.229640 0.729639 0.250000 -0.049386
C135  C     C_R   0.729640 0.770360 0.750000 -0.049379
C136  C     C_R   0.270361 0.229641 0.250001 -0.049392
C137  C     C_R   0.770360 0.729640 0.250000 -0.049393
C138  C     C_R   0.229640 0.270360 0.750000 -0.049379
C139  C     C_R   0.729639 0.229637 0.249999 -0.049392
C140  C     C_R   0.270360 0.770360 0.750000 -0.049380
C141  C     C_R   0.229641 0.270361 0.250001 -0.049393
C142  C     C_R   0.770360 0.729640 0.750000 -0.049378
C143  C     C_R   0.270361 0.770360 0.250000 -0.049386
C144  C     C_R   0.729640 0.229640 0.750000 -0.049373
C145  C     C_R   0.253717 0.705743 0.820111 0.195449
C146  C     C_R   0.746758 0.293782 0.179710 0.195594
C147  C     C_R   0.294184 0.253646 0.820138 0.195471
C148  C     C_R   0.705753 0.746291 0.179886 0.195446
C149  C     C_R   0.746254 0.294286 0.820100 0.195437
C150  C     C_R   0.253656 0.705805 0.179866 0.195465
C151  C     C_R   0.705791 0.746332 0.820129 0.195464
C152  C     C_R   0.294235 0.253694 0.179881 0.195456
C153  C     C_R   0.746293 0.705752 0.179886 0.195454
C154  C     C_R   0.253645 0.294186 0.820138 0.195472
C155  C     C_R   0.706218 0.253243 0.179710 0.195594
C156  C     C_R   0.294256 0.746283 0.820111 0.195448
C157  C     C_R   0.253696 0.294234 0.179881 0.195449
C158  C     C_R   0.746330 0.705792 0.820129 0.195463
C159  C     C_R   0.294195 0.746345 0.179866 0.195468
C160  C     C_R   0.705714 0.253746 0.820100 0.195436
C161  C     C_R   0.753246 0.206214 0.320288 0.195590
C162  C     C_R   0.246283 0.794257 0.679889 0.195449
C163  C     C_R   0.794248 0.753709 0.320114 0.195446
C164  C     C_R   0.205815 0.246354 0.679862 0.195471
C165  C     C_R   0.246345 0.794194 0.320135 0.195467
C166  C     C_R   0.753746 0.205714 0.679900 0.195436
C167  C     C_R   0.205767 0.246308 0.320120 0.195457
C168  C     C_R   0.794208 0.753667 0.679870 0.195465
C169  C     C_R   0.246355 0.205814 0.679862 0.195471
C170  C     C_R   0.753708 0.794249 0.320114 0.195453
C171  C     C_R   0.205743 0.753717 0.679889 0.195449
C172  C     C_R   0.793785 0.246754 0.320288 0.195589
C173  C     C_R   0.753669 0.794207 0.679870 0.195463
C174  C     C_R   0.246307 0.205769 0.320121 0.195454
C175  C     C_R   0.794286 0.246254 0.679900 0.195437
C176  C     C_R   0.205806 0.753654 0.320135 0.195469
N1    N     N_R   0.255215 0.664391 0.851119 0.234362
O53   O     O_R   0.245837 0.676650 0.889069 -0.287008
O54   O     O_R   0.265475 0.614034 0.841232 -0.307262
N2    N     N_R   0.745469 0.334913 0.148534 0.234335
O55   O     O_R   0.755130 0.322389 0.110672 -0.287288
O56   O     O_R   0.735078 0.385329 0.158176 -0.307142
N3    N     N_R   0.335503 0.255114 0.851172 0.234358
O57   O     O_R   0.323204 0.245693 0.889108 -0.287051
O58   O     O_R   0.385869 0.265396 0.841322 -0.307212
N4    N     N_R   0.664406 0.744796 0.148874 0.234358
O59   O     O_R   0.676670 0.754179 0.110926 -0.287014
O60   O     O_R   0.614047 0.734532 0.158756 -0.307285
N5    N     N_R   0.744742 0.335651 0.851098 0.234356
O61   O     O_R   0.754103 0.323408 0.889053 -0.286884
O62   O     O_R   0.734489 0.386004 0.841197 -0.307257
N6    N     N_R   0.255127 0.664481 0.148835 0.234359
O63   O     O_R   0.245714 0.676774 0.110897 -0.287058
O64   O     O_R   0.265404 0.614116 0.158690 -0.307253
N7    N     N_R   0.664462 0.744855 0.851155 0.234359
O65   O     O_R   0.676748 0.754263 0.889096 -0.287044
O66   O     O_R   0.614099 0.734580 0.841294 -0.307229
N8    N     N_R   0.335576 0.255183 0.148864 0.234362
O67   O     O_R   0.323305 0.245791 0.110919 -0.287013
O68   O     O_R   0.385937 0.265450 0.158739 -0.307364
N9    N     N_R   0.744798 0.664405 0.148873 0.234361
O69   O     O_R   0.754183 0.676669 0.110926 -0.287012
O70   O     O_R   0.734534 0.614046 0.158755 -0.307367
N10   N     N_R   0.255112 0.335504 0.851172 0.234357
O71   O     O_R   0.245691 0.323206 0.889108 -0.287052
O72   O     O_R   0.265394 0.385870 0.841322 -0.307223
N11   N     N_R   0.665087 0.254531 0.148534 0.234335
O73   O     O_R   0.677611 0.244870 0.110671 -0.287288
O74   O     O_R   0.614672 0.264923 0.158176 -0.307143
N12   N     N_R   0.335608 0.744784 0.851119 0.234361
O75   O     O_R   0.323350 0.754162 0.889069 -0.287008
O76   O     O_R   0.385966 0.734524 0.841232 -0.307257
N13   N     N_R   0.255186 0.335576 0.148865 0.234355
O77   O     O_R   0.245796 0.323305 0.110919 -0.287012
O78   O     O_R   0.265452 0.385936 0.158741 -0.307283
N14   N     N_R   0.744852 0.664463 0.851155 0.234360
O79   O     O_R   0.754259 0.676749 0.889096 -0.287041
O80   O     O_R   0.734578 0.614100 0.841293 -0.307219
N15   N     N_R   0.335518 0.744874 0.148835 0.234360
O81   O     O_R   0.323226 0.754288 0.110897 -0.287062
O82   O     O_R   0.385884 0.734597 0.158690 -0.307250
N16   N     N_R   0.664349 0.255257 0.851098 0.234357
O83   O     O_R   0.676591 0.245896 0.889053 -0.286883
O84   O     O_R   0.613995 0.265510 0.841197 -0.307262
N17   N     N_R   0.754536 0.165082 0.351463 0.234337
O85   O     O_R   0.744876 0.177603 0.389326 -0.287286
O86   O     O_R   0.764924 0.114666 0.341819 -0.307144
N18   N     N_R   0.244785 0.835609 0.648881 0.234362
O87   O     O_R   0.254163 0.823350 0.610931 -0.287008
O88   O     O_R   0.234525 0.885966 0.658768 -0.307262
N19   N     N_R   0.835595 0.755205 0.351125 0.234358
O89   O     O_R   0.823332 0.745822 0.389073 -0.287013
O90   O     O_R   0.885954 0.765469 0.341243 -0.307286
N20   N     N_R   0.164497 0.244886 0.648828 0.234359
O91   O     O_R   0.176796 0.254307 0.610892 -0.287051
O92   O     O_R   0.114131 0.234604 0.658678 -0.307212
N21   N     N_R   0.244874 0.835517 0.351166 0.234358
O93   O     O_R   0.254288 0.823224 0.389104 -0.287059
O94   O     O_R   0.234597 0.885882 0.341311 -0.307253
N22   N     N_R   0.755258 0.164349 0.648902 0.234356
O95   O     O_R   0.745898 0.176591 0.610947 -0.286884
O96   O     O_R   0.765510 0.113996 0.658803 -0.307258
N23   N     N_R   0.164427 0.244820 0.351138 0.234359
O97   O     O_R   0.176699 0.254212 0.389083 -0.287011
O98   O     O_R   0.114066 0.234551 0.341264 -0.307362
N24   N     N_R   0.835537 0.755144 0.648844 0.234359
O99   O     O_R   0.823251 0.745736 0.610904 -0.287045
O100  O     O_R   0.885901 0.765420 0.658705 -0.307229
N25   N     N_R   0.244888 0.164496 0.648828 0.234357
O101  O     O_R   0.254309 0.176794 0.610892 -0.287051
O102  O     O_R   0.234606 0.114129 0.658678 -0.307223
N26   N     N_R   0.755203 0.835596 0.351126 0.234361
O103  O     O_R   0.745819 0.823333 0.389073 -0.287011
O104  O     O_R   0.765467 0.885955 0.341244 -0.307366
N27   N     N_R   0.164392 0.755216 0.648881 0.234360
O105  O     O_R   0.176650 0.745838 0.610931 -0.287007
O106  O     O_R   0.114034 0.765476 0.658768 -0.307258
N28   N     N_R   0.834918 0.245463 0.351463 0.234338
O107  O     O_R   0.822396 0.255121 0.389326 -0.287283
O108  O     O_R   0.885334 0.235076 0.341818 -0.307148
N29   N     N_R   0.755147 0.835536 0.648844 0.234360
O109  O     O_R   0.745740 0.823250 0.610904 -0.287042
O110  O     O_R   0.765422 0.885900 0.658706 -0.307219
N30   N     N_R   0.244819 0.164430 0.351139 0.234357
O111  O     O_R   0.254215 0.176703 0.389083 -0.287021
O112  O     O_R   0.234549 0.114070 0.341265 -0.307280
N31   N     N_R   0.835651 0.244743 0.648902 0.234357
O113  O     O_R   0.823409 0.254104 0.610947 -0.286885
O114  O     O_R   0.886005 0.234490 0.658803 -0.307262
N32   N     N_R   0.164483 0.755124 0.351166 0.234359
O115  O     O_R   0.176777 0.745708 0.389104 -0.287063
O116  O     O_R   0.114118 0.765402 0.341313 -0.307249
C177  C     C_3   0.151723 0.643838 0.672973 -0.718427
H1    H     H_    0.110834 0.656680 0.662111 0.287295
H2    H     H_    0.182896 0.652153 0.649276 0.252064
H3    H     H_    0.151988 0.598839 0.676836 0.195959
C178  C     C_3   0.847852 0.356642 0.326990 -0.718949
H4    H     H_    0.816524 0.348522 0.350611 0.252208
H5    H     H_    0.888662 0.343824 0.338033 0.287193
H6    H     H_    0.847669 0.401616 0.322967 0.195841
C179  C     C_3   0.356234 0.151786 0.672979 -0.718494
H7    H     H_    0.343394 0.110910 0.662088 0.287276
H8    H     H_    0.347951 0.182983 0.649293 0.252088
H9    H     H_    0.401230 0.152038 0.676866 0.195948
C180  C     C_3   0.643829 0.848270 0.327026 -0.718419
H10   H     H_    0.652140 0.817094 0.350722 0.252065
H11   H     H_    0.656672 0.889157 0.337892 0.287299
H12   H     H_    0.598831 0.848006 0.323160 0.195955
C181  C     C_3   0.848304 0.356132 0.672971 -0.718342
H13   H     H_    0.889197 0.343289 0.662119 0.287299
H14   H     H_    0.817140 0.347806 0.649269 0.252070
H15   H     H_    0.848034 0.401133 0.676825 0.195967
C182  C     C_3   0.151779 0.643774 0.327022 -0.718505
H16   H     H_    0.182973 0.652061 0.350709 0.252081
H17   H     H_    0.110901 0.656613 0.337909 0.287280
H18   H     H_    0.152032 0.598778 0.323137 0.195943
C183  C     C_3   0.643791 0.848233 0.672977 -0.718481
H19   H     H_    0.656631 0.889114 0.662096 0.287284
H20   H     H_    0.652084 0.817044 0.649287 0.252078
H21   H     H_    0.598794 0.847977 0.676856 0.195949
C184  C     C_3   0.356185 0.151745 0.327025 -0.718445
H22   H     H_    0.347883 0.182927 0.350718 0.252074
H23   H     H_    0.343342 0.110861 0.337898 0.287294
H24   H     H_    0.401183 0.152003 0.323153 0.195941
C185  C     C_3   0.848269 0.643831 0.327026 -0.718435
H25   H     H_    0.889156 0.656673 0.337892 0.287297
H26   H     H_    0.817093 0.652142 0.350722 0.252068
H27   H     H_    0.848005 0.598833 0.323160 0.195945
C186  C     C_3   0.151787 0.356233 0.672979 -0.718502
H28   H     H_    0.182984 0.347949 0.649293 0.252086
H29   H     H_    0.110911 0.343393 0.662089 0.287279
H30   H     H_    0.152039 0.401228 0.676866 0.195943
C187  C     C_3   0.643357 0.152148 0.326990 -0.718948
H31   H     H_    0.656176 0.111339 0.338033 0.287193
H32   H     H_    0.651476 0.183476 0.350611 0.252208
H33   H     H_    0.598383 0.152330 0.322967 0.195841
C188  C     C_3   0.356162 0.848277 0.672973 -0.718426
H34   H     H_    0.347848 0.817104 0.649276 0.252064
H35   H     H_    0.343321 0.889166 0.662111 0.287295
H36   H     H_    0.401161 0.848012 0.676836 0.195959
C189  C     C_3   0.151743 0.356186 0.327025 -0.718430
H37   H     H_    0.110859 0.343345 0.337897 0.287295
H38   H     H_    0.182924 0.347883 0.350719 0.252070
H39   H     H_    0.152004 0.401184 0.323154 0.195951
C190  C     C_3   0.848234 0.643788 0.672977 -0.718471
H40   H     H_    0.817045 0.652081 0.649288 0.252080
H41   H     H_    0.889114 0.656630 0.662095 0.287281
H42   H     H_    0.847978 0.598792 0.676856 0.195954
C191  C     C_3   0.356225 0.848221 0.327022 -0.718507
H43   H     H_    0.343386 0.889100 0.337909 0.287280
H44   H     H_    0.347937 0.817028 0.350710 0.252081
H45   H     H_    0.401221 0.847968 0.323138 0.195943
C192  C     C_3   0.643868 0.151696 0.672971 -0.718344
H46   H     H_    0.652195 0.182860 0.649269 0.252070
H47   H     H_    0.656712 0.110803 0.662119 0.287298
H48   H     H_    0.598868 0.151966 0.676824 0.195967
C193  C     C_3   0.652149 0.143355 0.173009 -0.718945
H49   H     H_    0.611341 0.156176 0.161965 0.287193
H50   H     H_    0.683479 0.151471 0.149389 0.252208
H51   H     H_    0.652328 0.098381 0.177033 0.195841
C194  C     C_3   0.348277 0.856162 0.827027 -0.718426
H52   H     H_    0.317104 0.847847 0.850724 0.252064
H53   H     H_    0.389165 0.843320 0.837889 0.287295
H54   H     H_    0.348012 0.901161 0.823164 0.195959
C195  C     C_3   0.856171 0.651731 0.172974 -0.718418
H55   H     H_    0.843328 0.610844 0.162107 0.287299
H56   H     H_    0.847862 0.682907 0.149278 0.252065
H57   H     H_    0.901170 0.651993 0.176840 0.195955
C196  C     C_3   0.143765 0.348214 0.827021 -0.718494
H58   H     H_    0.152049 0.317017 0.850707 0.252088
H59   H     H_    0.156605 0.389090 0.837912 0.287276
H60   H     H_    0.098770 0.347962 0.823134 0.195948
C197  C     C_3   0.348221 0.856225 0.172978 -0.718508
H61   H     H_    0.389100 0.843387 0.162091 0.287281
H62   H     H_    0.317028 0.847936 0.149291 0.252081
H63   H     H_    0.347967 0.901221 0.176862 0.195943
C198  C     C_3   0.651696 0.143867 0.827029 -0.718343
H64   H     H_    0.682860 0.152194 0.850731 0.252070
H65   H     H_    0.610803 0.156711 0.837881 0.287299
H66   H     H_    0.651966 0.098867 0.823175 0.195968
C199  C     C_3   0.143817 0.348256 0.172975 -0.718449
H67   H     H_    0.156658 0.389142 0.162105 0.287294
H68   H     H_    0.152124 0.317077 0.149281 0.252074
H69   H     H_    0.098819 0.347994 0.176846 0.195942
C200  C     C_3   0.856209 0.651766 0.827023 -0.718482
H70   H     H_    0.847915 0.682956 0.850713 0.252079
H71   H     H_    0.843369 0.610886 0.837904 0.287284
H72   H     H_    0.901206 0.652023 0.823144 0.195949
C201  C     C_3   0.348213 0.143767 0.827021 -0.718503
H73   H     H_    0.389089 0.156607 0.837911 0.287279
H74   H     H_    0.317016 0.152051 0.850707 0.252086
H75   H     H_    0.347961 0.098772 0.823134 0.195943
C202  C     C_3   0.651731 0.856169 0.172974 -0.718434
H76   H     H_    0.682907 0.847859 0.149278 0.252068
H77   H     H_    0.610844 0.843327 0.162108 0.287297
H78   H     H_    0.651994 0.901168 0.176840 0.195945
C203  C     C_3   0.143837 0.651723 0.827027 -0.718425
H79   H     H_    0.156679 0.610834 0.837889 0.287295
H80   H     H_    0.152152 0.682896 0.850724 0.252063
H81   H     H_    0.098838 0.651988 0.823164 0.195959
C204  C     C_3   0.856645 0.347851 0.173009 -0.718945
H82   H     H_    0.848529 0.316522 0.149389 0.252208
H83   H     H_    0.843825 0.388660 0.161965 0.287193
H84   H     H_    0.901619 0.347672 0.177033 0.195841
C205  C     C_3   0.651766 0.856211 0.827023 -0.718472
H85   H     H_    0.610885 0.843370 0.837905 0.287281
H86   H     H_    0.682955 0.847918 0.850712 0.252081
H87   H     H_    0.652022 0.901208 0.823144 0.195954
C206  C     C_3   0.348256 0.143815 0.172975 -0.718432
H88   H     H_    0.317076 0.152120 0.149282 0.252071
H89   H     H_    0.389142 0.156656 0.162104 0.287295
H90   H     H_    0.347994 0.098817 0.176846 0.195951
C207  C     C_3   0.856132 0.348304 0.827029 -0.718344
H91   H     H_    0.843288 0.389197 0.837881 0.287298
H92   H     H_    0.847805 0.317140 0.850731 0.252070
H93   H     H_    0.901132 0.348035 0.823175 0.195967
C208  C     C_3   0.143776 0.651778 0.172978 -0.718508
H94   H     H_    0.152065 0.682971 0.149291 0.252080
H95   H     H_    0.156614 0.610900 0.162091 0.287281
H96   H     H_    0.098780 0.652033 0.176862 0.195943

loop_
_geom_bond_atom_site_label_1
_geom_bond_atom_site_label_2
_geom_bond_distance
_ccdc_geom_bond_type
C117  C165  1.417353 A    
C181  H13   1.109589 S    
C198  H64   1.108964 S    
C3    C4    1.234099 T    
C106  C154  1.417355 A    
C107  C139  1.417141 A    
C121  C169  1.417355 A    
C11   C19   1.234099 T    
C72   C200  1.518205 S    
C75   C203  1.518203 S    
C201  H73   1.109587 S    
C132  C137  1.411979 A    
C66   C108  1.416184 A    
C1    C17   1.458064 S    
C67   C105  1.416196 A    
N14   O79   1.300873 A    
C113  C139  1.417140 A    
O19   C31   1.302737 A    
C3    C19   1.458064 S    
C191  H44   1.108962 S    
C33   C87   1.471784 S    
C208  H96   1.110602 S    
C149  N5    1.436517 S    
C9    C32   1.483074 S    
C206  H88   1.108963 S    
Zn7   O18   1.782950 S    
C36   C82   1.471706 S    
C74   C202  1.518204 S    
C186  H30   1.110603 S    
N4    O60   1.301140 A    
Zn4   O4    1.910275 S    
C120  C142  1.417089 A    
C169  N25   1.436516 S    
N10   O71   1.300877 A    
C204  H83   1.109591 S    
O37   C47   1.253008 A    
C72   C110  1.416204 A    
N15   O82   1.301140 A    
C135  C142  1.411991 A    
N28   O107  1.300901 A    
C173  N29   1.436520 S    
C133  C144  1.411959 A    
C57   C185  1.518204 S    
C184  H24   1.110601 S    
C207  H92   1.108963 S    
C195  H56   1.108963 S    
N1    O53   1.300873 A    
C147  N3    1.436514 S    
C172  N28   1.436501 S    
C180  H11   1.109589 S    
N2    O56   1.301145 A    
Zn12  O25   1.951223 S    
C37   C83   1.471782 S    
C182  H18   1.110602 S    
C68   C106  1.416208 A    
C38   C84   1.471789 S    
N27   O105  1.300875 A    
N7    O65   1.300874 A    
C41   C95   1.471760 S    
C185  H27   1.110602 S    
N31   O114  1.301136 A    
C42   C96   1.471770 S    
C202  H78   1.110603 S    
C164  N20   1.436517 S    
N24   O99   1.300874 A    
C62   C190  1.518204 S    
C171  N27   1.436517 S    
Zn9   O35   1.951223 S    
C205  H87   1.110601 S    
Zn10  O36   1.951225 S    
C98   C130  1.417142 A    
Zn7   O38   1.951229 S    
C159  N15   1.436520 S    
C69   C111  1.416195 A    
C200  H72   1.110601 S    
C156  N12   1.436517 S    
C69   C197  1.518205 S    
Zn2   O2    1.910271 S    
O44   C42   1.253006 A    
Zn8   O17   1.782950 S    
C178  H6    1.110597 S    
C44   C90   1.471782 S    
Zn5   O1    1.910259 S    
N18   O87   1.300873 A    
O48   C38   1.253010 A    
C181  H15   1.110603 S    
N9    O70   1.301138 A    
C187  H31   1.109588 S    
Zn8   O4    1.910259 S    
C198  H66   1.110601 S    
C183  H21   1.110604 S    
C53   C181  1.518203 S    
C201  H75   1.110601 S    
O29   C41   1.252999 A    
Zn16  O1    1.910259 S    
N7    O66   1.301138 A    
O31   C43   1.253010 A    
C52   C180  1.518205 S    
O10   C26   1.302736 A    
C165  N21   1.436519 S    
C14   C22   1.234099 T    
Zn16  O21   1.951231 S    
O16   C32   1.302737 A    
C127  C133  1.417080 A    
C15   C23   1.234099 T    
C190  H40   1.108963 S    
C125  C135  1.417091 A    
C108  C140  1.417083 A    
C185  H26   1.108965 S    
C12   C20   1.234099 T    
C193  H49   1.109590 S    
C170  N26   1.436518 S    
C114  C140  1.417086 A    
C68   C196  1.518205 S    
C203  H79   1.109584 S    
C79   C85   1.410956 A    
Zn16  O30   1.951205 S    
C102  C134  1.417091 A    
C149  C160  1.405721 A    
C74   C100  1.416196 A    
N31   O113  1.300873 A    
O39   C45   1.252979 A    
C75   C81   1.410953 A    
C65   C193  1.518216 S    
Zn9   O24   1.951208 S    
O27   C39   1.253006 A    
C56   C126  1.416199 A    
C10   C31   1.483074 S    
O51   C33   1.253004 A    
C107  C155  1.417353 A    
C129  C140  1.411970 A    
C49   C81   1.410951 A    
C194  H52   1.108964 S    
C183  H19   1.109586 S    
Zn9   O4    1.910271 S    
C188  H35   1.109587 S    
Zn10  O3    1.910271 S    
C66   C92   1.410952 A    
C179  H7    1.109589 S    
C67   C89   1.410953 A    
C12   C29   1.483074 S    
Zn13  O8    1.782949 S    
C99   C147  1.417355 A    
Zn14  O7    1.782949 S    
O14   C30   1.302738 A    
C192  H46   1.108963 S    
O45   C39   1.253006 A    
C116  C138  1.417093 A    
C199  H67   1.109587 S    
O38   C48   1.253006 A    
C145  C156  1.405723 A    
C71   C199  1.518206 S    
C72   C94   1.410944 A    
C110  C142  1.417092 A    
C50   C82   1.410863 A    
N5    O61   1.300872 A    
C112  C144  1.417079 A    
C76   C82   1.410869 A    
C114  C162  1.417352 A    
C119  C141  1.417083 A    
N21   O94   1.301138 A    
C187  H33   1.110597 S    
C7    C8    1.234099 T    
C117  C143  1.417093 A    
Zn10  O11   1.782944 S    
C104  C152  1.417356 A    
C16   C25   1.483074 S    
C68   C90   1.410940 A    
C62   C94   1.410944 A    
C9    C17   1.234099 T    
N29   O110  1.301141 A    
C162  C171  1.405723 A    
C8    C24   1.458064 S    
C166  N22   1.436519 S    
C196  H59   1.109588 S    
N22   O96   1.301139 A    
C177  H2    1.108964 S    
O52   C34   1.253003 A    
C190  H42   1.110601 S    
N20   O92   1.301140 A    
C123  C171  1.417354 A    
O40   C46   1.253011 A    
N30   O111  1.300875 A    
C193  H51   1.110598 S    
C69   C95   1.410939 A    
O6    C26   1.302738 A    
O33   C45   1.252979 A    
C97   C129  1.417083 A    
N27   O106  1.301141 A    
N26   O104  1.301137 A    
C168  C173  1.405726 A    
C47   C93   1.471787 S    
C203  H81   1.110603 S    
N17   O85   1.300905 A    
C71   C109  1.416197 A    
C58   C90   1.410942 A    
O15   C31   1.302737 A    
O49   C35   1.253012 A    
C126  C136  1.417087 A    
C1    C2    1.234099 T    
C61   C93   1.410948 A    
C45   C91   1.471706 S    
C194  H54   1.110603 S    
C145  N1    1.436519 S    
C65   C107  1.416267 A    
C46   C92   1.471768 S    
C39   C85   1.471770 S    
N8    O68   1.301137 A    
C63   C117  1.416196 A    
C97   C145  1.417355 A    
Zn6   O43   1.951206 S    
C179  H9    1.110600 S    
C124  C130  1.417140 A    
N23   O98   1.301142 A    
C164  C169  1.405722 A    
C115  C137  1.417087 A    
O17   C29   1.302736 A    
O36   C48   1.253004 A    
Zn1   O40   1.951208 S    
C115  C163  1.417356 A    
Zn10  O23   1.951206 S    
C192  H48   1.110602 S    
Zn2   O39   1.951206 S    
O50   C36   1.252979 A    
C207  H93   1.110602 S    
C79   C207  1.518202 S    
C127  C175  1.417354 A    
C176  N32   1.436519 S    
C14   C27   1.483074 S    
C108  C156  1.417355 A    
C130  C139  1.412094 A    
C125  C173  1.417355 A    
N6    O63   1.300872 A    
C146  N2    1.436497 S    
N13   O78   1.301139 A    
Zn8   O46   1.951205 S    
C150  N6    1.436520 S    
C100  C148  1.417355 A    
N14   O80   1.301141 A    
O46   C40   1.252998 A    
C191  H43   1.109590 S    
O20   C32   1.302737 A    
Zn6   O2    1.910263 S    
C104  C136  1.417086 A    
C208  H95   1.109591 S    
C174  N30   1.436520 S    
C151  C158  1.405726 A    
C111  C159  1.417355 A    
Zn3   O49   1.951205 S    
C186  H29   1.109585 S    
C146  C155  1.405702 A    
C109  C157  1.417353 A    
C51   C179  1.518205 S    
C40   C86   1.471758 S    
N10   O72   1.301138 A    
C204  H82   1.108964 S    
O34   C46   1.253012 A    
C99   C131  1.417093 A    
N12   O75   1.300876 A    
N28   O108  1.301142 A    
C76   C204  1.518214 S    
C16   C24   1.234099 T    
Zn15  O22   1.951229 S    
C5    C6    1.234099 T    
C103  C151  1.417353 A    
C184  H23   1.109585 S    
C101  C149  1.417354 A    
C105  C137  1.417083 A    
C77   C205  1.518206 S    
C195  H55   1.109590 S    
C118  C144  1.417076 A    
C206  H89   1.109590 S    
N11   O73   1.300904 A    
C122  C170  1.417355 A    
C105  C153  1.417358 A    
C180  H10   1.108961 S    
C122  C132  1.417085 A    
N3    O57   1.300879 A    
C55   C87   1.410944 A    
Zn6   O48   1.951229 S    
C182  H17   1.109592 S    
C73   C83   1.410941 A    
C2    C18   1.458064 S    
C53   C85   1.410954 A    
C163  C170  1.405726 A    
Zn15  O29   1.951207 S    
O18   C30   1.302736 A    
Zn12  O5    1.782943 S    
C57   C89   1.410950 A    
C202  H77   1.109585 S    
N24   O100  1.301138 A    
C54   C182  1.518203 S    
Zn7   O3    1.910259 S    
N16   O83   1.300871 A    
C74   C84   1.410952 A    
C205  H86   1.108963 S    
O35   C47   1.253005 A    
C148  C153  1.405726 A    
C75   C97   1.416184 A    
C49   C123  1.416184 A    
C50   C124  1.416266 A    
Zn11  O6    1.782943 S    
C200  H71   1.109584 S    
C136  C141  1.411986 A    
C148  N4    1.436522 S    
Zn13  O4    1.910259 S    
C157  N13   1.436515 S    
Zn14  O3    1.910263 S    
C178  H5    1.109590 S    
C134  C143  1.411983 A    
Zn15  O10   1.782950 S    
C13   C21   1.234099 T    
N18   O88   1.301139 A    
C70   C112  1.416180 A    
C181  H14   1.108964 S    
N9    O69   1.300872 A    
C198  H65   1.109592 S    
C80   C86   1.410938 A    
Zn5   O44   1.951204 S    
N25   O102  1.301138 A    
C73   C201  1.518203 S    
C201  H74   1.108967 S    
C187  H32   1.108966 S    
C73   C99   1.416209 A    
O23   C35   1.253011 A    
C123  C129  1.417086 A    
C71   C93   1.410948 A    
C151  N7    1.436518 S    
C191  H45   1.110601 S    
C13   C28   1.483074 S    
O25   C37   1.253002 A    
C59   C187  1.518215 S    
C15   C26   1.483074 S    
C112  C160  1.417350 A    
C131  C138  1.411997 A    
C76   C98   1.416267 A    
C65   C91   1.410867 A    
N19   O89   1.300874 A    
C64   C96   1.410956 A    
N4    O59   1.300873 A    
C52   C122  1.416195 A    
Zn13  O28   1.951204 S    
O22   C34   1.253008 A    
C165  C176  1.405718 A    
Zn14  O27   1.951206 S    
C63   C95   1.410941 A    
C204  H84   1.110598 S    
C60   C188  1.518205 S    
C6    C22   1.458064 S    
C60   C114  1.416186 A    
O21   C33   1.253006 A    
C64   C192  1.518202 S    
C78   C206  1.518204 S    
N1    O54   1.301139 A    
Zn3   O42   1.951225 S    
C147  C154  1.405722 A    
C150  C159  1.405721 A    
C180  H12   1.110602 S    
Zn2   O52   1.951225 S    
N2    O55   1.300903 A    
C199  H69   1.110602 S    
C188  H34   1.108963 S    
C100  C132  1.417085 A    
C34   C88   1.471787 S    
O9    C25   1.302736 A    
O11   C27   1.302737 A    
C63   C191  1.518204 S    
C50   C178  1.518215 S    
C183  H20   1.108965 S    
C43   C89   1.471791 S    
Zn5   O47   1.951231 S    
Zn11  O26   1.951225 S    
C70   C198  1.518204 S    
C49   C177  1.518205 S    
O7    C27   1.302737 A    
C4    C20   1.458064 S    
Zn3   O3    1.910271 S    
C197  H61   1.109591 S    
C103  C135  1.417092 A    
C118  C166  1.417354 A    
C124  C172  1.417349 A    
C35   C81   1.471770 S    
C101  C133  1.417076 A    
Zn4   O13   1.782943 S    
N21   O93   1.300873 A    
Zn5   O16   1.782949 S    
C189  H38   1.108964 S    
Zn6   O15   1.782949 S    
C55   C125  1.416202 A    
C160  N16   1.436521 S    
Zn11  O33   1.951205 S    
C53   C127  1.416180 A    
C167  N23   1.436517 S    
Zn13  O31   1.951231 S    
Zn14  O32   1.951229 S    
N23   O97   1.300871 A    
C77   C103  1.416203 A    
N12   O76   1.301140 A    
C78   C104  1.416198 A    
C57   C115  1.416195 A    
N29   O109  1.300870 A    
C11   C30   1.483074 S    
C58   C116  1.416206 A    
C152  N8    1.436517 S    
O13   C29   1.302738 A    
C196  H58   1.108963 S    
C177  H1    1.109587 S    
C190  H41   1.109591 S    
O30   C42   1.253006 A    
C128  C176  1.417354 A    
C61   C189  1.518207 S    
N32   O116  1.301138 A    
C48   C94   1.471784 S    
N11   O74   1.301145 A    
N30   O112  1.301135 A    
C175  N31   1.436519 S    
C193  H50   1.108965 S    
Zn4   O41   1.951223 S    
C62   C120  1.416204 A    
N3    O58   1.301140 A    
O24   C36   1.252979 A    
C111  C143  1.417089 A    
C109  C141  1.417088 A    
C203  H80   1.108966 S    
O41   C43   1.253007 A    
C162  N18   1.436519 S    
O43   C41   1.252999 A    
N15   O81   1.300866 A    
Zn3   O14   1.782943 S    
C113  C161  1.417350 A    
C80   C102  1.416193 A    
O47   C37   1.253006 A    
O26   C38   1.253007 A    
C194  H53   1.109586 S    
Zn4   O50   1.951207 S    
C197  H63   1.110601 S    
C166  C175  1.405719 A    
C188  H36   1.110603 S    
C154  N10   1.436516 S    
C10   C18   1.234099 T    
C197  H62   1.108961 S    
C80   C208  1.518205 S    
Zn1   O1    1.910271 S    
C54   C86   1.410943 A    
N25   O101  1.300876 A    
C58   C186  1.518207 S    
C192  H47   1.109592 S    
C199  H68   1.108964 S    
C51   C83   1.410940 A    
C52   C84   1.410953 A    
Zn1   O51   1.951223 S    
C189  H39   1.110602 S    
C116  C164  1.417357 A    
N6    O64   1.301137 A    
C64   C118  1.416180 A    
O5    C25   1.302738 A    
Zn15  O2    1.910259 S    
Zn11  O2    1.910271 S    
N13   O77   1.300883 A    
C5    C21   1.458064 S    
N5    O62   1.301136 A    
C167  C174  1.405724 A    
C207  H91   1.109591 S    
C67   C195  1.518205 S    
Zn16  O9    1.782950 S    
Zn9   O12   1.782944 S    
O12   C28   1.302737 A    
Zn1   O20   1.782944 S    
Zn2   O19   1.782944 S    
C208  H94   1.108960 S    
C155  N11   1.436496 S    
C161  C172  1.405702 A    
C161  N17   1.436497 S    
N19   O90   1.301138 A    
C186  H28   1.108964 S    
C98   C146  1.417351 A    
C168  N24   1.436519 S    
O8    C28   1.302737 A    
C200  H70   1.108965 S    
C56   C88   1.410950 A    
C59   C113  1.416265 A    
C7    C23   1.458064 S    
C66   C194  1.518205 S    
C128  C134  1.417091 A    
C59   C91   1.410865 A    
C196  H60   1.110602 S    
C153  N9    1.436516 S    
N22   O95   1.300870 A    
C60   C92   1.410950 A    
C184  H22   1.108966 S    
C177  H3    1.110603 S    
N20   O91   1.300876 A    
C126  C174  1.417354 A    
C56   C184  1.518206 S    
C51   C121  1.416208 A    
C54   C128  1.416197 A    
C55   C183  1.518203 S    
C120  C168  1.417353 A    
Zn7   O45   1.951207 S    
C195  H57   1.110600 S    
C182  H16   1.108963 S    
Zn8   O37   1.951231 S    
Zn12  O1    1.910275 S    
N26   O103  1.300873 A    
C61   C119  1.416202 A    
Zn12  O34   1.951207 S    
N17   O86   1.301142 A    
C185  H25   1.109585 S    
C163  N19   1.436519 S    
C121  C131  1.417089 A    
C202  H76   1.108965 S    
C189  H37   1.109588 S    
C106  C138  1.417089 A    
C206  H90   1.110600 S    
C152  C157  1.405724 A    
N16   O84   1.301136 A    
C205  H85   1.109589 S    
C158  N14   1.436518 S    
C110  C158  1.417354 A    
N8    O67   1.300873 A    
C77   C87   1.410945 A    
C78   C88   1.410948 A    
O28   C40   1.253001 A    
C179  H8    1.108965 S    
N32   O115  1.300871 A    
C70   C96   1.410955 A    
O42   C44   1.253002 A    
C178  H4    1.108965 S    
O32   C44   1.253006 A    
C119  C167  1.417355 A    
C79   C101  1.416180 A    
C102  C150  1.417353 A    
