data_mof_unit_17330.cif
_audit_creation_date              2012-12-10T16:57:04-0500
_audit_creation_method            fapswitch 2.2
_symmetry_space_group_name_H-M    P1
_symmetry_Int_Tables_number       1
_space_group_crystal_system       triclinic
_cell_length_a                    7.790224
_cell_length_b                    8.645699
_cell_length_c                    16.248155
_cell_angle_alpha                 92.856004
_cell_angle_beta                  81.19076
_cell_angle_gamma                 92.911181
_cell_volume                      1079.05909365

loop_
_atom_site_label
_atom_site_type_symbol
_atom_type_description
_atom_site_fract_x
_atom_site_fract_y
_atom_site_fract_z
_atom_type_partial_charge
C1    C     C_R   0.544637 0.794078 0.503415 0.873905
C2    C     C_R   0.410998 0.610040 0.223763 0.358923
C3    C     C_R   0.643916 0.582517 0.862418 0.425149
C4    C     C_R   0.443635 0.661075 0.141970 0.450087
C5    C     C_R   0.545341 0.711615 0.895743 -0.219918
C6    C     C_R   0.616244 0.662563 0.098135 -0.199997
C7    C     C_R   0.406858 0.750908 0.856174 -0.224011
C8    C     C_R   0.734734 0.568370 0.126422 -0.206698
C9    C     C_R   0.374833 0.678426 0.781695 0.343345
C10   C     C_R   0.691396 0.489703 0.199848 0.331606
C11   C     C_2   0.570595 0.803178 0.974427 0.467944
C12   C     C_R   0.454841 0.206561 0.507470 0.864693
C13   C     C_2   0.680981 0.758208 0.024111 0.529536
C14   C     C_3   0.895895 0.439626 0.730365 -0.097917
C15   C     C_3   0.118913 0.579653 0.270482 -0.036308
C16   C     C_3   0.922040 0.914169 0.981066 -0.288396
C17   C     C_3   0.503653 0.056330 0.984738 -0.397592
C18   C     C_3   0.241973 0.591671 0.059197 -0.285601
C19   C     C_3   0.721478 0.388384 0.937422 -0.338936
C20   C     C_3   0.808675 0.039944 0.568230 -0.176000
C21   C     C_3   0.222206 0.048182 0.640870 -0.397394
C22   C     C_2   0.570971 0.956637 0.510685 0.168059
C23   C     C_2   0.431640 0.047025 0.526112 0.229414
C24   C     C_R   0.479692 0.509722 0.655798 0.874135
C25   C     C_R   0.522121 0.499616 0.344041 0.922376
C26   C     C_R   0.483298 0.560636 0.743604 -0.293388
C27   C     C_R   0.537832 0.526375 0.254149 -0.334644
C28   C     C_R   0.618125 0.512690 0.784192 0.356592
H1    H     H_    0.324334 0.844087 0.881273 0.224143
H2    H     H_    0.291969 0.758506 0.688078 0.342316
H3    H     H_    0.065901 0.915384 0.968912 0.223057
H4    H     H_    0.885439 0.991819 0.037098 0.159275
H5    H     H_    0.877086 0.958900 0.925382 0.144689
H6    H     H_    0.541754 0.062213 0.916010 0.152556
H7    H     H_    0.612692 0.098009 0.017985 0.165540
H8    H     H_    0.395626 0.135620 0.003581 0.204218
H9    H     H_    0.176733 0.497635 0.098288 0.137924
H10   H     H_    0.344851 0.540973 0.012285 0.128055
H11   H     H_    0.145739 0.637894 0.024378 0.253131
H12   H     H_    0.861418 0.551859 0.090383 0.218254
H13   H     H_    0.714688 0.294667 0.888796 0.191331
H14   H     H_    0.595170 0.394730 0.979536 0.136753
H15   H     H_    0.820333 0.356446 0.975204 0.188680
H16   H     H_    0.820192 0.928834 0.598061 0.173169
H17   H     H_    0.728396 0.119354 0.612720 0.140200
H18   H     H_    0.940156 0.096198 0.554319 0.240544
H19   H     H_    0.186847 0.171178 0.642489 0.181026
H20   H     H_    0.328454 0.036662 0.678682 0.159368
H21   H     H_    0.106078 0.981472 0.670955 0.207525
H22   H     H_    0.947356 0.288198 0.404240 0.360316
H23   H     H_    0.967142 0.402061 0.779502 0.181332
H24   H     H_    0.053372 0.713870 0.594085 0.353894
H25   H     H_    0.918468 0.566912 0.723202 0.192789
H26   H     H_    0.952907 0.380937 0.670945 0.155404
H27   H     H_    0.140478 0.453258 0.259589 0.148105
H28   H     H_    0.053905 0.624660 0.221100 0.192972
H29   H     H_    0.027744 0.594440 0.329426 0.203225
H30   H     H_    0.741210 0.309166 0.256498 0.348040
N1    N     N_2   0.953500 0.457650 0.478520 0.162780
N2    N     N_2   0.046500 0.542350 0.521480 0.176005
O1    O     O_R   0.388470 0.738640 0.505270 -0.587471
O2    O     O_3   0.272476 0.668857 0.278079 -0.578241
O3    O     O_3   0.806102 0.384556 0.218013 -0.791415
O4    O     O_3   0.242439 0.733267 0.745786 -0.775896
O5    O     O_3   0.858511 0.760471 0.994734 -0.597082
O6    O     O_3   0.445098 0.906074 0.007911 -0.566240
O7    O     O_3   0.306751 0.714158 0.108423 -0.534560
O8    O     O_3   0.774249 0.531952 0.902089 -0.557818
O9    O     O_3   0.741422 0.014606 0.492575 -0.582374
O10   O     O_3   0.266506 0.988879 0.558024 -0.588870
O11   O     O_3   0.037919 0.345526 0.431637 -0.659034
O12   O     O_R   0.611530 0.261360 0.494730 -0.610097
O13   O     O_3   0.962503 0.655644 0.567388 -0.674373
O14   O     O_R   0.679650 0.711510 0.491500 -0.549941
O15   O     O_R   0.320350 0.288490 0.508500 -0.566264
O16   O     O_R   0.337210 0.515200 0.623500 -0.652970
O17   O     O_R   0.662790 0.484800 0.376500 -0.630164
O18   O     O_R   0.628380 0.488060 0.609730 -0.558439
O19   O     O_R   0.371620 0.511940 0.390270 -0.530615
O20   O     O_3   0.718251 0.391488 0.747943 -0.647796
Zn1   Zn    Zn3+2 0.305580 0.518120 0.509190 1.051822
Zn2   Zn    Zn3+2 0.694420 0.481880 0.490810 1.042261

loop_
_geom_bond_atom_site_label_1
_geom_bond_atom_site_label_2
_ccdc_geom_bond_type
C10   C27   A    
C7    H1    S    
H2    O4    S    
C9    O4    S    
C10   O3    S    
N1    Zn2   S    
C18   H11   S    
C21   H21   S    
C13   O5    S    
C16   H3    S    
C12   C23   S    
C17   O6    S    
C25   O17   A    
C1    O14   A    
C3    C28   A    
C18   H9    S    
C24   C26   S    
C5    C11   S    
N2    O13   S    
C3    O8    S    
C2    C27   A    
C17   H8    S    
C14   O20   S    
C22   O9    S    
C20   H17   S    
C11   O6    S    
C21   H20   S    
C12   O12   A    
N1    N2    D    
C15   H29   S    
C23   O10   S    
O14   Zn2   S    
C20   H16   S    
C19   H15   S    
C9    C26   A    
C4    C6    A    
H24   O13   S    
O19   Zn1   S    
O15   Zn1   S    
C6    C8    A    
C18   O7    S    
C15   H27   S    
C2    C4    A    
H22   O11   S    
C16   H5    S    
N2    Zn1   S    
O18   Zn2   S    
C14   H23   S    
C19   O8    S    
C24   O18   A    
C14   H26   S    
C20   O9    S    
C16   H4    S    
C17   H6    S    
C5    C7    A    
H30   O3    S    
C7    C9    A    
C25   O19   A    
C24   O16   A    
C3    C5    A    
C1    O1    A    
O16   Zn1   S    
C4    O7    S    
C19   H14   S    
C25   C27   S    
C17   H7    S    
C26   C28   A    
C21   O10   S    
C15   H28   S    
C18   H10   S    
O1    Zn1   S    
C6    C13   S    
C11   C13   D    
O17   Zn2   S    
C15   O2    S    
C28   O20   S    
C20   H18   S    
C2    O2    S    
C1    C22   S    
C14   H25   S    
C8    C10   A    
C12   O15   A    
C22   C23   D    
C16   O5    S    
C8    H12   S    
O12   Zn2   S    
C19   H13   S    
N1    O11   S    
C21   H19   S    
