data_mof_unit_57571.cif
_audit_creation_date              2012-12-11T16:07:34-0500
_audit_creation_method            fapswitch 2.2
_symmetry_space_group_name_H-M    P1
_symmetry_Int_Tables_number       1
_space_group_crystal_system       triclinic
_cell_length_a                    6.946928
_cell_length_b                    14.58222
_cell_length_c                    15.742683
_cell_angle_alpha                 90.215138
_cell_angle_beta                  89.951395
_cell_angle_gamma                 89.538434
_cell_volume                      1594.69588217

loop_
_atom_site_label
_atom_site_type_symbol
_atom_type_description
_atom_site_fract_x
_atom_site_fract_y
_atom_site_fract_z
_atom_type_partial_charge
O1    O     O_R   0.494320 0.415010 0.412140 -0.542444
O2    O     O_R   0.824010 0.404260 0.587250 -0.543171
O3    O     O_R   0.994320 0.584990 0.587860 -0.532925
C1    C     C_R   0.654981 0.381762 0.616346 0.653493
O4    O     O_R   0.824040 0.403870 0.412760 -0.544622
O5    O     O_R   0.994350 0.584590 0.412130 -0.540964
C2    C     C_R   0.655433 0.383189 0.382253 0.647976
O6    O     O_R   0.494300 0.415410 0.587870 -0.541436
O7    O     O_3   0.660800 0.559290 0.500000 -0.361059
V1    V     V_3+5 0.935650 0.489000 0.500000 1.378954
O8    O     O_R   0.324060 0.595740 0.412750 -0.543897
C3    C     C_R   0.154378 0.615747 0.381974 0.670570
O9    O     O_R   0.324040 0.596130 0.587240 -0.539417
C4    C     C_R   0.154260 0.618095 0.616351 0.702904
V2    V     V_3+5 0.435660 0.511000 0.500000 1.386588
O10   O     O_3   0.160640 0.440710 0.500000 -0.373242
C5    C     C_3   0.010231 0.681133 0.765741 -0.169754
C6    C     C_3   0.182328 0.711228 0.821942 -0.197085
H1    H     H_    0.225270 0.679592 0.883167 0.111012
H2    H     H_    0.909382 0.624479 0.779765 0.112241
C7    C     C_3   0.122785 0.812432 0.809951 -0.048834
C8    C     C_3   0.953584 0.783008 0.754162 0.312381
C9    C     C_3   0.080439 0.789160 0.674180 -0.188862
C10   C     C_3   0.250504 0.819717 0.730365 -0.107272
C11   C     C_3   0.311890 0.717710 0.741901 -0.046354
C12   C     C_3   0.140720 0.688228 0.686574 -0.073246
H3    H     H_    0.037050 0.820718 0.612967 0.126137
H4    H     H_    0.337309 0.880435 0.713743 0.161711
H5    H     H_    0.458910 0.687994 0.736390 0.151556
C13   C     C_3   0.232467 0.846306 0.264163 0.400708
H6    H     H_    0.156457 0.910597 0.284444 -0.009479
C14   C     C_3   0.225313 0.777015 0.338925 -0.338702
H7    H     H_    0.136681 0.806223 0.391576 0.083609
H8    H     H_    0.372107 0.765091 0.364919 0.173245
H9    H     H_    0.373356 0.735610 0.128527 0.169490
H10   H     H_    0.408538 0.642772 0.245709 0.151512
C15   C     C_3   0.229333 0.719036 0.155022 -0.292688
C16   C     C_3   0.918447 0.778556 0.214378 -0.387583
C17   C     C_3   0.123136 0.807719 0.185157 0.030906
H11   H     H_    0.832855 0.753352 0.159430 0.173199
H12   H     H_    0.842385 0.839017 0.241197 0.165263
C18   C     C_3   0.140654 0.684582 0.309978 0.056947
C19   C     C_3   0.253008 0.650506 0.230122 -0.326125
C20   C     C_3   0.928654 0.702813 0.282692 -0.321543
H13   H     H_    0.840260 0.724282 0.338415 0.154501
H14   H     H_    0.864901 0.638618 0.257056 0.143950
H15   H     H_    0.146094 0.686111 0.102983 0.113920
H16   H     H_    0.200060 0.581839 0.210414 0.111324
C21   C     C_3   0.430009 0.293293 0.713235 -0.303197
H17   H     H_    0.360803 0.358463 0.734813 0.130582
H18   H     H_    0.347165 0.268190 0.657404 0.137220
C22   C     C_3   0.417445 0.221867 0.785252 -0.320766
H19   H     H_    0.328917 0.162989 0.763470 0.136510
H20   H     H_    0.342662 0.253259 0.840901 0.132232
H21   H     H_    0.689790 0.410803 0.789785 0.117785
H22   H     H_    0.670898 0.304533 0.896987 0.114729
C23   C     C_3   0.751986 0.344351 0.767580 -0.320800
C24   C     C_3   0.732812 0.217959 0.658994 -0.335423
C25   C     C_3   0.643060 0.311043 0.687225 0.118507
H23   H     H_    0.886351 0.227485 0.641086 0.139475
H24   H     H_    0.656626 0.191912 0.601733 0.121312
C26   C     C_3   0.621237 0.187656 0.811597 0.104544
C27   C     C_3   0.739187 0.272488 0.840082 -0.325383
C28   C     C_3   0.719884 0.145995 0.731433 -0.301044
H25   H     H_    0.637382 0.085528 0.708845 0.151335
H26   H     H_    0.867375 0.121339 0.747562 0.143902
H27   H     H_    0.905930 0.356534 0.751925 0.135053
H28   H     H_    0.887196 0.250822 0.858682 0.138248
C29   C     C_3   0.433160 0.282016 0.296142 -0.303953
H29   H     H_    0.376604 0.250551 0.355371 0.132547
H30   H     H_    0.339145 0.341987 0.281105 0.133575
C30   C     C_3   0.420362 0.211951 0.222820 -0.318537
H31   H     H_    0.323931 0.239853 0.172543 0.136250
H32   H     H_    0.352569 0.148537 0.246640 0.119844
H33   H     H_    0.718095 0.196716 0.390891 0.118325
H34   H     H_    0.705414 0.093160 0.284186 0.116929
C31   C     C_3   0.768581 0.228365 0.330674 -0.321011
C32   C     C_3   0.717899 0.354746 0.225134 -0.326412
C33   C     C_3   0.644266 0.313876 0.310207 0.122135
H35   H     H_    0.869683 0.377302 0.232401 0.127605
H36   H     H_    0.630650 0.416416 0.208461 0.116093
C34   C     C_3   0.622623 0.190816 0.184863 0.126299
C35   C     C_3   0.757750 0.157607 0.257550 -0.326886
C36   C     C_3   0.705234 0.282721 0.151755 -0.318068
H37   H     H_    0.612261 0.310027 0.100023 0.114156
H38   H     H_    0.851062 0.271014 0.124276 0.131866
H39   H     H_    0.921415 0.248284 0.340263 0.142693
H40   H     H_    0.905209 0.144139 0.232479 0.138657
O11   O     O_R   0.771990 0.083520 0.910980 -0.536875
O12   O     O_R   0.442180 0.095020 0.086060 -0.547359
O13   O     O_R   0.271950 0.914280 0.086680 -0.520424
C37   C     C_R   0.611126 0.118769 0.114423 0.623948
O14   O     O_R   0.442270 0.094630 0.911580 -0.546415
O15   O     O_R   0.272040 0.913890 0.910940 -0.527215
C38   C     C_R   0.610871 0.117017 0.882446 0.678158
O16   O     O_R   0.771900 0.083910 0.086710 -0.545438
O17   O     O_3   0.605520 0.939610 0.998840 -0.344211
V3    V     V_3+5 0.330640 0.009880 0.998810 1.423764
O18   O     O_R   0.942330 0.902710 0.911540 -0.513719
C39   C     C_R   0.111613 0.881666 0.881496 0.725894
O19   O     O_R   0.942240 0.903100 0.086030 -0.547839
C40   C     C_R   0.111731 0.879564 0.114490 0.646149
V4    V     V_3+5 0.830640 0.987830 0.998780 1.445905
O20   O     O_3   0.105630 0.058150 0.998800 -0.382747
Br1   Br    Br    0.708241 0.843430 0.759594 -0.664377
O21   O     O_3   0.428111 0.859747 0.241828 -0.557672
C41   C     C_3   0.501801 0.941591 0.276153 0.115637
H41   H     H_    0.400996 0.000319 0.268985 0.088200
H42   H     H_    0.630782 0.958208 0.238103 0.127205
C42   C     C_3   0.561933 0.930219 0.369016 -0.820318
H43   H     H_    0.643205 0.991007 0.390898 0.189400
H44   H     H_    0.433100 0.923753 0.410190 0.214744
H45   H     H_    0.655236 0.868638 0.376329 0.225285

loop_
_geom_bond_atom_site_label_1
_geom_bond_atom_site_label_2
_ccdc_geom_bond_type
O18   V4    S    
C15   C19   S    
O19   C40   A    
C6    C7    S    
C1    O6    A    
O17   V3    S    
C22   H19   S    
C5    C12   S    
H9    C15   S    
C36   H38   S    
O5    C3    A    
C13   H6    S    
C32   H35   S    
C23   C25   S    
O21   C41   S    
O15   V3    S    
C24   H23   S    
V2    O10   S    
C37   O16   A    
C5    H2    S    
C34   C37   S    
C6    H1    S    
C9    C12   S    
C29   H30   S    
C42   H43   S    
C26   C28   S    
O9    C4    A    
O8    V2    S    
C20   H14   S    
C21   H18   S    
C3    C18   S    
C41   H41   S    
O1    V2    S    
C9    H3    S    
C15   H15   S    
C19   H16   S    
C24   H24   S    
C35   H40   S    
O19   V4    S    
C16   H11   S    
C7    C8    S    
O11   V4    S    
C11   H5    S    
C41   H42   S    
C6    C11   S    
C18   C20   S    
C23   H27   S    
H34   C35   S    
C22   H20   S    
C23   C27   S    
C31   C33   S    
C24   C28   S    
C10   C11   S    
C16   H12   S    
C30   H32   S    
O4    C2    A    
C7    C39   S    
C32   C33   S    
C11   C12   S    
C4    C12   S    
C28   H26   S    
O11   C38   A    
C29   C30   S    
O2    C1    A    
C16   C20   S    
C26   C27   S    
O12   C37   A    
O18   C39   A    
O15   C39   A    
C9    C10   S    
C21   C22   S    
C5    C6    S    
H22   C27   S    
C36   H37   S    
H33   C31   S    
C42   H45   S    
O17   V4    S    
O3    C4    A    
C21   H17   S    
O6    V2    S    
C34   C36   S    
H21   C23   S    
C30   C34   S    
C41   C42   S    
C29   C33   S    
C18   C19   S    
C7    C10   S    
O13   C40   A    
O2    V1    S    
C20   H13   S    
C17   C40   S    
C2    C33   S    
O7    V1    S    
C27   H28   S    
C14   C18   S    
O1    C2    A    
C24   C25   S    
C10   H4    S    
C30   H31   S    
O5    V1    S    
O8    C3    A    
C8    Br1   S    
C5    C8    S    
C21   C25   S    
C14   H7    S    
O9    V2    S    
O7    V2    S    
O4    V1    S    
C15   C17   S    
O3    V1    S    
V1    O10   S    
C28   H25   S    
C13   C14   S    
C32   H36   S    
C16   C17   S    
V3    O20   S    
C1    C25   S    
C13   C17   S    
O13   V3    S    
C29   H29   S    
C42   H44   S    
C32   C36   S    
C31   H39   S    
O14   C38   A    
C34   C35   S    
O16   V4    S    
V4    O20   S    
C31   C35   S    
C8    C9    S    
H10   C19   S    
C22   C26   S    
C26   C38   S    
O14   V3    S    
O12   V3    S    
C13   O21   S    
C14   H8    S    
