data_mof_unit_38736.cif
_audit_creation_date              2012-12-11T14:19:21-0500
_audit_creation_method            fapswitch 2.2
_symmetry_space_group_name_H-M    P1
_symmetry_Int_Tables_number       1
_space_group_crystal_system       triclinic
_cell_length_a                    19.405967
_cell_length_b                    7.244273
_cell_length_c                    17.726336
_cell_angle_alpha                 90.001103
_cell_angle_beta                  107.716477
_cell_angle_gamma                 89.999144
_cell_volume                      2373.8200911

loop_
_atom_site_label
_atom_site_type_symbol
_atom_type_description
_atom_site_fract_x
_atom_site_fract_y
_atom_site_fract_z
_atom_type_partial_charge
O1    O     O_R   0.414820 0.494320 0.416790 -0.540375
O2    O     O_R   0.585180 0.994320 0.583210 -0.540376
O3    O     O_R   0.560270 0.819500 0.430140 -0.542716
O4    O     O_R   0.439730 0.319500 0.569860 -0.542720
C1    C     C_R   0.581367 0.655528 0.414978 0.711490
C2    C     C_R   0.418634 0.155532 0.585023 0.711488
O5    O     O_R   0.413840 0.823740 0.407440 -0.537992
O6    O     O_R   0.586160 0.323740 0.592560 -0.537991
O7    O     O_R   0.437710 0.998590 0.560350 -0.539653
O8    O     O_R   0.562290 0.498590 0.439650 -0.539650
C3    C     C_R   0.387590 0.654925 0.385248 0.734817
C4    C     C_R   0.612410 0.154924 0.614752 0.734822
O9    O     O_3   0.508000 0.662290 0.550200 -0.380254
O10   O     O_3   0.492000 0.162290 0.449800 -0.380251
V1    V     V_3+5 0.498520 0.935380 0.490690 1.410897
V2    V     V_3+5 0.501480 0.435380 0.509310 1.410896
C5    C     C_2   0.785166 0.271772 0.788679 -0.107864
C6    C     C_2   0.214833 0.771771 0.211320 -0.107868
C7    C     C_2   0.820377 0.113481 0.817134 -0.285149
C8    C     C_2   0.179623 0.613480 0.182866 -0.285154
H1    H     H_    0.800235 0.981871 0.790544 0.128037
H2    H     H_    0.199766 0.481870 0.209457 0.128039
C9    C     C_2   0.717306 0.284586 0.720594 -0.125210
C10   C     C_2   0.282693 0.784587 0.279405 -0.125210
C11   C     C_2   0.679308 0.138462 0.682600 -0.294368
C12   C     C_2   0.320692 0.638463 0.317400 -0.294369
H3    H     H_    0.697990 0.422853 0.701727 0.139434
H4    H     H_    0.302008 0.922853 0.298272 0.139434
H5    H     H_    0.697159 0.999351 0.700861 0.133206
H6    H     H_    0.302842 0.499352 0.299139 0.133205
C13   C     C_R   0.321687 0.296119 0.632883 -0.197741
C14   C     C_R   0.678333 0.796086 0.367147 -0.197728
C15   C     C_R   0.368908 0.148274 0.634020 -0.078614
C16   C     C_R   0.631096 0.648261 0.365987 -0.078602
C17   C     C_R   0.368023 0.994243 0.681834 -0.198443
C18   C     C_R   0.631969 0.494248 0.318154 -0.198434
C19   C     C_R   0.321562 0.988878 0.729110 0.080322
C20   C     C_R   0.678437 0.488881 0.270886 0.080356
C21   C     C_R   0.273592 0.136456 0.726878 0.085665
C22   C     C_R   0.726416 0.636447 0.273132 0.085694
C23   C     C_R   0.273425 0.289835 0.677933 0.090067
C24   C     C_R   0.726590 0.789810 0.322090 0.090023
C25   C     C_R   0.323713 0.839492 0.779666 -0.216527
C26   C     C_R   0.676282 0.339510 0.220320 -0.216490
C27   C     C_R   0.279684 0.834356 0.829497 -0.011492
C28   C     C_R   0.720322 0.334367 0.170501 -0.011572
C29   C     C_R   0.228318 0.978158 0.824618 0.061968
C30   C     C_R   0.771691 0.478164 0.175388 0.061885
C31   C     C_R   0.225963 0.130713 0.773413 0.065982
C32   C     C_R   0.774043 0.630718 0.226594 0.066013
C33   C     C_R   0.176139 0.277653 0.768663 0.055175
C34   C     C_R   0.823858 0.777677 0.231337 0.055165
C35   C     C_R   0.173817 0.427066 0.715771 -0.011730
C36   C     C_R   0.826183 0.927086 0.284238 -0.011808
C37   C     C_R   0.224129 0.433383 0.673203 -0.198442
C38   C     C_R   0.775882 0.933365 0.326823 -0.198435
C39   C     C_R   0.177886 0.971625 0.867428 -0.157805
C40   C     C_R   0.822126 0.471625 0.132583 -0.157875
C41   C     C_R   0.130845 0.119422 0.866162 -0.097451
C42   C     C_R   0.869154 0.619434 0.133838 -0.097479
C43   C     C_R   0.131675 0.273148 0.818485 -0.168396
C44   C     C_R   0.868308 0.773184 0.181499 -0.168403
H7    H     H_    0.404683 0.880226 0.683585 0.129406
H8    H     H_    0.595295 0.380250 0.316384 0.129396
H9    H     H_    0.362116 0.728991 0.782376 0.159293
H10   H     H_    0.637868 0.229024 0.217596 0.159295
H11   H     H_    0.174554 0.852063 0.902471 0.159526
H12   H     H_    0.825467 0.352053 0.097549 0.159558
H13   H     H_    0.097032 0.388320 0.820695 0.160787
H14   H     H_    0.902926 0.888380 0.179261 0.160893
H15   H     H_    0.223155 0.548443 0.633719 0.151831
H16   H     H_    0.776857 0.048408 0.366319 0.151912
O11   O     O_R   0.937810 0.773680 0.060480 -0.537116
O12   O     O_R   0.062190 0.273680 0.939520 -0.537119
O13   O     O_R   0.086190 0.439740 0.092580 -0.542390
O14   O     O_R   0.913810 0.939740 0.907420 -0.542390
C45   C     C_R   0.112491 0.608311 0.114740 0.741859
C46   C     C_R   0.887509 0.108312 0.885260 0.741866
O15   O     O_R   0.939760 0.444210 0.069890 -0.542400
O16   O     O_R   0.060240 0.944210 0.930110 -0.542400
O17   O     O_R   0.914790 0.269640 0.916760 -0.536607
O18   O     O_R   0.085210 0.769640 0.083240 -0.536605
C47   C     C_R   0.919012 0.612380 0.084792 0.701825
C48   C     C_R   0.080988 0.112376 0.915208 0.701809
O19   O     O_3   0.992050 0.601530 0.949880 -0.379687
O20   O     O_3   0.007950 0.101530 0.050120 -0.379678
V3    V     V_3+5 0.001480 0.328340 0.009300 1.436354
V4    V     V_3+5 0.998520 0.828340 0.990700 1.436360
H17   H     H_    0.807037 0.401966 0.816006 0.141533
H18   H     H_    0.192961 0.901964 0.183992 0.141535
C49   C     C_2   0.117817 0.574478 0.699858 0.740887
O21   O     O_2   0.133389 0.732283 0.686684 -0.558102
O22   O     O_R   0.046317 0.531586 0.694929 -0.665699
H19   H     H_    0.013421 0.643522 0.682802 0.302104
C50   C     C_2   0.882164 0.074541 0.300147 0.740930
O23   O     O_2   0.866597 0.232265 0.313455 -0.558084
O24   O     O_R   0.953640 0.031790 0.304934 -0.665749
H20   H     H_    0.986525 0.143761 0.317093 0.302087
H21   H     H_    0.321359 0.414709 0.595442 0.124162
H22   H     H_    0.678670 0.914658 0.404605 0.124156
C51   C     C_2   0.292092 0.680007 0.887560 0.736369
O25   O     O_2   0.287759 0.705473 0.954147 -0.566153
O26   O     O_R   0.313526 0.507236 0.867511 -0.666874
H23   H     H_    0.321003 0.413575 0.911778 0.302264
C52   C     C_2   0.707915 0.180029 0.112432 0.736360
O27   O     O_2   0.712272 0.205500 0.045855 -0.566157
O28   O     O_R   0.686453 0.007265 0.132457 -0.666852
H24   H     H_    0.678962 0.913621 0.088172 0.302263

loop_
_geom_bond_atom_site_label_1
_geom_bond_atom_site_label_2
_ccdc_geom_bond_type
C20   C22   A    
O4    V2    S    
O22   H19   S    
C26   H10   S    
C50   O23   D    
O1    C3    A    
O16   C48   A    
O2    C4    A    
C2    O7    A    
O15   V3    S    
O24   H20   S    
C21   C23   A    
O5    C3    A    
C52   O28   S    
C5    C9    S    
C8    C45   S    
C6    C10   S    
C7    H1    S    
C10   C12   D    
C42   C47   S    
C22   C32   A    
C39   C41   A    
C49   O22   S    
C40   C42   A    
C28   C52   S    
C44   H14   S    
C42   C44   A    
O6    V2    S    
C27   C29   A    
C23   C37   A    
C24   C38   A    
C26   C28   A    
C38   H16   S    
C33   C43   A    
C35   C49   S    
C32   C34   A    
O28   H24   S    
C13   C15   A    
C13   H21   S    
O12   V3    S    
O14   V4    S    
C16   C18   A    
O6    C4    A    
C30   C32   A    
C51   O26   S    
C39   H11   S    
C34   C36   A    
C28   C30   A    
C35   C37   A    
C11   H5    S    
C36   C38   A    
C41   C43   A    
C6    H18   S    
C51   O25   D    
C5    H17   S    
C41   C48   S    
C29   C31   A    
O12   C48   A    
C49   O21   D    
O20   V3    S    
C5    C7    D    
C3    C12   S    
C31   C33   A    
C14   H22   S    
C33   C35   A    
C14   C16   A    
C19   C25   A    
C7    C46   S    
O11   V4    S    
C20   C26   A    
C29   C39   A    
C25   C27   A    
C25   H9    S    
C1    C16   S    
O1    V2    S    
O2    V1    S    
O13   C45   A    
C36   C50   S    
O17   V3    S    
C27   C51   S    
O13   V3    S    
C21   C31   A    
C8    H2    S    
C12   H6    S    
C9    H3    S    
O4    C2    A    
O3    V1    S    
O19   V4    S    
C40   H12   S    
C13   C23   A    
C17   C19   A    
C10   H4    S    
O14   C46   A    
C22   C24   A    
O3    C1    A    
C17   H7    S    
C50   O24   S    
C30   C40   A    
C52   O27   D    
C2    C15   S    
C4    C11   S    
C43   H13   S    
C18   C20   A    
O7    V1    S    
C1    O8    A    
C19   C21   A    
C34   C44   A    
O15   C47   A    
C46   O17   A    
C45   O18   A    
O18   V4    S    
O5    V1    S    
C15   C17   A    
C6    C8    D    
C9    C11   D    
O16   V4    S    
O9    V2    S    
O26   H23   S    
C14   C24   A    
O10   V1    S    
O8    V2    S    
C18   H8    S    
O11   C47   A    
C37   H15   S    
