data_mof_unit_62858.cif
_audit_creation_date              2012-12-10T18:17:37-0500
_audit_creation_method            fapswitch 2.2
_symmetry_space_group_name_H-M    P1
_symmetry_Int_Tables_number       1
_space_group_crystal_system       triclinic
_cell_length_a                    29.175051
_cell_length_b                    29.180924
_cell_length_c                    47.195938
_cell_angle_alpha                 89.998036
_cell_angle_beta                  89.997828
_cell_angle_gamma                 89.956334
_cell_volume                      40180.4835227

loop_
_atom_site_label
_atom_site_type_symbol
_atom_type_description
_atom_site_fract_x
_atom_site_fract_y
_atom_site_fract_z
_atom_type_partial_charge
C1    C     C_R   0.086727 0.499988 0.999994 0.899441
C2    C     C_R   0.499984 0.086732 1.000000 0.890599
C3    C     C_R   0.913273 0.500012 0.999994 0.899432
C4    C     C_R   0.500016 0.913268 1.000000 0.890603
C5    C     C_R   0.586729 0.999984 0.500000 0.923834
C6    C     C_R   0.999987 0.586734 0.499973 0.917049
C7    C     C_R   0.413271 0.000016 0.500000 0.923833
C8    C     C_R   0.000013 0.413266 0.499973 0.917055
C9    C     C_R   0.000000 0.499997 0.086768 -0.227188
C10   C     C_R   0.499996 0.000001 0.086772 -0.227839
C11   C     C_R   1.000000 0.500003 0.913412 -0.217882
C12   C     C_R   0.500003 1.000000 0.913229 -0.227798
C13   C     C_R   0.500002 0.999997 0.586930 -0.200695
C14   C     C_R   0.999997 0.500000 0.587351 -0.215991
C15   C     C_R   0.499999 0.000003 0.413072 -0.200580
C16   C     C_R   0.000003 0.499998 0.413068 -0.201143
C17   C     C_R   0.000002 0.499994 0.146031 0.202283
C18   C     C_R   0.499990 0.000004 0.146035 0.202306
C19   C     C_R   0.000000 0.500008 0.854278 0.213513
C20   C     C_R   0.500007 0.999998 0.853967 0.202276
C21   C     C_R   0.500006 0.999996 0.646154 0.234842
C22   C     C_R   0.999992 0.499997 0.646731 0.235936
C23   C     C_R   0.499996 0.000008 0.353849 0.234842
C24   C     C_R   0.000004 0.499994 0.353844 0.234854
C25   C     C_1   0.137370 0.499971 0.999966 -0.229104
C26   C     C_1   0.499957 0.137378 0.000000 -0.229642
C27   C     C_1   0.862630 0.500029 0.999965 -0.229095
C28   C     C_1   0.500043 0.862622 0.999999 -0.229644
C29   C     C_1   0.637379 0.999957 0.500000 -0.222644
C30   C     C_1   0.999968 0.637386 0.499957 -0.222160
C31   C     C_1   0.362621 0.000044 0.499999 -0.222642
C32   C     C_1   0.000032 0.362614 0.499956 -0.222161
C33   C     C_1   0.179562 0.499969 0.999944 -0.000501
C34   C     C_1   0.499951 0.179570 0.000000 0.004865
C35   C     C_1   0.820438 0.500031 0.999942 -0.000503
C36   C     C_1   0.500049 0.820430 0.999999 0.004864
C37   C     C_1   0.679573 0.999951 0.500000 -0.002464
C38   C     C_1   0.999970 0.679579 0.499951 -0.000811
C39   C     C_1   0.320427 0.000049 0.499999 -0.002464
C40   C     C_1   0.000030 0.320421 0.499949 -0.000812
C41   C     C_1   0.229372 0.499973 0.999938 0.005610
C42   C     C_1   0.499956 0.229380 0.000001 0.006138
C43   C     C_1   0.770628 0.500027 0.999935 0.005608
C44   C     C_1   0.500044 0.770619 0.999999 0.006138
C45   C     C_1   0.729383 0.999956 0.500001 0.004070
C46   C     C_1   0.999977 0.729389 0.499956 0.004831
C47   C     C_1   0.270616 0.000044 0.499998 0.004070
C48   C     C_1   0.000022 0.270611 0.499954 0.004831
C49   C     C_1   0.271570 0.499979 0.999949 0.005047
C50   C     C_1   0.499965 0.271576 0.000001 0.004994
C51   C     C_1   0.728429 0.500021 0.999946 0.005047
C52   C     C_1   0.500035 0.728424 0.999998 0.004994
C53   C     C_1   0.771581 0.999965 0.500001 0.003771
C54   C     C_1   0.999984 0.771584 0.499968 0.004299
C55   C     C_1   0.228419 0.000035 0.499998 0.003771
C56   C     C_1   0.000016 0.228416 0.499965 0.004298
C57   C     C_1   0.321386 0.499987 0.999973 0.002796
C58   C     C_1   0.499978 0.321390 0.000001 0.003001
C59   C     C_1   0.678614 0.500013 0.999969 0.002796
C60   C     C_1   0.500022 0.678609 0.999998 0.003002
C61   C     C_1   0.821393 0.999978 0.500001 0.001874
C62   C     C_1   0.999991 0.821396 0.499984 0.002257
C63   C     C_1   0.178607 0.000022 0.499998 0.001874
C64   C     C_1   0.000009 0.178604 0.499981 0.002257
C65   C     C_1   0.363587 0.499994 0.999991 -0.203497
C66   C     C_1   0.499989 0.363588 0.000001 -0.203465
C67   C     C_1   0.636413 0.500006 0.999988 -0.203497
C68   C     C_1   0.500011 0.636412 0.999999 -0.203465
C69   C     C_1   0.863592 0.999989 0.500001 -0.204126
C70   C     C_1   0.999996 0.863592 0.499995 -0.203968
C71   C     C_1   0.136408 0.000011 0.499999 -0.204126
C72   C     C_1   0.000003 0.136408 0.499993 -0.203968
C73   C     C_R   1.000000 0.499999 0.055900 0.945840
C74   C     C_R   0.499999 1.000000 0.055902 0.947338
C75   C     C_R   0.999999 0.500001 0.944167 0.943960
C76   C     C_R   0.500001 0.000000 0.944098 0.947398
C77   C     C_R   0.499999 0.999999 0.555955 1.013397
C78   C     C_R   0.999999 0.500000 0.556113 0.986022
C79   C     C_R   0.500000 0.000001 0.444046 1.013576
C80   C     C_R   0.000001 0.500000 0.444043 1.014248
C81   C     C_R   0.500000 0.414253 0.000000 0.880792
C82   C     C_R   0.585747 0.499999 0.999998 0.880909
C83   C     C_R   0.500000 0.585747 1.000000 0.880792
C84   C     C_R   0.414253 0.500001 0.999999 0.880909
C85   C     C_R   0.000001 0.914254 0.500000 0.880791
C86   C     C_R   0.085745 1.000000 0.500000 0.880921
C87   C     C_R   0.999998 0.085746 0.499999 0.880790
C88   C     C_R   0.914255 0.000000 0.500000 0.880921
C89   C     C_R   0.028446 0.470688 0.309375 0.488798
C90   C     C_R   0.529219 0.028490 0.309378 0.488800
C91   C     C_R   0.971559 0.529299 0.309376 0.488799
C92   C     C_R   0.470766 0.971530 0.309382 0.488797
C93   C     C_R   0.012343 0.538882 0.691164 0.488712
C94   C     C_R   0.529313 0.971553 0.690623 0.488795
C95   C     C_R   0.987640 0.461118 0.691169 0.488710
C96   C     C_R   0.470702 0.028442 0.690622 0.488798
C97   C     C_R   0.533073 0.976025 0.809525 0.487428
C98   C     C_R   0.004504 0.540558 0.809876 0.493119
C99   C     C_R   0.466941 0.023971 0.809525 0.487430
C100  C     C_R   0.995497 0.459454 0.809879 0.493114
C101  C     C_R   0.532995 0.024010 0.190475 0.487448
C102  C     C_R   0.023968 0.466926 0.190473 0.487442
C103  C     C_R   0.466982 0.976003 0.190479 0.487447
C104  C     C_R   0.976036 0.533062 0.190473 0.487443
C105  C     C_R   0.974478 0.533498 0.279746 -0.091841
C106  C     C_R   0.466554 0.974444 0.279753 -0.091836
C107  C     C_R   0.025527 0.466489 0.279746 -0.091844
C108  C     C_R   0.533428 0.025576 0.279749 -0.091835
C109  C     C_R   0.992670 0.458546 0.720731 -0.090766
C110  C     C_R   0.466501 0.025525 0.720252 -0.091819
C111  C     C_R   0.007316 0.541457 0.720726 -0.090769
C112  C     C_R   0.533513 0.974471 0.720252 -0.091822
C113  C     C_R   0.469061 0.028584 0.779890 -0.089242
C114  C     C_R   0.989835 0.459155 0.780321 -0.091991
C115  C     C_R   0.530953 0.971413 0.779890 -0.089244
C116  C     C_R   0.010161 0.540854 0.780316 -0.091991
C117  C     C_R   0.469116 0.971392 0.220114 -0.089233
C118  C     C_R   0.971421 0.530942 0.220107 -0.089241
C119  C     C_R   0.530861 0.028625 0.220110 -0.089230
C120  C     C_R   0.028583 0.469046 0.220107 -0.089243
C121  C     C_R   0.000002 0.499994 0.264847 -0.078691
C122  C     C_R   0.499990 0.000010 0.264852 -0.078693
C123  C     C_R   0.999994 0.500002 0.735624 -0.077511
C124  C     C_R   0.500007 0.999998 0.735150 -0.078686
C125  C     C_R   0.500007 0.999998 0.764993 -0.075961
C126  C     C_R   0.999997 0.500004 0.765422 -0.080256
C127  C     C_R   0.499989 0.000009 0.235009 -0.076000
C128  C     C_R   0.000002 0.499994 0.235005 -0.075985
C129  C     C_R   0.950693 0.567902 0.264419 0.185718
C130  C     C_R   0.432210 0.950619 0.264428 0.185735
C131  C     C_R   0.049310 0.432085 0.264419 0.185720
C132  C     C_R   0.567769 0.049402 0.264420 0.185726
C133  C     C_R   0.987908 0.416932 0.735969 0.185842
C134  C     C_R   0.432097 0.049314 0.735579 0.185636
C135  C     C_R   0.012079 0.583073 0.735961 0.185850
C136  C     C_R   0.567918 0.950683 0.735578 0.185637
C137  C     C_R   0.439702 0.058375 0.764554 0.183775
C138  C     C_R   0.977302 0.419193 0.765092 0.186111
C139  C     C_R   0.560312 0.941621 0.764554 0.183774
C140  C     C_R   0.022690 0.580815 0.765082 0.186104
C141  C     C_R   0.439835 0.941569 0.235452 0.183931
C142  C     C_R   0.941630 0.560302 0.235443 0.183903
C143  C     C_R   0.560142 0.058450 0.235443 0.183938
C144  C     C_R   0.058374 0.439685 0.235443 0.183903
C145  C     C_R   0.038431 0.517643 0.131240 0.152514
C146  C     C_R   0.482231 0.038401 0.131244 0.152562
C147  C     C_R   0.961572 0.482346 0.131243 0.152518
C148  C     C_R   0.517752 0.961605 0.131247 0.152559
C149  C     C_R   0.041926 0.506129 0.869024 0.151474
C150  C     C_R   0.482331 0.961587 0.868757 0.152623
C151  C     C_R   0.958074 0.493885 0.869026 0.151466
C152  C     C_R   0.517681 0.038409 0.868754 0.152627
C153  C     C_R   0.535739 0.022816 0.631402 0.131768
C154  C     C_R   0.964057 0.522470 0.632032 0.127989
C155  C     C_R   0.464272 0.977175 0.631406 0.131771
C156  C     C_R   0.035928 0.477526 0.632033 0.127979
C157  C     C_R   0.535800 0.977240 0.368597 0.131809
C158  C     C_R   0.977173 0.464273 0.368596 0.131820
C159  C     C_R   0.464194 0.022774 0.368600 0.131814
C160  C     C_R   0.022837 0.535717 0.368592 0.131824
C161  C     C_R   0.037983 0.517884 0.101414 0.098995
C162  C     C_R   0.481994 0.037952 0.101417 0.098876
C163  C     C_R   0.962019 0.482109 0.101416 0.098991
C164  C     C_R   0.517995 0.962052 0.101420 0.098872
C165  C     C_R   0.041602 0.506240 0.898842 0.100517
C166  C     C_R   0.482088 0.962037 0.898584 0.098960
C167  C     C_R   0.958398 0.493769 0.898844 0.100520
C168  C     C_R   0.517920 0.037961 0.898581 0.098956
C169  C     C_R   0.535286 0.022767 0.601475 0.085601
C170  C     C_R   0.964251 0.522227 0.602114 0.091865
C171  C     C_R   0.464721 0.977225 0.601479 0.085595
C172  C     C_R   0.035740 0.477771 0.602115 0.091861
C173  C     C_R   0.535351 0.977291 0.398524 0.085555
C174  C     C_R   0.977222 0.464726 0.398523 0.085649
C175  C     C_R   0.464645 0.022718 0.398528 0.085556
C176  C     C_R   0.022786 0.535268 0.398519 0.085643
N1    N     N_R   0.000003 0.499994 0.323442 -0.307363
N2    N     N_R   0.499994 0.000009 0.323447 -0.307360
N3    N     N_R   0.999991 0.499999 0.677102 -0.306980
N4    N     N_R   0.500007 0.999997 0.676556 -0.307366
N5    N     N_R   0.500007 0.999998 0.823581 -0.310641
N6    N     N_R   0.000001 0.500007 0.823935 -0.307731
N7    N     N_R   0.499989 0.000006 0.176421 -0.310611
N8    N     N_R   0.000002 0.499994 0.176417 -0.310621
O1    O     O_R   0.063110 0.535610 0.000010 -0.606801
O2    O     O_R   0.464390 0.063110 0.000010 -0.603370
O3    O     O_R   0.936890 0.464390 0.000010 -0.606799
O4    O     O_R   0.535610 0.936890 0.000010 -0.603369
O5    O     O_R   0.063110 0.464390 0.999990 -0.599648
O6    O     O_R   0.464390 0.936890 0.999990 -0.603501
O7    O     O_R   0.936890 0.535610 0.999990 -0.599655
O8    O     O_R   0.535610 0.063110 0.999990 -0.603499
O9    O     O_R   0.563110 0.035610 0.500010 -0.602195
O10   O     O_R   0.964390 0.563110 0.500010 -0.601746
O11   O     O_R   0.436890 0.964390 0.500010 -0.602195
O12   O     O_R   0.035610 0.436890 0.500010 -0.601743
O13   O     O_R   0.563110 0.964390 0.499990 -0.602186
O14   O     O_R   0.964390 0.436890 0.499990 -0.602672
O15   O     O_R   0.436890 0.035610 0.499990 -0.602186
O16   O     O_R   0.035610 0.563110 0.499990 -0.602673
O17   O     O_R   0.499970 0.436830 0.023710 -0.592659
O18   O     O_R   0.563170 0.499970 0.023710 -0.592634
O19   O     O_R   0.500030 0.563170 0.023710 -0.592658
O20   O     O_R   0.436830 0.500030 0.023710 -0.592636
O21   O     O_R   0.499970 0.563170 0.976290 -0.592695
O22   O     O_R   0.563170 0.500030 0.976290 -0.592743
O23   O     O_R   0.500030 0.436830 0.976290 -0.592693
O24   O     O_R   0.436830 0.499970 0.976290 -0.592741
O25   O     O_R   0.999970 0.936830 0.523710 -0.592523
O26   O     O_R   0.063170 0.999970 0.523710 -0.592650
O27   O     O_R   0.000030 0.063170 0.523710 -0.592521
O28   O     O_R   0.936830 0.000030 0.523710 -0.592650
O29   O     O_R   0.999970 0.063170 0.476290 -0.592964
O30   O     O_R   0.063170 0.000030 0.476290 -0.592922
O31   O     O_R   0.000030 0.936830 0.476290 -0.592962
O32   O     O_R   0.936830 0.999970 0.476290 -0.592921
O33   O     O_R   0.999950 0.535620 0.041940 -0.609369
O34   O     O_R   0.464380 0.999950 0.041940 -0.609135
O35   O     O_R   0.000050 0.464380 0.041940 -0.609368
O36   O     O_R   0.535620 0.000050 0.041940 -0.609135
O37   O     O_R   0.999950 0.464380 0.958060 -0.619255
O38   O     O_R   0.464380 0.000050 0.958060 -0.609098
O39   O     O_R   0.000050 0.535620 0.958060 -0.619255
O40   O     O_R   0.535620 0.999950 0.958060 -0.609097
O41   O     O_R   0.499950 0.035620 0.541940 -0.612061
O42   O     O_R   0.964380 0.499950 0.541940 -0.599389
O43   O     O_R   0.500050 0.964380 0.541940 -0.612063
O44   O     O_R   0.035620 0.500050 0.541940 -0.599395
O45   O     O_R   0.499950 0.964380 0.458060 -0.612157
O46   O     O_R   0.964380 0.500050 0.458060 -0.611672
O47   O     O_R   0.500050 0.035620 0.458060 -0.612155
O48   O     O_R   0.035620 0.499950 0.458060 -0.611672
O49   O     O_2   0.060695 0.447652 0.324105 -0.598596
O50   O     O_2   0.552164 0.060766 0.324106 -0.598607
O51   O     O_2   0.939311 0.552335 0.324106 -0.598598
O52   O     O_2   0.447822 0.939253 0.324113 -0.598604
O53   O     O_2   0.031279 0.573747 0.676506 -0.598399
O54   O     O_2   0.552348 0.939307 0.675892 -0.598579
O55   O     O_2   0.968703 0.426251 0.676514 -0.598407
O56   O     O_2   0.447667 0.060688 0.675891 -0.598580
O57   O     O_2   0.568674 0.958686 0.824286 -0.598868
O58   O     O_2   0.001165 0.580127 0.824510 -0.595687
O59   O     O_2   0.431339 0.041310 0.824287 -0.598869
O60   O     O_2   0.998838 0.419886 0.824516 -0.595678
O61   O     O_2   0.568556 0.041381 0.175713 -0.599056
O62   O     O_2   0.041297 0.431325 0.175712 -0.598967
O63   O     O_2   0.431422 0.958631 0.175720 -0.599054
O64   O     O_2   0.958707 0.568663 0.175712 -0.598966
Zn1   Zn    Zn3+2 1.000000 0.547570 0.000000 0.948339
Zn2   Zn    Zn3+2 0.452430 0.000000 0.000000 0.945340
Zn3   Zn    Zn3+2 1.000000 0.452430 0.000000 0.948342
Zn4   Zn    Zn3+2 0.547570 0.000000 0.000000 0.945342
Zn5   Zn    Zn3+2 0.500000 0.047570 0.500000 0.958692
Zn6   Zn    Zn3+2 0.952430 0.500000 0.500000 0.958880
Zn7   Zn    Zn3+2 0.500000 0.952430 0.500000 0.958696
Zn8   Zn    Zn3+2 0.047570 0.500000 0.500000 0.958886
Zn9   Zn    Zn3+2 0.500000 0.500000 0.031630 0.967978
Zn10  Zn    Zn3+2 0.500000 0.500000 0.968370 0.967753
Zn11  Zn    Zn3+2 0.000000 0.000000 0.531630 0.967922
Zn12  Zn    Zn3+2 1.000000 0.000000 0.468370 0.966614
C177  C     C_3   0.940828 0.615224 0.276883 -0.371305
C178  C     C_3   0.968699 0.652258 0.261717 -0.913292
H1    H     H_    0.005923 0.644911 0.263817 0.265520
H2    H     H_    0.959942 0.654282 0.238892 0.269724
H3    H     H_    0.961538 0.686145 0.271479 0.257858
H4    H     H_    0.903805 0.623542 0.275599 0.217109
H5    H     H_    0.950949 0.618217 0.299342 0.253298
C179  C     C_3   0.384908 0.940695 0.276896 -0.371312
C180  C     C_3   0.347787 0.968513 0.261734 -0.913320
H6    H     H_    0.355032 0.005739 0.263835 0.265532
H7    H     H_    0.345784 0.959756 0.238909 0.269710
H8    H     H_    0.313915 0.961310 0.271499 0.257851
H9    H     H_    0.376692 0.903668 0.275612 0.217100
H10   H     H_    0.381890 0.950808 0.299356 0.253283
C181  C     C_3   0.059174 0.384762 0.276885 -0.371300
C182  C     C_3   0.031305 0.347728 0.261721 -0.913289
H11   H     H_    0.994081 0.355076 0.263821 0.265520
H12   H     H_    0.040064 0.345704 0.238896 0.269722
H13   H     H_    0.038465 0.313842 0.271484 0.257858
H14   H     H_    0.096198 0.376445 0.275600 0.217110
H15   H     H_    0.049052 0.381770 0.299344 0.253293
C183  C     C_3   0.615072 0.059330 0.276883 -0.371312
C184  C     C_3   0.652193 0.031513 0.261719 -0.913317
H16   H     H_    0.644951 0.994288 0.263822 0.265531
H17   H     H_    0.654194 0.040270 0.238894 0.269711
H18   H     H_    0.686066 0.038719 0.271480 0.257851
H19   H     H_    0.623285 0.096357 0.275596 0.217099
H20   H     H_    0.618094 0.049217 0.299343 0.253288
C185  C     C_3   0.000778 0.370557 0.723177 -0.373665
C186  C     C_3   0.043488 0.350821 0.737533 -0.911541
H21   H     H_    0.072844 0.374670 0.734844 0.265496
H22   H     H_    0.037857 0.344994 0.760484 0.270297
H23   H     H_    0.052506 0.317503 0.727611 0.257811
H24   H     H_    0.972040 0.345890 0.724938 0.217253
H25   H     H_    0.010004 0.372686 0.700538 0.252715
C187  C     C_3   0.384767 0.059187 0.723116 -0.371376
C188  C     C_3   0.347719 0.031332 0.738284 -0.912751
H26   H     H_    0.355059 0.994114 0.736185 0.265451
H27   H     H_    0.345698 0.040091 0.761108 0.269744
H28   H     H_    0.313827 0.038500 0.728523 0.258009
H29   H     H_    0.376457 0.096205 0.724399 0.217194
H30   H     H_    0.381770 0.049067 0.700658 0.253321
C189  C     C_3   0.999205 0.629445 0.723166 -0.373669
C190  C     C_3   0.956494 0.649179 0.737523 -0.911546
H31   H     H_    0.927140 0.625327 0.734838 0.265496
H32   H     H_    0.962126 0.655009 0.760473 0.270297
H33   H     H_    0.947472 0.682495 0.727599 0.257812
H34   H     H_    0.027941 0.654115 0.724923 0.217252
H35   H     H_    0.989978 0.627313 0.700527 0.252714
C191  C     C_3   0.615248 0.940811 0.723113 -0.371368
C192  C     C_3   0.652295 0.968664 0.738279 -0.912748
H36   H     H_    0.644955 0.005883 0.736180 0.265452
H37   H     H_    0.654318 0.959904 0.761103 0.269742
H38   H     H_    0.686187 0.961499 0.728516 0.258008
H39   H     H_    0.623558 0.903793 0.724396 0.217195
H40   H     H_    0.618245 0.950933 0.700655 0.253315
C193  C     C_3   0.421846 0.103326 0.776989 -0.370435
C194  C     C_3   0.442922 0.144582 0.761793 -0.912888
H41   H     H_    0.480850 0.143754 0.763894 0.265385
H42   H     H_    0.433953 0.145033 0.738968 0.269575
H43   H     H_    0.430034 0.176753 0.771532 0.258193
H44   H     H_    0.383947 0.105144 0.775706 0.217259
H45   H     H_    0.431305 0.108072 0.799440 0.254694
C195  C     C_3   0.946749 0.382059 0.777906 -0.372109
C196  C     C_3   0.899696 0.381412 0.763578 -0.912321
H46   H     H_    0.882560 0.415155 0.766270 0.265757
H47   H     H_    0.902448 0.373785 0.740627 0.269633
H48   H     H_    0.877946 0.354648 0.773518 0.258030
H49   H     H_    0.962988 0.347823 0.776137 0.217305
H50   H     H_    0.939233 0.387763 0.800552 0.252757
C197  C     C_3   0.578168 0.896670 0.776990 -0.370432
C198  C     C_3   0.557094 0.855414 0.761796 -0.912887
H51   H     H_    0.519165 0.856242 0.763897 0.265385
H52   H     H_    0.566066 0.854963 0.738970 0.269575
H53   H     H_    0.569981 0.823244 0.771536 0.258193
H54   H     H_    0.616067 0.894853 0.775706 0.217260
H55   H     H_    0.568707 0.891924 0.799441 0.254692
C199  C     C_3   0.053242 0.617953 0.777890 -0.372107
C200  C     C_3   0.100292 0.618602 0.763557 -0.912319
H56   H     H_    0.117432 0.584862 0.766251 0.265758
H57   H     H_    0.097536 0.626224 0.740605 0.269633
H58   H     H_    0.122041 0.645371 0.773491 0.258030
H59   H     H_    0.037000 0.652188 0.776120 0.217303
H60   H     H_    0.060762 0.612253 0.800536 0.252764
C201  C     C_3   0.422093 0.896601 0.223018 -0.370719
C202  C     C_3   0.443279 0.855366 0.238209 -0.912942
H61   H     H_    0.481205 0.856237 0.236104 0.265466
H62   H     H_    0.434316 0.854903 0.261036 0.269589
H63   H     H_    0.430475 0.823183 0.228470 0.258072
H64   H     H_    0.384200 0.894741 0.224305 0.217096
H65   H     H_    0.431560 0.891868 0.200565 0.254655
C203  C     C_3   0.896676 0.578166 0.223009 -0.370666
C204  C     C_3   0.855406 0.557101 0.238202 -0.912928
H66   H     H_    0.856227 0.519181 0.236099 0.265456
H67   H     H_    0.854955 0.566066 0.261028 0.269583
H68   H     H_    0.823232 0.569994 0.228462 0.258099
H69   H     H_    0.894865 0.616057 0.224294 0.217119
H70   H     H_    0.891929 0.568713 0.200557 0.254676
C205  C     C_3   0.577879 0.103419 0.223004 -0.370719
C206  C     C_3   0.556692 0.144653 0.238194 -0.912947
H71   H     H_    0.518766 0.143780 0.236092 0.265467
H72   H     H_    0.565657 0.145119 0.261020 0.269589
H73   H     H_    0.569494 0.176837 0.228452 0.258074
H74   H     H_    0.615773 0.105281 0.224289 0.217097
H75   H     H_    0.568411 0.108149 0.200552 0.254650
C207  C     C_3   0.103329 0.421822 0.223006 -0.370662
C208  C     C_3   0.144598 0.442885 0.238198 -0.912927
H76   H     H_    0.143777 0.480806 0.236095 0.265456
H77   H     H_    0.145050 0.433918 0.261024 0.269584
H78   H     H_    0.176772 0.429993 0.228457 0.258099
H79   H     H_    0.105139 0.383930 0.224292 0.217120
H80   H     H_    0.108075 0.431276 0.200554 0.254673
C209  C     C_3   0.080514 0.534945 0.147124 -0.367416
C210  C     C_3   0.073942 0.583579 0.158344 -0.820449
H81   H     H_    0.061450 0.606704 0.141357 0.268222
H82   H     H_    0.049383 0.584068 0.176207 0.277100
H83   H     H_    0.107215 0.596869 0.166259 0.236111
H84   H     H_    0.089494 0.511794 0.164882 0.204483
H85   H     H_    0.111294 0.534739 0.133310 0.225988
C211  C     C_3   0.464809 0.080456 0.147128 -0.367478
C212  C     C_3   0.416187 0.073823 0.158354 -0.820419
H86   H     H_    0.393089 0.061294 0.141373 0.268201
H87   H     H_    0.415773 0.049276 0.176222 0.277077
H88   H     H_    0.402799 0.107074 0.166265 0.236129
H89   H     H_    0.487944 0.089468 0.164882 0.204479
H90   H     H_    0.464924 0.111228 0.133312 0.225966
C213  C     C_3   0.919490 0.465043 0.147130 -0.367416
C214  C     C_3   0.926063 0.416408 0.158350 -0.820451
H91   H     H_    0.938555 0.393284 0.141363 0.268222
H92   H     H_    0.950623 0.415919 0.176212 0.277101
H93   H     H_    0.892791 0.403117 0.166268 0.236110
H94   H     H_    0.910510 0.488193 0.164888 0.204482
H95   H     H_    0.888709 0.465249 0.133318 0.225988
C215  C     C_3   0.535172 0.919552 0.147135 -0.367473
C216  C     C_3   0.583795 0.926185 0.158357 -0.820421
H96   H     H_    0.606893 0.938705 0.141372 0.268203
H97   H     H_    0.584212 0.950738 0.176221 0.277083
H98   H     H_    0.597180 0.892935 0.166274 0.236129
H99   H     H_    0.512038 0.910544 0.164892 0.204477
H100  H     H_    0.535054 0.888777 0.133322 0.225961
C217  C     C_3   0.086844 0.513576 0.853064 -0.377893
C218  C     C_3   0.104069 0.469920 0.838653 -0.822570
H101  H     H_    0.099765 0.439700 0.852686 0.271616
H102  H     H_    0.085688 0.463881 0.818481 0.265916
H103  H     H_    0.141025 0.473657 0.833522 0.237819
H104  H     H_    0.083123 0.541227 0.837136 0.209278
H105  H     H_    0.114374 0.525789 0.867393 0.232305
C219  C     C_3   0.465009 0.919520 0.852873 -0.367434
C220  C     C_3   0.416369 0.926110 0.841652 -0.820496
H106  H     H_    0.393243 0.938615 0.858636 0.268237
H107  H     H_    0.415892 0.950661 0.823786 0.277119
H108  H     H_    0.403061 0.892848 0.833739 0.236030
H109  H     H_    0.488163 0.910531 0.835115 0.204478
H110  H     H_    0.465201 0.888746 0.866687 0.225950
C221  C     C_3   0.913157 0.486443 0.853067 -0.377892
C222  C     C_3   0.895934 0.530102 0.838658 -0.822567
H111  H     H_    0.900240 0.560320 0.852692 0.271611
H112  H     H_    0.914315 0.536143 0.818485 0.265921
H113  H     H_    0.858977 0.526368 0.833529 0.237820
H114  H     H_    0.916877 0.458794 0.837138 0.209264
H115  H     H_    0.885626 0.474228 0.867397 0.232309
C223  C     C_3   0.535004 0.080476 0.852867 -0.367437
C224  C     C_3   0.583645 0.073885 0.841645 -0.820499
H116  H     H_    0.606770 0.061380 0.858629 0.268237
H117  H     H_    0.584121 0.049335 0.823780 0.277120
H118  H     H_    0.596954 0.107146 0.833731 0.236030
H119  H     H_    0.511852 0.089465 0.835111 0.204478
H120  H     H_    0.534813 0.111251 0.866680 0.225951
C225  C     C_3   0.573797 0.047253 0.647679 -0.395263
C226  C     C_3   0.557709 0.092775 0.660266 -0.814522
H121  H     H_    0.587942 0.114115 0.665734 0.233640
H122  H     H_    0.538071 0.087132 0.680017 0.270830
H123  H     H_    0.536150 0.111965 0.644920 0.272120
H124  H     H_    0.587614 0.025105 0.664730 0.212469
H125  H     H_    0.603856 0.054491 0.634137 0.202460
C227  C     C_3   0.925561 0.546207 0.648404 -0.395400
C228  C     C_3   0.891608 0.512000 0.661086 -0.816436
H126  H     H_    0.883493 0.484334 0.645732 0.271899
H127  H     H_    0.859322 0.530016 0.666706 0.233740
H128  H     H_    0.905412 0.496655 0.680758 0.270978
H129  H     H_    0.939536 0.568304 0.665405 0.212956
H130  H     H_    0.905896 0.570218 0.634965 0.201321
C229  C     C_3   0.426216 0.952738 0.647687 -0.395270
C230  C     C_3   0.442307 0.907217 0.660278 -0.814518
H131  H     H_    0.412075 0.885876 0.665748 0.233639
H132  H     H_    0.463866 0.888027 0.644931 0.272119
H133  H     H_    0.461944 0.912862 0.680027 0.270827
H134  H     H_    0.412399 0.974887 0.664738 0.212468
H135  H     H_    0.396156 0.945497 0.634149 0.202462
C231  C     C_3   0.074421 0.453787 0.648406 -0.395415
C232  C     C_3   0.108368 0.487992 0.661093 -0.816415
H136  H     H_    0.116476 0.515672 0.645746 0.271915
H137  H     H_    0.140659 0.469980 0.666706 0.233735
H138  H     H_    0.094563 0.503320 0.680771 0.270942
H139  H     H_    0.060443 0.431684 0.665404 0.212964
H140  H     H_    0.094093 0.429781 0.634968 0.201321
C233  C     C_3   0.573925 0.952855 0.352317 -0.395416
C234  C     C_3   0.557965 0.907313 0.339729 -0.814365
H141  H     H_    0.536467 0.888091 0.355078 0.272132
H142  H     H_    0.588258 0.886015 0.334255 0.233661
H143  H     H_    0.538305 0.912932 0.319981 0.270824
H144  H     H_    0.587679 0.975022 0.335266 0.212463
H145  H     H_    0.604005 0.945652 0.365856 0.202449
C235  C     C_3   0.952724 0.426228 0.352319 -0.395396
C236  C     C_3   0.907195 0.442323 0.339732 -0.814406
H146  H     H_    0.885845 0.412100 0.334263 0.233634
H147  H     H_    0.912843 0.461957 0.319981 0.270834
H148  H     H_    0.888005 0.463879 0.355079 0.272133
H149  H     H_    0.974873 0.412409 0.335268 0.212456
H150  H     H_    0.945477 0.396176 0.365861 0.202418
C237  C     C_3   0.426065 0.047161 0.352324 -0.395415
C238  C     C_3   0.442024 0.092705 0.339735 -0.814373
H151  H     H_    0.463522 0.111925 0.355083 0.272130
H152  H     H_    0.411730 0.114002 0.334263 0.233663
H153  H     H_    0.461683 0.087088 0.319987 0.270831
H154  H     H_    0.412310 0.024996 0.335274 0.212463
H155  H     H_    0.395987 0.054361 0.365866 0.202450
C239  C     C_3   0.047286 0.573761 0.352311 -0.395406
C240  C     C_3   0.092812 0.557664 0.339720 -0.814405
H156  H     H_    0.114163 0.587885 0.334249 0.233633
H157  H     H_    0.112002 0.536106 0.355067 0.272135
H158  H     H_    0.087162 0.538031 0.319971 0.270829
H159  H     H_    0.025135 0.587579 0.335261 0.212457
H160  H     H_    0.054535 0.603812 0.365850 0.202421
N9    N     N_2   0.076653 0.534732 0.086119 -0.308120
H161  H     H_    0.087198 0.514881 0.069244 0.216233
C241  C     C_3   0.076997 0.583542 0.080458 -0.723167
H162  H     H_    0.109231 0.598499 0.088809 0.235755
H163  H     H_    0.047472 0.601384 0.090506 0.242465
H164  H     H_    0.075491 0.589777 0.057251 0.240145
N10   N     N_2   0.465032 0.076591 0.086122 -0.308149
H165  H     H_    0.484854 0.087158 0.069244 0.216450
C242  C     C_3   0.416210 0.076876 0.080470 -0.723013
H166  H     H_    0.401165 0.109085 0.088824 0.235794
H167  H     H_    0.398449 0.047335 0.090521 0.242317
H168  H     H_    0.409969 0.075363 0.057265 0.240283
N11   N     N_2   0.923348 0.465261 0.086124 -0.308121
H169  H     H_    0.912803 0.485113 0.069249 0.216231
C243  C     C_3   0.923004 0.416451 0.080464 -0.723173
H170  H     H_    0.890771 0.401494 0.088819 0.235756
H171  H     H_    0.952530 0.398609 0.090510 0.242467
H172  H     H_    0.924508 0.410217 0.057258 0.240140
N12   N     N_2   0.534960 0.923411 0.086129 -0.308149
H173  H     H_    0.515138 0.912841 0.069253 0.216445
C244  C     C_3   0.583782 0.923129 0.080474 -0.723010
H174  H     H_    0.598831 0.890925 0.088833 0.235796
H175  H     H_    0.601540 0.952676 0.090519 0.242319
H176  H     H_    0.590022 0.924635 0.057268 0.240279
N13   N     N_2   0.083209 0.513184 0.914176 -0.315817
H177  H     H_    0.080523 0.535574 0.930994 0.234078
C245  C     C_3   0.107503 0.471608 0.921495 -0.771449
H178  H     H_    0.140541 0.480518 0.931782 0.238149
H179  H     H_    0.115014 0.451177 0.902229 0.256634
H180  H     H_    0.086967 0.450634 0.936464 0.247166
N14   N     N_2   0.465209 0.923385 0.913878 -0.308115
H181  H     H_    0.485053 0.912831 0.930755 0.216474
C246  C     C_3   0.416387 0.923069 0.919532 -0.723265
H182  H     H_    0.401411 0.890851 0.911179 0.235698
H183  H     H_    0.398562 0.952600 0.909483 0.242413
H184  H     H_    0.410144 0.924578 0.942738 0.240280
N15   N     N_2   0.916790 0.486822 0.914179 -0.315819
H185  H     H_    0.919474 0.464429 0.930996 0.234078
C247  C     C_3   0.892496 0.528397 0.921500 -0.771457
H186  H     H_    0.884998 0.548840 0.902236 0.256634
H187  H     H_    0.913025 0.549361 0.936476 0.247161
H188  H     H_    0.859451 0.519485 0.931779 0.238158
N16   N     N_2   0.534799 0.076613 0.913873 -0.308116
H189  H     H_    0.514954 0.087167 0.930750 0.216474
C248  C     C_3   0.583621 0.076929 0.919526 -0.723270
H190  H     H_    0.598596 0.109147 0.911170 0.235700
H191  H     H_    0.601446 0.047398 0.909478 0.242413
H192  H     H_    0.589864 0.075422 0.942731 0.240275
N17   N     N_2   0.571140 0.043380 0.585358 -0.307665
H193  H     H_    0.603801 0.032119 0.589920 0.216807
C249  C     C_3   0.567284 0.092306 0.580951 -0.725808
H194  H     H_    0.578052 0.111219 0.600198 0.231748
H195  H     H_    0.531535 0.101996 0.575456 0.254753
H196  H     H_    0.589983 0.102568 0.563180 0.233035
N18   N     N_2   0.929948 0.545996 0.586341 -0.291012
H197  H     H_    0.926505 0.580380 0.590854 0.214530
C250  C     C_3   0.887108 0.521827 0.582322 -0.711628
H198  H     H_    0.865562 0.524035 0.601612 0.227088
H199  H     H_    0.893351 0.485214 0.577085 0.249382
H200  H     H_    0.868032 0.537715 0.564501 0.228029
N19   N     N_2   0.428865 0.956612 0.585367 -0.307669
H201  H     H_    0.396204 0.967871 0.589932 0.216808
C251  C     C_3   0.432722 0.907686 0.580961 -0.725825
H202  H     H_    0.421966 0.888773 0.600211 0.231757
H203  H     H_    0.468468 0.897999 0.575457 0.254757
H204  H     H_    0.410015 0.897423 0.563195 0.233029
N20   N     N_2   0.070047 0.454006 0.586343 -0.291010
H205  H     H_    0.073492 0.419622 0.590858 0.214530
C252  C     C_3   0.112885 0.478179 0.582325 -0.711635
H206  H     H_    0.134420 0.475990 0.601620 0.227106
H207  H     H_    0.106640 0.514786 0.577074 0.249396
H208  H     H_    0.131977 0.462280 0.564513 0.228015
N21   N     N_2   0.571271 0.956736 0.414639 -0.307810
H209  H     H_    0.603898 0.968037 0.410068 0.216800
C253  C     C_3   0.567557 0.907808 0.419057 -0.725903
H210  H     H_    0.578347 0.888900 0.399806 0.231836
H211  H     H_    0.531844 0.898077 0.424576 0.254807
H212  H     H_    0.590310 0.897582 0.436816 0.233060
N22   N     N_2   0.956599 0.428882 0.414639 -0.307535
H213  H     H_    0.967854 0.396225 0.410077 0.216807
C254  C     C_3   0.907665 0.432748 0.419049 -0.726029
H214  H     H_    0.888743 0.421987 0.399803 0.231772
H215  H     H_    0.897981 0.468491 0.424545 0.254720
H216  H     H_    0.897398 0.410055 0.436821 0.232923
N23   N     N_2   0.428727 0.043271 0.414646 -0.307805
H217  H     H_    0.396099 0.031968 0.410078 0.216799
C255  C     C_3   0.432440 0.092198 0.419063 -0.725894
H218  H     H_    0.421645 0.111108 0.399814 0.231831
H219  H     H_    0.468154 0.101930 0.424577 0.254803
H220  H     H_    0.409690 0.102421 0.436826 0.233062
N24   N     N_2   0.043410 0.571113 0.414632 -0.307537
H221  H     H_    0.032156 0.603770 0.410066 0.216808
C256  C     C_3   0.092344 0.567246 0.419039 -0.726044
H222  H     H_    0.111265 0.577994 0.399789 0.231783
H223  H     H_    0.102024 0.531505 0.424544 0.254725
H224  H     H_    0.102613 0.589947 0.436805 0.232915

loop_
_geom_bond_atom_site_label_1
_geom_bond_atom_site_label_2
_ccdc_geom_bond_type
C78   O42   A    
N24   C256  S    
O27   Zn11  S    
C138  C195  S    
C186  H23   S    
C119  C143  A    
C233  C234  S    
C34   C42   S    
C14   C170  A    
C252  H207  S    
C191  H40   S    
N21   H209  S    
C76   O40   A    
C183  C184  S    
C9    C73   S    
C103  N7    A    
C5    O9    A    
C2    O8    A    
C112  C124  A    
C85   O31   A    
C29   C37   T    
O6    Zn2   S    
C236  H148  S    
C154  C170  A    
C106  C130  A    
C252  H206  S    
C249  H196  S    
O4    Zn4   S    
C130  C141  A    
O44   Zn8   S    
C158  C174  A    
C190  H33   S    
C240  H156  S    
C146  C211  S    
C235  C236  S    
C243  H171  S    
C120  C144  A    
C152  C223  S    
C198  H53   S    
C97   C115  A    
C250  H199  S    
C218  H102  S    
C81   O23   A    
C84   O20   A    
C170  N18   S    
O22   Zn10  S    
C10   C162  A    
C11   C167  A    
N10   C242  S    
C103  C117  A    
C101  C119  A    
C178  H3    S    
C41   C49   T    
C204  H67   S    
C224  H118  S    
C219  H110  S    
N12   C244  S    
C15   C173  A    
C109  C133  A    
N22   H213  S    
O24   Zn10  S    
C121  C128  A    
C224  H117  S    
C95   C109  A    
C82   O18   A    
C123  C126  A    
C129  C142  A    
C27   C35   T    
O26   Zn11  S    
C228  H126  S    
O23   Zn10  S    
C92   O52   S    
C103  O63   S    
C85   O25   A    
C16   C80   S    
C133  C185  S    
C213  H95   S    
C154  C227  S    
O20   Zn9   S    
C231  H139  S    
C239  H160  S    
C256  H224  S    
C203  C204  S    
C149  C165  A    
C241  H163  S    
C95   O55   S    
C198  H51   S    
C79   O47   A    
C217  H105  S    
C69   C88   S    
C92   C106  A    
C187  C188  S    
C6    C30   S    
C63   C71   T    
N17   C249  S    
C212  H86   S    
C252  H208  S    
C113  C137  A    
C36   C44   S    
C250  H198  S    
C37   C45   S    
C213  C214  S    
C6    O10   A    
C32   C40   T    
C227  C228  S    
C39   C47   S    
C228  H128  S    
C40   C48   S    
C108  C132  A    
C235  H150  S    
C194  H43   S    
C68   C83   S    
O15   Zn5   S    
C80   O46   A    
C22   N3    S    
C3    O3    A    
C105  C129  A    
C1    O1    A    
O28   Zn11  S    
C205  H75   S    
C222  H111  S    
C4    O4    A    
C181  H14   S    
C177  H4    S    
C17   N8    S    
N13   H177  S    
C246  H183  S    
C145  C161  A    
C18   N7    S    
C151  C167  A    
C208  H78   S    
O3    Zn3   S    
C226  H122  S    
C98   O58   S    
C215  C216  S    
O1    Zn1   S    
O41   Zn5   S    
C88   O28   A    
C179  H10   S    
C205  C206  S    
C11   C165  A    
C21   C153  A    
N11   C243  S    
C220  H106  S    
C207  H79   S    
O19   Zn9   S    
C211  C212  S    
C167  N15   S    
O43   Zn7   S    
C203  H70   S    
C91   C105  A    
C8    O14   A    
C111  C135  A    
C217  C218  S    
C139  C197  S    
C225  C226  S    
C187  H30   S    
C73   O35   A    
C185  H25   S    
C147  C213  S    
C177  C178  S    
C114  C126  A    
C247  H188  S    
O25   Zn11  S    
C199  H59   S    
C150  C166  A    
C91   O51   S    
C14   C78   S    
C49   C57   S    
C89   O49   S    
C201  H64   S    
C196  H47   S    
C210  H81   S    
C79   O45   A    
C194  H42   S    
C52   C60   S    
C143  C205  S    
C53   C61   S    
C193  H44   S    
C15   C79   S    
C221  C222  S    
C93   O53   S    
C214  H91   S    
C55   C63   S    
C212  H88   S    
C19   C151  A    
C233  H144  S    
C56   C64   S    
C205  H74   S    
C35   C43   S    
C197  H54   S    
C100  O60   S    
C189  H35   S    
C232  H138  S    
C110  C124  A    
O14   Zn6   S    
C190  H32   S    
C245  H180  S    
C45   C53   T    
C183  H19   S    
C229  H135  S    
C184  H18   S    
C188  H27   S    
C74   O34   A    
O33   Zn1   S    
C112  C136  A    
C137  C193  S    
C206  H71   S    
C248  H190  S    
C253  H212  S    
C134  C187  S    
O21   Zn10  S    
C233  H145  S    
C244  H175  S    
C234  H141  S    
C73   O33   A    
C148  C164  A    
C222  H113  S    
C4    O6    A    
C251  H204  S    
C100  C114  A    
C238  H151  S    
O18   Zn9   S    
C197  H55   S    
C65   C84   S    
C5    O13   A    
C104  O64   S    
C195  H49   S    
O8    Zn4   S    
C156  C172  A    
C230  H131  S    
N22   C254  S    
C210  H83   S    
C86   O30   A    
N9    H161  S    
C71   C86   S    
C84   O24   A    
C202  H62   S    
C106  C122  A    
C185  C186  S    
C21   C155  A    
C153  C225  S    
C211  H90   S    
C2    C26   S    
C179  C180  S    
C220  H108  S    
C9    C161  A    
N15   C247  S    
C28   C36   T    
C227  H130  S    
O16   Zn8   S    
O38   Zn2   S    
C102  O62   S    
C46   C54   T    
C42   C50   T    
C192  H37   S    
O29   Zn12  S    
C223  C224  S    
C110  C134  A    
C74   O36   A    
N14   H181  S    
C82   O22   A    
C72   C87   S    
C202  H63   S    
C218  H101  S    
C254  H216  S    
C16   C174  A    
C219  H109  S    
C255  H220  S    
C87   O27   A    
N12   H173  S    
C189  H34   S    
C116  C126  A    
N19   C251  S    
C3    C27   S    
C209  H85   S    
C90   C108  A    
C83   O21   A    
C11   C75   S    
C214  H93   S    
C23   C157  A    
C94   C112  A    
C236  H147  S    
C20   C150  A    
C249  H195  S    
C239  C240  S    
C181  H15   S    
O17   Zn9   S    
C38   C46   S    
C227  H129  S    
O40   Zn4   S    
C232  H136  S    
C255  H218  S    
C200  H58   S    
C51   C59   S    
C182  H11   S    
C168  N16   S    
C157  C173  A    
C184  H16   S    
C165  N13   S    
C155  C229  S    
C242  H166  S    
C70   C85   S    
C206  H73   S    
C245  H178  S    
C25   C33   T    
C20   N5    S    
C119  C127  A    
C132  C183  S    
C90   N2    A    
C77   O41   A    
O11   Zn7   S    
O34   Zn2   S    
C195  C196  S    
C251  H202  S    
C238  H153  S    
C101  O61   S    
C134  C137  A    
C204  H66   S    
C93   N3    A    
C240  H158  S    
N20   C252  S    
C183  H20   S    
C146  C162  A    
O42   Zn6   S    
N20   H205  S    
C230  H133  S    
C250  H200  S    
C215  H99   S    
C246  H182  S    
C216  H98   S    
C150  C219  S    
N23   C255  S    
C169  N17   S    
C225  H125  S    
C136  C191  S    
C248  H192  S    
C186  H21   S    
C9    C163  A    
C207  C208  S    
O45   Zn7   S    
C174  N22   S    
C231  H140  S    
C256  H223  S    
C175  N23   S    
C100  N6    A    
C217  H104  S    
C101  N7    A    
C130  C179  S    
C16   C176  A    
C132  C143  A    
C228  H127  S    
C144  C207  S    
C133  C138  A    
O35   Zn3   S    
N17   H193  S    
C96   O56   S    
C242  H168  S    
C136  C139  A    
C129  C177  S    
C237  H155  S    
C19   N6    S    
C152  C168  A    
C104  C118  A    
C191  H39   S    
N21   C253  S    
C135  C140  A    
C216  H97   S    
C111  C123  A    
C50   C58   S    
C83   O19   A    
C108  C122  A    
N23   H217  S    
C81   O17   A    
C80   O48   A    
C54   C62   S    
C118  C142  A    
C254  H214  S    
C96   C110  A    
O10   Zn6   S    
C172  N20   S    
C222  H112  S    
C98   N6    A    
C117  C141  A    
C237  C238  S    
O7    Zn1   S    
C173  N21   S    
C200  H56   S    
C182  H13   S    
C145  C209  S    
C247  H186  S    
C243  H172  S    
C89   C107  A    
C24   C160  A    
C208  H77   S    
C117  C127  A    
C226  H123  S    
C229  H134  S    
C178  H1    S    
C93   C111  A    
C142  C203  S    
C104  N8    A    
C77   O43   A    
C12   C76   S    
C107  C121  A    
C7    O11   A    
C207  H80   S    
C204  H68   S    
C102  C120  A    
N13   C245  S    
N16   C248  S    
C191  C192  S    
C251  H203  S    
C86   O26   A    
C57   C65   T    
O46   Zn6   S    
C135  C189  S    
C17   C145  A    
C99   C113  A    
C246  H184  S    
C216  H96   S    
C120  C128  A    
O12   Zn8   S    
C185  H24   S    
O5    Zn3   S    
C33   C41   S    
C140  C199  S    
C237  H154  S    
C66   C81   S    
C6    O16   A    
C247  H187  S    
C43   C51   T    
C239  H159  S    
C199  H60   S    
C113  C125  A    
C8    O12   A    
C241  H164  S    
C99   O59   S    
C196  H46   S    
O47   Zn5   S    
C210  H82   S    
O2    Zn2   S    
C97   O57   S    
C221  H115  S    
C20   C152  A    
C219  C220  S    
C60   C68   T    
C214  H92   S    
C180  H8    S    
C148  C215  S    
C24   N1    S    
C212  H87   S    
C221  H114  S    
C99   N5    A    
C147  C163  A    
C141  C201  S    
C131  C144  A    
C243  H170  S    
O9    Zn5   S    
C232  H137  S    
C156  C231  S    
C192  H36   S    
C245  H179  S    
C223  H120  S    
C235  H149  S    
N18   C250  S    
C153  C169  A    
C188  H26   S    
C160  C239  S    
C208  H76   S    
O48   Zn8   S    
N14   C246  S    
C197  C198  S    
C206  H72   S    
C236  H146  S    
C253  H211  S    
C242  H167  S    
C22   C156  A    
C94   O54   S    
C244  H174  S    
C234  H142  S    
C161  N9    S    
C162  N10   S    
C171  N19   S    
C17   C147  A    
C198  H52   S    
C177  H5    S    
C18   C148  A    
C12   C166  A    
C24   C158  A    
C157  C233  S    
C195  H50   S    
N16   H189  S    
C122  C127  A    
C180  H6    S    
C90   O50   S    
C230  H132  S    
N11   H169  S    
C226  H121  S    
C23   N2    S    
C19   C149  A    
C26   C34   T    
C21   N4    S    
O37   Zn3   S    
C176  N24   S    
C234  H143  S    
C149  C217  S    
C179  H9    S    
N10   H165  S    
C89   N1    A    
C220  H107  S    
N15   H185  S    
C59   C67   T    
C166  N14   S    
O39   Zn1   S    
C114  C138  A    
C231  C232  S    
C75   O39   A    
C189  C190  S    
C159  C175  A    
C203  H69   S    
C1    C25   S    
C160  C176  A    
C62   C70   T    
O30   Zn12  S    
C118  C128  A    
C4    C28   S    
C58   C66   T    
C163  N11   S    
C5    C29   S    
C254  H215  S    
C78   O44   A    
C187  H29   S    
C13   C77   S    
C255  H219  S    
C7    C31   S    
C8    C32   S    
C241  H162  S    
C14   C172  A    
C213  H94   S    
C224  H116  S    
C178  H2    S    
C76   O38   A    
C96   N4    A    
N24   H221  S    
C23   C159  A    
O31   Zn12  S    
C201  H65   S    
C196  H48   S    
C209  H84   S    
C2    O2    A    
C131  C181  S    
C194  H41   S    
C3    O7    A    
C218  H103  S    
C193  H45   S    
C98   C116  A    
C253  H210  S    
C13   C171  A    
C249  H194  S    
N19   H201  S    
C87   O29   A    
C105  C121  A    
O36   Zn4   S    
C94   N4    A    
O13   Zn7   S    
C92   N2    A    
C95   N3    A    
C190  H31   S    
C200  H57   S    
C181  C182  S    
C182  H12   S    
C199  C200  S    
C188  H28   S    
C238  H152  S    
O32   Zn12  S    
N18   H197  S    
C47   C55   T    
C22   C154  A    
C61   C69   T    
C48   C56   T    
C164  N12   S    
C244  H176  S    
C10   C164  A    
C88   O32   A    
C115  C139  A    
C18   C146  A    
C12   C168  A    
C240  H157  S    
C97   N5    A    
C115  C125  A    
C15   C175  A    
C102  N8    A    
C107  C131  A    
C180  H7    S    
C158  C235  S    
C229  C230  S    
N9    C241  S    
C215  H100  S    
C209  C210  S    
C10   C74   S    
C44   C52   T    
C202  H61   S    
C225  H124  S    
C91   N1    A    
C13   C169  A    
C248  H191  S    
C31   C39   T    
C211  H89   S    
C186  H22   S    
C64   C72   T    
C7    O15   A    
C193  C194  S    
C159  C237  S    
C155  C171  A    
C223  H119  S    
C75   O37   A    
C67   C82   S    
C256  H222  S    
C192  H38   S    
C124  C125  A    
C109  C123  A    
C30   C38   T    
C201  C202  S    
C1    O5    A    
C184  H17   S    
C116  C140  A    
C151  C221  S    
