data_mof_unit_64367.cif
_audit_creation_date              2012-12-10T19:01:15-0500
_audit_creation_method            fapswitch 2.2
_symmetry_space_group_name_H-M    P1
_symmetry_Int_Tables_number       1
_space_group_crystal_system       triclinic
_cell_length_a                    15.843597
_cell_length_b                    14.257058
_cell_length_c                    13.371054
_cell_angle_alpha                 89.940826
_cell_angle_beta                  90.152046
_cell_angle_gamma                 90.035661
_cell_volume                      3020.28205321

loop_
_atom_site_label
_atom_site_type_symbol
_atom_type_description
_atom_site_fract_x
_atom_site_fract_y
_atom_site_fract_z
_atom_type_partial_charge
C1    C     C_R   0.499989 0.326550 0.500044 0.929373
C2    C     C_1   0.500010 0.499979 0.950475 -0.051426
C3    C     C_R   0.335991 0.499109 0.499884 0.924942
C4    C     C_R   0.664023 0.499429 0.500210 0.930904
C5    C     C_R   0.499924 0.673468 0.499955 0.929500
C6    C     C_3   0.050720 0.400046 0.514827 0.741888
C7    C     C_3   0.048335 0.543143 0.398228 0.786873
C8    C     C_3   0.952471 0.401089 0.524329 0.781431
C9    C     C_3   0.950403 0.555283 0.408101 0.796030
C10   C     C_1   0.752152 0.501774 0.501358 -0.225361
C11   C     C_1   0.247901 0.501748 0.499847 -0.251895
C12   C     C_1   0.499713 0.141340 0.500089 -0.002955
C13   C     C_3   0.082427 0.505817 0.503194 -0.412433
C14   C     C_3   0.917822 0.505904 0.508760 -0.466901
C15   C     C_3   0.949405 0.569543 0.601395 0.767345
C16   C     C_3   0.049796 0.579464 0.588729 0.647800
C17   C     C_1   0.826861 0.503880 0.504749 0.191575
C18   C     C_1   0.173193 0.504332 0.500845 0.179395
C19   C     C_1   0.499843 0.225907 0.500110 -0.220443
C20   C     C_3   0.895798 0.333008 0.370595 0.100387
C21   C     C_3   0.872669 0.236546 0.330328 -0.840156
C22   C     C_3   0.907469 0.580944 0.240310 0.242985
C23   C     C_1   0.499596 0.042286 0.500022 0.011985
C24   C     C_3   0.889958 0.525626 0.145302 -0.919331
C25   C     C_3   0.093624 0.250452 0.453061 0.249596
C26   C     C_3   0.114869 0.198694 0.356934 -0.916504
C27   C     C_3   0.132914 0.506757 0.255928 0.228662
C28   C     C_3   0.153104 0.427465 0.184000 -0.858889
C29   C     C_3   0.110969 0.493595 0.732168 0.189200
C30   C     C_3   0.137439 0.514009 0.839413 -0.876718
C31   C     C_3   0.138496 0.717301 0.579668 0.245141
C32   C     C_3   0.160758 0.795059 0.506260 -0.796542
C33   C     C_3   0.845630 0.522088 0.724155 0.183659
C34   C     C_1   0.499562 0.957725 0.499957 0.010984
C35   C     C_3   0.838318 0.526122 0.837535 -0.868224
C36   C     C_3   0.924532 0.719510 0.677934 0.201722
C37   C     C_3   0.923634 0.821014 0.642821 -0.779869
C38   C     C_1   0.499622 0.858673 0.499896 -0.005430
C39   C     C_1   0.499746 0.774108 0.499884 -0.224151
C40   C     C_1   0.499998 0.499976 0.169425 0.067775
C41   C     C_1   0.500009 0.499980 0.830574 0.065168
C42   C     C_1   0.500004 0.499977 0.049522 -0.051253
F1    F     F_    0.082846 0.630828 0.375781 -0.665024
F2    F     F_    0.085654 0.360492 0.600149 -0.718377
F3    F     F_    0.932072 0.650866 0.414339 -0.596317
F4    F     F_    0.936998 0.376541 0.622583 -0.616698
H1    H     H_    0.951884 0.357394 0.329104 0.244657
H2    H     H_    0.940317 0.472620 0.133716 0.269979
H3    H     H_    0.037811 0.216622 0.488154 0.196773
H4    H     H_    0.149181 0.243648 0.503635 0.183077
H5    H     H_    0.176816 0.222973 0.328166 0.255536
H6    H     H_    0.118643 0.122161 0.371765 0.220801
H7    H     H_    0.065919 0.211879 0.299112 0.272347
H8    H     H_    0.190781 0.522804 0.299787 0.164480
H9    H     H_    0.114684 0.569168 0.210859 0.158241
H10   H     H_    0.096191 0.408985 0.139517 0.254672
H11   H     H_    0.204125 0.449561 0.132274 0.207861
H12   H     H_    0.839714 0.377610 0.357032 0.204461
H13   H     H_    0.174511 0.364878 0.226330 0.274344
H14   H     H_    0.166397 0.461546 0.695133 0.198582
H15   H     H_    0.056279 0.445711 0.737115 0.279779
H16   H     H_    0.084453 0.547171 0.880588 0.268153
H17   H     H_    0.155033 0.447675 0.877773 0.223750
H18   H     H_    0.192626 0.562118 0.840298 0.255810
H19   H     H_    0.193105 0.668815 0.584151 0.138784
H20   H     H_    0.128738 0.749569 0.654396 0.139083
H21   H     H_    0.106795 0.843932 0.497088 0.258601
H22   H     H_    0.216036 0.834972 0.534678 0.185238
H23   H     H_    0.812969 0.211939 0.365003 0.265154
H24   H     H_    0.177241 0.764840 0.432416 0.291287
H25   H     H_    0.819569 0.453546 0.699867 0.209326
H26   H     H_    0.805256 0.578075 0.691827 0.136840
H27   H     H_    0.863933 0.593519 0.866001 0.238544
H28   H     H_    0.771046 0.520096 0.859786 0.216773
H29   H     H_    0.874337 0.467452 0.871831 0.278058
H30   H     H_    0.985276 0.705738 0.716675 0.173457
H31   H     H_    0.873251 0.711839 0.733539 0.120717
H32   H     H_    0.861188 0.838216 0.609630 0.260408
H33   H     H_    0.935576 0.868439 0.707156 0.189928
H34   H     H_    0.863852 0.240196 0.247985 0.217737
H35   H     H_    0.973166 0.832566 0.585725 0.283536
H36   H     H_    0.923176 0.185163 0.347659 0.262687
H37   H     H_    0.968639 0.618204 0.231016 0.180769
H38   H     H_    0.856363 0.633538 0.250082 0.184418
H39   H     H_    0.828118 0.489311 0.151122 0.265368
H40   H     H_    0.888454 0.573778 0.079986 0.218852
N1    N     N_1   0.500000 0.499980 0.261870 -0.064302
N2    N     N_1   0.500000 0.499980 0.738130 -0.064720
O1    O     O_R   0.500000 0.373720 0.576470 -0.593382
O2    O     O_3   0.908031 0.518565 0.322750 -0.687337
O3    O     O_3   0.077443 0.345919 0.430690 -0.608558
O4    O     O_3   0.065426 0.479100 0.318523 -0.625328
O5    O     O_3   0.090165 0.578944 0.685825 -0.675878
O6    O     O_3   0.062909 0.671955 0.548595 -0.530951
O7    O     O_3   0.932216 0.528844 0.697506 -0.619110
O8    O     O_3   0.909275 0.659783 0.594695 -0.555644
O9    O     O_R   0.500000 0.373720 0.423530 -0.597878
O10   O     O_R   0.377150 0.500010 0.576490 -0.607537
O11   O     O_R   0.377150 0.500010 0.423510 -0.608930
O12   O     O_R   0.622850 0.500010 0.576490 -0.617137
O13   O     O_R   0.622850 0.500010 0.423510 -0.598290
O14   O     O_R   0.500000 0.626290 0.576440 -0.598127
O15   O     O_R   0.500000 0.626290 0.423560 -0.593991
O16   O     O_3   0.910877 0.325317 0.473891 -0.586465
Zn1   Zn    Zn3+2 0.500000 0.500010 0.602090 0.969819
Zn2   Zn    Zn3+2 0.500000 0.500010 0.397910 0.975455

loop_
_geom_bond_atom_site_label_1
_geom_bond_atom_site_label_2
_ccdc_geom_bond_type
C31   H20   S    
C5    O15   A    
C35   H28   S    
C9    F3    S    
C30   H18   S    
O12   Zn1   S    
C28   H10   S    
C27   H8    S    
C11   C18   T    
C28   H11   S    
C37   H33   S    
C12   C23   S    
C35   H29   S    
C16   O5    S    
O10   Zn1   S    
C13   C18   S    
C40   N1    T    
C36   C37   S    
C36   H31   S    
C30   H16   S    
C15   O7    S    
C38   C39   T    
C27   H9    S    
C2    C41   S    
C6    O3    S    
C21   H34   S    
O14   Zn1   S    
C7    C9    S    
C41   N2    T    
C25   H4    S    
C36   H30   S    
C33   H26   S    
C1    O1    A    
C7    F1    S    
C24   H39   S    
C32   H22   S    
C40   C42   S    
C6    F2    S    
C30   H17   S    
C14   C17   S    
C37   H35   S    
C33   O7    S    
C8    F4    S    
C29   H15   S    
C1    C19   S    
C25   O3    S    
C24   H2    S    
C1    O9    A    
C15   O8    S    
C6    C8    S    
C25   C26   S    
C21   H23   S    
C22   H38   S    
C9    C14   S    
C29   C30   S    
C26   H6    S    
C36   O8    S    
C31   C32   S    
C29   H14   S    
C23   C34   T    
C4    O13   A    
C22   O2    S    
C27   O4    S    
C21   H36   S    
C8    O16   S    
C32   H21   S    
O9    Zn2   S    
C4    O12   A    
C22   C24   S    
C20   H12   S    
C26   H7    S    
C28   H13   S    
O13   Zn2   S    
C31   H19   S    
O11   Zn2   S    
C5    O14   A    
C35   H27   S    
C8    C14   S    
C34   C38   S    
C9    O2    S    
C32   H24   S    
C20   O16   S    
C31   O6    S    
C37   H32   S    
C16   O6    S    
C22   H37   S    
C5    C39   S    
C26   H5    S    
C6    C13   S    
C29   O5    S    
N2    Zn1   S    
C3    O10   A    
N1    Zn2   S    
C24   H40   S    
C2    C42   T    
C7    O4    S    
C12   C19   T    
C33   C35   S    
O15   Zn2   S    
C25   H3    S    
C20   H1    S    
C3    C11   S    
C33   H25   S    
C3    O11   A    
C7    C13   S    
C20   C21   S    
C13   C16   S    
O1    Zn1   S    
C27   C28   S    
C14   C15   S    
C10   C17   T    
C4    C10   S    
C15   C16   S    
