data_mof_unit_52487.cif
_audit_creation_date              2012-12-10T17:12:02-0500
_audit_creation_method            fapswitch 2.2
_symmetry_space_group_name_H-M    P1
_symmetry_Int_Tables_number       1
_space_group_crystal_system       triclinic
_cell_length_a                    11.693809
_cell_length_b                    13.001854
_cell_length_c                    15.846477
_cell_angle_alpha                 92.419856
_cell_angle_beta                  73.974545
_cell_angle_gamma                 99.737594
_cell_volume                      2282.30096457

loop_
_atom_site_label
_atom_site_type_symbol
_atom_type_description
_atom_site_fract_x
_atom_site_fract_y
_atom_site_fract_z
_atom_type_partial_charge
C1    C     C_R   0.521753 0.701055 0.500095 0.840999
C2    C     C_R   0.477225 0.299217 0.502481 0.837429
C3    C     C_R   0.360198 0.525918 0.086138 -0.034778
C4    C     C_R   0.646533 0.492289 0.913952 -0.037136
C5    C     C_R   0.275733 0.506084 0.038159 -0.272419
C6    C     C_R   0.730536 0.514435 0.962358 -0.269663
C7    C     C_R   0.460068 0.185910 0.512463 -0.231718
C8    C     C_R   0.535380 0.815163 0.501385 -0.225865
C9    C     C_R   0.656097 0.987068 0.501893 0.397707
C10   C     C_R   0.334280 0.014757 0.538847 0.407755
C11   C     C_R   0.648828 0.878604 0.493117 0.305641
C12   C     C_R   0.344162 0.123475 0.534386 0.340432
C13   C     C_R   0.432285 0.861153 0.514529 -0.272397
C14   C     C_R   0.562511 0.139907 0.502841 -0.299855
C15   C     C_R   0.439409 0.969058 0.520296 -0.062076
C16   C     C_R   0.553206 0.032373 0.508354 -0.051230
C17   C     C_R   0.936538 0.587429 0.588657 -0.403371
C18   C     C_R   0.061352 0.408425 0.414341 -0.425224
C19   C     C_R   0.818540 0.582026 0.579214 0.698979
C20   C     C_R   0.180777 0.414375 0.422917 0.712055
C21   C     C_R   0.862007 0.462690 0.461381 -0.061864
C22   C     C_R   0.138255 0.537824 0.538299 -0.051857
C23   C     C_R   0.427139 0.496972 0.668136 0.779227
C24   C     C_R   0.573170 0.504885 0.331939 0.799742
C25   C     C_R   0.981086 0.467958 0.468258 0.023541
C26   C     C_R   0.019081 0.532105 0.531891 0.023370
C27   C     C_R   0.384392 0.495911 0.764446 -0.058360
C28   C     C_R   0.617365 0.511528 0.235927 -0.058014
C29   C     C_R   0.225636 0.481536 0.900271 -0.187534
C30   C     C_R   0.778389 0.537435 0.101400 -0.189878
C31   C     C_R   0.261699 0.481153 0.808890 -0.209330
C32   C     C_R   0.740621 0.533420 0.192819 -0.209850
C33   C     C_R   0.469645 0.510536 0.812490 -0.228017
C34   C     C_R   0.533346 0.497681 0.186907 -0.224176
C35   C     C_R   0.436180 0.499131 0.904045 0.069651
C36   C     C_R   0.568473 0.515001 0.095994 0.076182
C37   C     C_R   0.311970 0.492335 0.947967 0.156079
C38   C     C_R   0.693039 0.525559 0.052808 0.155474
C39   C     C_R   0.522607 0.501925 0.953225 -0.002555
C40   C     C_R   0.483066 0.514041 0.046516 0.001273
Cu1   Cu    Cu3+1 0.386820 0.492450 0.493500 0.983833
Cu2   Cu    Cu3+1 0.613180 0.507550 0.506500 0.979621
H1    H     H_    0.181710 0.510277 0.070338 0.140915
H2    H     H_    0.825254 0.512950 0.930397 0.140820
H3    H     H_    0.962621 0.631602 0.641440 0.141253
H4    H     H_    0.027867 0.357106 0.368053 0.145943
H5    H     H_    0.440847 0.467800 0.220253 0.175328
H6    H     H_    0.561755 0.537298 0.777385 0.198010
H7    H     H_    0.807485 0.543862 0.229374 0.154639
H8    H     H_    0.194220 0.473680 0.773352 0.152164
H9    H     H_    0.130391 0.475511 0.933670 0.128742
H10   H     H_    0.874133 0.547869 0.068640 0.129046
H11   H     H_    0.650894 0.188052 0.488583 0.220915
H12   H     H_    0.346222 0.812503 0.519120 0.212448
H13   H     H_    0.168517 0.587241 0.587156 0.133358
H14   H     H_    0.831604 0.412842 0.412722 0.145214
N1    N     N_R   0.216750 0.481110 0.483710 -0.209343
N2    N     N_R   0.783250 0.518890 0.516290 -0.218236
O1    O     O_R   0.419950 0.645670 0.495380 -0.598017
O2    O     O_R   0.580050 0.354330 0.504620 -0.599304
O3    O     O_R   0.611110 0.658410 0.506370 -0.525879
O4    O     O_R   0.388890 0.341590 0.493630 -0.513701
O5    O     O_R   0.350820 0.490050 0.621260 -0.616854
O6    O     O_R   0.649180 0.509950 0.378740 -0.605125
O7    O     O_R   0.541970 0.502800 0.632250 -0.526015
O8    O     O_R   0.458030 0.497200 0.367750 -0.535699
O9    O     O_3   0.264952 0.354581 0.374258 -0.574902
C41   C     C_3   0.228083 0.286728 0.311157 -0.006464
H15   H     H_    0.311228 0.267251 0.263984 0.167205
H16   H     H_    0.184115 0.325080 0.270094 0.129162
C42   C     C_3   0.153409 0.183993 0.353956 -0.299859
H17   H     H_    0.211817 0.141474 0.379456 0.260367
H18   H     H_    0.077391 0.199199 0.410270 0.224639
C43   C     C_3   0.102896 0.114675 0.288280 -0.913356
H19   H     H_    0.041609 0.154488 0.263493 0.254294
H20   H     H_    0.051014 0.040723 0.321024 0.266604
H21   H     H_    0.177354 0.095947 0.232177 0.254287
O10   O     O_3   0.731677 0.627752 0.639735 -0.594240
C44   C     C_3   0.771113 0.733023 0.657970 0.052851
H22   H     H_    0.703044 0.778419 0.648920 0.196780
H23   H     H_    0.859025 0.768569 0.612908 0.131506
C45   C     C_3   0.773481 0.743185 0.754104 -0.373941
H24   H     H_    0.685739 0.704776 0.797024 0.232038
H25   H     H_    0.845007 0.703383 0.764813 0.221271
C46   C     C_3   0.794972 0.857244 0.781005 -0.933102
H26   H     H_    0.878242 0.900222 0.736147 0.255075
H27   H     H_    0.804359 0.862080 0.848949 0.264259
H28   H     H_    0.716960 0.894402 0.779404 0.256205
C47   C     C_1   0.318450 0.571674 0.171738 0.210858
N3    N     N_1   0.284515 0.608412 0.240043 -0.288443
C48   C     C_1   0.690847 0.447061 0.828558 0.212186
N4    N     N_1   0.726986 0.410882 0.760347 -0.294832
O11   O     O_3   0.240638 0.165410 0.542235 -0.584444
C49   C     C_3   0.200394 0.206491 0.627356 0.095384
H29   H     H_    0.255522 0.283138 0.633666 0.169009
H30   H     H_    0.205842 0.154727 0.679806 0.080143
C50   C     C_3   0.069164 0.220434 0.642078 -0.309295
H31   H     H_    0.057148 0.252300 0.581597 0.231080
H32   H     H_    0.011317 0.142890 0.656117 0.198634
C51   C     C_3   0.029415 0.294381 0.717679 -0.930124
H33   H     H_    0.049499 0.270279 0.777777 0.252634
H34   H     H_    0.931099 0.294248 0.731941 0.279833
H35   H     H_    0.076165 0.374911 0.698562 0.257398
O12   O     O_3   0.751991 0.835296 0.482721 -0.612493
C52   C     C_3   0.811629 0.832484 0.392356 0.095320
H36   H     H_    0.842506 0.913120 0.364957 0.157366
H37   H     H_    0.751010 0.787457 0.355531 0.130222
C53   C     C_3   0.921558 0.778787 0.380600 -0.320325
H38   H     H_    0.983016 0.822796 0.416908 0.229989
H39   H     H_    0.891716 0.698537 0.408245 0.226353
C54   C     C_3   0.990006 0.772377 0.283965 -0.916845
H40   H     H_    0.930547 0.727437 0.246702 0.250577
H41   H     H_    0.068504 0.732252 0.277892 0.277043
H42   H     H_    0.023349 0.851867 0.255185 0.256910
O13   O     O_3   0.763908 0.048493 0.505235 -0.616260
C55   C     C_3   0.779192 0.041997 0.590600 0.082747
H43   H     H_    0.876225 0.041436 0.583362 0.165073
H44   H     H_    0.730078 0.968578 0.626643 0.137007
C56   C     C_3   0.742025 0.136983 0.645666 -0.367399
H45   H     H_    0.809081 0.207619 0.620042 0.230777
H46   H     H_    0.652780 0.150239 0.641126 0.235200
C57   C     C_3   0.731828 0.121423 0.742572 -0.922319
H47   H     H_    0.654661 0.059172 0.771103 0.251470
H48   H     H_    0.715207 0.194627 0.778980 0.278261
H49   H     H_    0.815668 0.099721 0.751183 0.259320
O14   O     O_3   0.221229 0.953324 0.562728 -0.596139
C58   C     C_3   0.187421 0.933376 0.654504 0.047548
H50   H     H_    0.120264 0.983493 0.687462 0.148896
H51   H     H_    0.264130 0.949003 0.685159 0.121124
C59   C     C_3   0.127457 0.819773 0.672817 -0.344211
H52   H     H_    0.044292 0.806462 0.650651 0.218012
H53   H     H_    0.188427 0.766921 0.635799 0.211048
C60   C     C_3   0.096313 0.793055 0.770278 -0.931391
H54   H     H_    0.179640 0.803016 0.792542 0.260487
H55   H     H_    0.051526 0.710470 0.781308 0.248658
H56   H     H_    0.034598 0.844127 0.809851 0.264831

loop_
_geom_bond_atom_site_label_1
_geom_bond_atom_site_label_2
_ccdc_geom_bond_type
C8    C13   A    
C5    C37   A    
C1    C8    S    
Cu1   Cu2   S    
C20   O9    S    
C59   H53   S    
C2    C7    S    
Cu2   N2    S    
C22   N1    A    
C50   H31   S    
C46   H26   S    
C27   C33   A    
C52   H37   S    
O14   C58   S    
C43   H20   S    
C17   C26   A    
C35   C37   A    
C9    C16   A    
C17   H3    S    
C10   C15   A    
C1    O1    A    
C2    O2    A    
C46   H28   S    
C15   C16   A    
C53   H38   S    
C30   C38   A    
C21   C25   A    
C42   C43   S    
C17   C19   A    
C7    C14   A    
C54   H40   S    
C55   H44   S    
C41   H15   S    
C43   H21   S    
Cu2   O7    S    
C6    C38   A    
C11   O12   S    
C23   C27   S    
C18   C20   A    
C24   O8    A    
C4    C48   S    
C23   O5    A    
C5    H1    S    
C28   C34   A    
C24   O6    A    
C6    H2    S    
C18   C25   A    
Cu1   O4    S    
C18   H4    S    
O12   C52   S    
C50   H32   S    
C44   C45   S    
C57   H47   S    
C56   H46   S    
C19   N2    A    
C7    C12   A    
C52   C53   S    
C43   H19   S    
C46   H27   S    
C27   C31   A    
O9    C41   S    
C9    O13   S    
C28   C32   A    
Cu1   O1    S    
C4    C6    A    
Cu2   O2    S    
C48   N4    T    
C42   H18   S    
O10   C44   S    
C49   C50   S    
C25   C26   A    
C51   H35   S    
C19   O10   S    
C35   C39   A    
C58   H51   S    
C60   H56   S    
C4    C39   A    
C36   C40   A    
C51   H34   S    
C54   H41   S    
O11   C49   S    
C49   H30   S    
C9    C11   A    
Cu2   O3    S    
Cu1   O8    S    
C10   C12   A    
C3    C40   A    
C45   H25   S    
C13   C15   A    
C60   H54   S    
C14   C16   A    
C12   O11   S    
C59   C60   S    
Cu1   O5    S    
C31   H8    S    
C57   H48   S    
C58   H50   S    
Cu2   O6    S    
C39   C40   A    
C50   C51   S    
C44   H23   S    
C13   H12   S    
C29   H9    S    
C56   C57   S    
C30   H10   S    
C24   C28   S    
C3    C5    A    
C1    O3    A    
C21   H14   S    
C56   H45   S    
C55   C56   S    
C41   C42   S    
C22   H13   S    
C45   C46   S    
C52   H36   S    
C53   C54   S    
C3    C47   S    
C23   O7    A    
C57   H49   S    
C36   C38   A    
C59   H52   S    
C47   N3    T    
C58   C59   S    
Cu1   N1    S    
C42   H17   S    
C29   C31   A    
C30   C32   A    
O13   C55   S    
C8    C11   A    
C51   H33   S    
C33   C35   A    
C53   H39   S    
C55   H43   S    
C54   H42   S    
C34   C36   A    
C49   H29   S    
C32   H7    S    
C44   H22   S    
C21   N2    A    
C14   H11   S    
C41   H16   S    
C45   H24   S    
C22   C26   A    
C29   C37   A    
C60   H55   S    
C33   H6    S    
C34   H5    S    
C20   N1    A    
C10   O14   S    
C2    O4    A    
