data_mof_unit_39774.cif
_audit_creation_date              2012-12-10T17:51:25-0500
_audit_creation_method            fapswitch 2.2
_symmetry_space_group_name_H-M    P1
_symmetry_Int_Tables_number       1
_space_group_crystal_system       triclinic
_cell_length_a                    9.908213
_cell_length_b                    10.609637
_cell_length_c                    16.660651
_cell_angle_alpha                 92.995438
_cell_angle_beta                  86.240746
_cell_angle_gamma                 93.547517
_cell_volume                      1742.24885784

loop_
_atom_site_label
_atom_site_type_symbol
_atom_type_description
_atom_site_fract_x
_atom_site_fract_y
_atom_site_fract_z
_atom_type_partial_charge
C1    C     C_R   0.505313 0.739898 0.497392 0.847399
C2    C     C_R   0.354318 0.558594 0.783376 -0.195851
C3    C     C_R   0.422067 0.606120 0.147370 -0.151813
C4    C     C_R   0.412577 0.570409 0.226378 -0.119576
C5    C     C_R   0.654339 0.541760 0.219045 -0.228808
C6    C     C_R   0.663824 0.577615 0.139841 -0.171840
C7    C     C_R   0.548021 0.610129 0.103666 0.181362
C8    C     C_2   0.468394 0.690565 0.979537 -0.153577
C9    C     C_2   0.559452 0.631314 0.017594 -0.178585
C10   C     C_R   0.528413 0.537449 0.262603 -0.009421
C11   C     C_R   0.639919 0.878473 0.357564 -0.035140
C12   C     C_R   0.482896 0.508100 0.653440 0.855357
C13   C     C_R   0.644818 0.931228 0.282461 -0.152494
C14   C     C_R   0.574640 0.037480 0.271831 -0.215590
C15   C     C_R   0.510270 0.101720 0.337977 -0.142392
C16   C     C_R   0.518431 0.056206 0.416492 0.042153
C17   C     C_R   0.561965 0.934045 0.423596 0.047601
C18   C     C_R   0.519132 0.873425 0.495556 -0.078583
C19   C     C_R   0.465869 0.939508 0.563522 -0.208716
C20   C     C_R   0.456004 0.067497 0.561532 -0.176383
C21   C     C_R   0.483572 0.125660 0.488917 -0.059553
C22   C     C_R   0.859234 0.674092 0.600873 -0.182071
C23   C     C_R   0.496013 0.259852 0.493883 0.873050
C24   C     C_R   0.928575 0.759347 0.651928 -0.136058
C25   C     C_R   0.067557 0.755880 0.655214 -0.157293
C26   C     C_R   0.138297 0.668864 0.606233 -0.159299
C27   C     C_R   0.071786 0.583755 0.551734 0.170470
C28   C     C_R   0.927456 0.585051 0.550484 0.175826
C29   C     C_R   0.928481 0.419612 0.450737 -0.096848
C30   C     C_R   0.071628 0.420241 0.450405 -0.103796
C31   C     C_R   0.518064 0.506901 0.347104 0.875150
C32   C     C_R   0.477841 0.555034 0.737624 -0.061432
C33   C     C_R   0.594855 0.615969 0.768056 -0.270755
C34   C     C_R   0.590340 0.679990 0.843246 0.002606
C35   C     C_R   0.468222 0.671853 0.891933 0.114896
C36   C     C_R   0.349985 0.615475 0.860581 -0.170982
H1    H     H_    0.689555 0.617536 0.732220 0.187583
H2    H     H_    0.761351 0.578311 0.106328 0.140621
H3    H     H_    0.434821 0.892051 0.618431 0.134327
H4    H     H_    0.701609 0.888615 0.231282 0.156267
H5    H     H_    0.568959 0.067224 0.211067 0.160020
H6    H     H_    0.426012 0.121265 0.616264 0.143453
H7    H     H_    0.874827 0.353963 0.410450 0.152388
H8    H     H_    0.752202 0.679563 0.602722 0.195484
H9    H     H_    0.873747 0.827442 0.689843 0.172909
H10   H     H_    0.314200 0.568269 0.258884 0.163491
H11   H     H_    0.121080 0.820917 0.696022 0.157252
H12   H     H_    0.244443 0.671320 0.613218 0.197587
H13   H     H_    0.125317 0.355498 0.409665 0.204363
H14   H     H_    0.745130 0.517060 0.245932 0.168521
H15   H     H_    0.641418 0.586017 0.982868 0.148828
H16   H     H_    0.255968 0.609040 0.897630 0.149928
H17   H     H_    0.329797 0.625711 0.120380 0.125908
H18   H     H_    0.261949 0.515433 0.760126 0.167393
H19   H     H_    0.382879 0.733279 0.011905 0.143532
N1    N     N_R   0.857140 0.501200 0.500750 -0.114171
N2    N     N_R   0.142740 0.501280 0.500770 -0.123571
O1    O     O_R   0.385310 0.683220 0.500000 -0.625866
O2    O     O_R   0.614640 0.683250 0.500010 -0.638370
O3    O     O_R   0.371780 0.500010 0.615800 -0.637293
O4    O     O_R   0.601110 0.500030 0.615800 -0.625038
O5    O     O_R   0.385360 0.316750 0.499990 -0.571340
O6    O     O_R   0.614690 0.316780 0.500000 -0.612009
O7    O     O_R   0.398890 0.499970 0.384200 -0.595132
O8    O     O_R   0.628220 0.499990 0.384200 -0.626428
Zn1   Zn    Zn3+2 0.346870 0.499980 0.499990 0.970533
Zn2   Zn    Zn3+2 0.653130 0.500020 0.500010 0.947178
C37   C     C_1   0.737941 0.786308 0.366918 0.196797
N3    N     N_1   0.819434 0.714514 0.373378 -0.174989
C38   C     C_2   0.410239 0.193763 0.320457 0.913222
O9    O     O_2   0.303100 0.196389 0.360804 -0.588972
O10   O     O_R   0.429274 0.269205 0.253883 -0.789526
H20   H     H_    0.524484 0.270385 0.227793 0.293164
C39   C     C_2   0.713503 0.753908 0.869944 0.865503
O11   O     O_2   0.825824 0.728171 0.841218 -0.653916
O12   O     O_R   0.701015 0.854129 0.927392 -0.792839
H21   H     H_    0.791806 0.896842 0.940575 0.344195

loop_
_geom_bond_atom_site_label_1
_geom_bond_atom_site_label_2
_ccdc_geom_bond_type
C8    C9    D    
C16   C21   A    
C11   C13   A    
C35   C36   A    
C9    H15   S    
N2    Zn1   S    
C28   N1    A    
C4    H10   S    
C1    C18   S    
C39   O12   S    
C24   H9    S    
C34   C35   A    
C3    C7    A    
C1    O2    A    
C5    C6    A    
C15   C16   A    
C30   N2    A    
C2    C32   A    
C18   C19   A    
C13   H4    S    
O2    Zn2   S    
C10   C31   S    
O1    Zn1   S    
C23   O5    A    
C22   H8    S    
C19   C20   A    
C16   C17   A    
O8    Zn2   S    
C6    H2    S    
C38   O9    D    
C25   H11   S    
C36   H16   S    
C26   H12   S    
C23   O6    A    
O3    Zn1   S    
C22   C28   A    
C13   C14   A    
C12   C32   S    
C8    H19   S    
C33   C34   A    
O6    Zn2   S    
C39   O11   D    
O5    Zn1   S    
O12   H21   S    
C2    H18   S    
C31   O8    A    
C37   N3    T    
C25   C26   A    
C33   H1    S    
C8    C35   S    
O7    Zn1   S    
C29   C30   A    
O4    Zn2   S    
C17   C18   A    
C26   C27   A    
C24   C25   A    
C19   H3    S    
C34   C39   S    
C14   H5    S    
C30   H13   S    
C21   C23   S    
C27   N2    A    
C22   C24   A    
C5    H14   S    
C4    C10   A    
C3    C4    A    
C11   C37   S    
C2    C36   A    
C7    C9    S    
C15   C38   S    
C11   C17   A    
C31   O7    A    
O10   H20   S    
C20   H6    S    
C6    C7    A    
C29   N1    A    
N1    Zn2   S    
C32   C33   A    
C5    C10   A    
C1    O1    A    
C12   O4    A    
C3    H17   S    
C12   O3    A    
C20   C21   A    
C27   C28   A    
C14   C15   A    
C38   O10   S    
C29   H7    S    
