data_mof_unit_28853.cif
_audit_creation_date              2012-12-10T17:51:34-0500
_audit_creation_method            fapswitch 2.2
_symmetry_space_group_name_H-M    P1
_symmetry_Int_Tables_number       1
_space_group_crystal_system       triclinic
_cell_length_a                    9.917055
_cell_length_b                    10.646309
_cell_length_c                    16.785719
_cell_angle_alpha                 91.411846
_cell_angle_beta                  85.38743
_cell_angle_gamma                 89.728747
_cell_volume                      1765.92054842

loop_
_atom_site_label
_atom_site_type_symbol
_atom_type_description
_atom_site_fract_x
_atom_site_fract_y
_atom_site_fract_z
_atom_type_partial_charge
C1    C     C_R   0.499919 0.739380 0.497834 0.854543
C2    C     C_R   0.527372 0.545988 0.264500 -0.024662
C3    C     C_R   0.379605 0.865332 0.368539 -0.168650
C4    C     C_R   0.481409 0.501684 0.653075 0.856851
C5    C     C_R   0.323047 0.928775 0.307503 -0.117176
C6    C     C_R   0.326020 0.059300 0.306509 -0.133174
C7    C     C_R   0.385056 0.126768 0.366717 -0.191446
C8    C     C_R   0.440845 0.063797 0.429880 0.097909
C9    C     C_R   0.438870 0.932146 0.430545 0.097529
C10   C     C_R   0.500205 0.871614 0.492411 -0.091765
C11   C     C_R   0.565722 0.937596 0.550379 -0.207507
C12   C     C_R   0.347324 0.556310 0.780070 -0.208194
C13   C     C_R   0.566603 0.065938 0.550106 -0.196355
C14   C     C_R   0.502393 0.128144 0.491694 -0.105167
C15   C     C_R   0.845300 0.664513 0.604762 -0.159897
C16   C     C_R   0.500672 0.260584 0.497557 0.877193
C17   C     C_R   0.908236 0.745125 0.656435 -0.179220
C18   C     C_R   0.047791 0.744934 0.656386 -0.190095
C19   C     C_R   0.125225 0.664183 0.604623 -0.165696
C20   C     C_R   0.064981 0.580974 0.551548 0.169594
C21   C     C_R   0.920414 0.581006 0.551570 0.170238
C22   C     C_R   0.935650 0.422614 0.450614 -0.114586
C23   C     C_R   0.420507 0.649703 0.159624 -0.211361
C24   C     C_R   0.078733 0.422641 0.450629 -0.113380
C25   C     C_R   0.518375 0.506170 0.347158 0.831711
C26   C     C_R   0.470625 0.518458 0.739479 -0.040871
C27   C     C_R   0.586687 0.506789 0.781189 -0.224852
C28   C     C_R   0.580429 0.535996 0.862168 -0.074926
C29   C     C_R   0.458967 0.579937 0.901675 0.237273
C30   C     C_R   0.341610 0.586475 0.861183 -0.163371
C31   C     C_R   0.411878 0.597309 0.234267 -0.208905
C32   C     C_R   0.652309 0.549207 0.219058 -0.201320
C33   C     C_R   0.659897 0.598171 0.142676 -0.127790
C34   C     C_R   0.543121 0.645698 0.112137 0.142997
C35   C     C_2   0.449192 0.602249 0.987549 -0.338344
C36   C     C_2   0.542570 0.664710 0.026395 0.346044
Cl1   Cl    Cl    0.672646 0.753911 0.977176 -0.643386
H1    H     H_    0.682384 0.475845 0.751256 0.166525
H2    H     H_    0.737960 0.670675 0.608422 0.200787
H3    H     H_    0.848137 0.808183 0.696742 0.164734
H4    H     H_    0.314666 0.599097 0.268681 0.157877
H5    H     H_    0.096564 0.807747 0.696700 0.159477
H6    H     H_    0.231660 0.669583 0.608105 0.203786
H7    H     H_    0.138291 0.359346 0.410303 0.145770
H8    H     H_    0.743132 0.512371 0.241995 0.153781
H9    H     H_    0.246225 0.615843 0.892252 0.145739
H10   H     H_    0.329676 0.687255 0.137003 0.136731
H11   H     H_    0.256338 0.565370 0.749029 0.162817
H12   H     H_    0.754937 0.593031 0.106085 0.163365
H13   H     H_    0.367549 0.553259 0.020683 0.135871
H14   H     H_    0.669838 0.522574 0.894087 0.166160
H15   H     H_    0.613532 0.889511 0.597007 0.144900
H16   H     H_    0.377822 0.764138 0.365959 0.155218
H17   H     H_    0.278073 0.876439 0.260405 0.139682
H18   H     H_    0.283612 0.108414 0.258560 0.140006
H19   H     H_    0.388429 0.227856 0.362325 0.144575
H20   H     H_    0.614680 0.117164 0.596660 0.157493
H21   H     H_    0.887768 0.359344 0.410263 0.147600
N1    N     N_R   0.857140 0.501200 0.500750 -0.120624
N2    N     N_R   0.142740 0.501280 0.500770 -0.120969
O1    O     O_R   0.385310 0.683220 0.500000 -0.642454
O2    O     O_R   0.614640 0.683250 0.500010 -0.626234
O3    O     O_R   0.371780 0.500010 0.615800 -0.631916
O4    O     O_R   0.601110 0.500030 0.615800 -0.637546
O5    O     O_R   0.385360 0.316750 0.499990 -0.610525
O6    O     O_R   0.614690 0.316780 0.500000 -0.609570
O7    O     O_R   0.398890 0.499970 0.384200 -0.635072
O8    O     O_R   0.628220 0.499990 0.384200 -0.610095
Zn1   Zn    Zn3+2 0.346870 0.499980 0.499990 0.930529
Zn2   Zn    Zn3+2 0.653130 0.500020 0.500010 0.941794

loop_
_geom_bond_atom_site_label_1
_geom_bond_atom_site_label_2
_ccdc_geom_bond_type
C22   H21   S    
C4    C26   S    
C21   N1    A    
C6    C7    A    
C3    C9    A    
O4    Zn2   S    
C20   N2    A    
C3    H16   S    
C32   H8    S    
C4    O4    A    
C19   C20   A    
C25   O7    A    
C24   N2    A    
C6    H18   S    
C12   H11   S    
C23   C34   A    
C12   C30   A    
C32   C33   A    
C3    C5    A    
C35   H13   S    
C17   C18   A    
C8    C9    A    
C7    C8    A    
C22   N1    A    
O6    Zn2   S    
C13   C14   A    
C1    O2    A    
C11   C13   A    
C4    O3    A    
C15   H2    S    
C26   C27   A    
C29   C30   A    
C25   O8    A    
N2    Zn1   S    
O5    Zn1   S    
C7    H19   S    
C22   C24   A    
C2    C32   A    
C28   C29   A    
C16   O5    A    
C19   H6    S    
C33   C34   A    
C2    C25   S    
C34   C36   S    
C18   H5    S    
C5    C6    A    
C24   H7    S    
C28   H14   S    
C14   C16   S    
C13   H20   S    
C10   C11   A    
C27   H1    S    
C33   H12   S    
C23   C31   A    
O3    Zn1   S    
C5    H17   S    
C15   C21   A    
C23   H10   S    
C20   C21   A    
O2    Zn2   S    
O8    Zn2   S    
C18   C19   A    
C9    C10   A    
O1    Zn1   S    
C27   C28   A    
C15   C17   A    
C29   C35   S    
C36   Cl1   S    
C16   O6    A    
C8    C14   A    
C11   H15   S    
C31   H4    S    
N1    Zn2   S    
C30   H9    S    
C1    C10   S    
C35   C36   D    
C12   C26   A    
C2    C31   A    
O7    Zn1   S    
C17   H3    S    
C1    O1    A    
