data_mof_unit_42907.cif
_audit_creation_date              2012-12-11T17:01:20-0500
_audit_creation_method            fapswitch 2.2
_symmetry_space_group_name_H-M    P1
_symmetry_Int_Tables_number       1
_space_group_crystal_system       triclinic
_cell_length_a                    19.401736
_cell_length_b                    7.075439
_cell_length_c                    17.636622
_cell_angle_alpha                 90.0
_cell_angle_beta                  108.59052
_cell_angle_gamma                 89.999896
_cell_volume                      2294.75219533

loop_
_atom_site_label
_atom_site_type_symbol
_atom_type_description
_atom_site_fract_x
_atom_site_fract_y
_atom_site_fract_z
_atom_type_partial_charge
O1    O     O_R   0.413720 0.494330 0.415730 -0.540058
O2    O     O_R   0.586280 0.994330 0.584270 -0.540058
O3    O     O_R   0.560210 0.819300 0.430070 -0.546415
O4    O     O_R   0.439790 0.319300 0.569930 -0.546415
C1    C     C_R   0.581906 0.655372 0.415058 0.715432
C2    C     C_R   0.418094 0.155372 0.584942 0.715431
O5    O     O_R   0.412670 0.823730 0.406310 -0.539312
O6    O     O_R   0.587330 0.323730 0.593690 -0.539312
O7    O     O_R   0.437690 0.998790 0.560340 -0.538016
O8    O     O_R   0.562310 0.498790 0.439660 -0.538016
C3    C     C_R   0.385394 0.655048 0.383608 0.706584
C4    C     C_R   0.614605 0.155048 0.616392 0.706584
O9    O     O_3   0.508380 0.662350 0.550560 -0.376523
O10   O     O_3   0.491620 0.162350 0.449440 -0.376523
V1    V     V_3+5 0.498450 0.935370 0.490620 1.397814
V2    V     V_3+5 0.501550 0.435370 0.509380 1.397814
C5    C     C_R   0.739115 0.021429 0.685609 0.119309
C6    C     C_R   0.260884 0.521433 0.314393 0.119306
C7    C     C_R   0.683197 0.147441 0.684140 -0.105237
C8    C     C_R   0.316802 0.647441 0.315860 -0.105239
C9    C     C_R   0.695898 0.275281 0.748086 -0.256516
C10   C     C_R   0.304102 0.775279 0.251912 -0.256508
H1    H     H_    0.654061 0.377301 0.747741 0.120806
H2    H     H_    0.345938 0.877297 0.252257 0.120808
C11   C     C_R   0.759774 0.266388 0.815110 0.017526
C12   C     C_R   0.240225 0.766386 0.184890 0.017525
C13   C     C_R   0.814504 0.127620 0.817879 -0.124120
C14   C     C_R   0.185495 0.627619 0.182122 -0.124123
C15   C     C_R   0.802865 0.012640 0.750133 0.103833
C16   C     C_R   0.197134 0.512644 0.249869 0.103835
C17   C     C_3   0.807892 0.803140 0.742701 -0.366388
C18   C     C_3   0.192105 0.303145 0.257304 -0.366385
C19   C     C_3   0.738006 0.813179 0.672129 -0.412917
C20   C     C_3   0.261992 0.313185 0.327875 -0.412918
H3    H     H_    0.801342 0.726412 0.794878 0.211512
H4    H     H_    0.198654 0.226411 0.205128 0.211524
H5    H     H_    0.855924 0.760542 0.725306 0.212750
H6    H     H_    0.144073 0.260553 0.274701 0.212751
H7    H     H_    0.691226 0.742186 0.683779 0.180180
H8    H     H_    0.308771 0.242186 0.316226 0.180184
H9    H     H_    0.745871 0.776751 0.614122 0.189614
H10   H     H_    0.254126 0.276763 0.385883 0.189613
C21   C     C_R   0.317344 0.299026 0.624306 -0.202668
C22   C     C_R   0.682656 0.799025 0.375694 -0.202665
C23   C     C_R   0.366148 0.149165 0.630838 -0.072068
C24   C     C_R   0.633852 0.649165 0.369163 -0.072069
C25   C     C_R   0.363563 0.994227 0.679114 -0.228443
C26   C     C_R   0.636437 0.494227 0.320885 -0.228444
C27   C     C_R   0.313797 0.990704 0.721969 0.109983
C28   C     C_R   0.686203 0.490704 0.278031 0.109982
C29   C     C_R   0.264347 0.142536 0.715332 0.070476
C30   C     C_R   0.735653 0.642536 0.284668 0.070472
C31   C     C_R   0.265509 0.297600 0.665346 0.023385
C32   C     C_R   0.734491 0.797599 0.334654 0.023388
C33   C     C_R   0.312618 0.836207 0.771031 -0.213273
C34   C     C_R   0.687381 0.336208 0.228968 -0.213274
C35   C     C_R   0.263987 0.831765 0.814354 -0.215713
C36   C     C_R   0.736013 0.331766 0.185646 -0.215721
C37   C     C_R   0.215464 0.981628 0.809469 0.098070
C38   C     C_R   0.784536 0.481629 0.190531 0.098065
C39   C     C_R   0.214175 0.137663 0.758800 0.050718
C40   C     C_R   0.785824 0.637664 0.241199 0.050716
C41   C     C_R   0.163031 0.286307 0.751535 -0.019897
C42   C     C_R   0.836967 0.786311 0.248463 -0.019893
C43   C     C_R   0.159561 0.432084 0.693640 -0.093616
C44   C     C_R   0.840436 0.932092 0.306357 -0.093605
C45   C     C_R   0.212745 0.442112 0.653954 -0.070638
C46   C     C_R   0.787254 0.942113 0.346045 -0.070643
C47   C     C_R   0.169112 0.976323 0.855707 -0.226889
C48   C     C_R   0.830888 0.476324 0.144293 -0.226879
C49   C     C_R   0.121867 0.125870 0.855148 -0.119038
C50   C     C_R   0.878133 0.625871 0.144851 -0.119042
C51   C     C_R   0.117995 0.282016 0.802616 -0.073595
C52   C     C_R   0.882003 0.782019 0.197382 -0.073603
H11   H     H_    0.318958 0.413465 0.584333 0.113154
H12   H     H_    0.681042 0.913464 0.415668 0.113156
H13   H     H_    0.400890 0.877310 0.684052 0.120244
H14   H     H_    0.599110 0.377310 0.315947 0.120244
H15   H     H_    0.349518 0.718406 0.776014 0.126176
H16   H     H_    0.650482 0.218407 0.223985 0.126177
H17   H     H_    0.264559 0.710665 0.852206 0.121336
H18   H     H_    0.735441 0.210666 0.147793 0.121337
H19   H     H_    0.172086 0.857115 0.895313 0.125499
H20   H     H_    0.827914 0.357114 0.104688 0.125504
O11   O     O_R   0.937800 0.775460 0.060470 -0.539110
O12   O     O_R   0.062200 0.275460 0.939530 -0.539105
O13   O     O_R   0.087350 0.441340 0.093710 -0.547377
O14   O     O_R   0.912650 0.941340 0.906290 -0.547381
C53   C     C_R   0.116410 0.610823 0.114262 0.712907
C54   C     C_R   0.883589 0.110823 0.885739 0.712919
O15   O     O_R   0.939820 0.446010 0.069950 -0.541836
O16   O     O_R   0.060180 0.946010 0.930050 -0.541841
O17   O     O_R   0.913690 0.271230 0.915700 -0.494788
O18   O     O_R   0.086310 0.771230 0.084300 -0.494794
C55   C     C_R   0.921672 0.615446 0.088501 0.781774
C56   C     C_R   0.078328 0.115446 0.911499 0.781771
O19   O     O_3   0.991670 0.603050 0.949510 -0.361499
O20   O     O_3   0.008330 0.103050 0.050490 -0.361499
V3    V     V_3+5 0.001550 0.329940 0.009370 1.566825
V4    V     V_3+5 0.998450 0.829940 0.990630 1.566811
C57   C     C_2   0.069435 0.442185 0.804779 0.483679
H21   H     H_    0.091604 0.583605 0.818108 -0.024292
O21   O     O_2   0.004102 0.417521 0.789555 -0.499781
C58   C     C_2   0.930562 0.942190 0.195217 0.483704
H22   H     H_    0.908391 0.083607 0.181881 -0.024295
O22   O     O_2   0.995896 0.917530 0.210447 -0.499776
C59   C     C_2   0.099299 0.571087 0.669433 0.526830
H23   H     H_    0.110957 0.721354 0.676210 0.049414
O23   O     O_2   0.036782 0.518182 0.637815 -0.459420
C60   C     C_2   0.900691 0.071111 0.330557 0.526807
H24   H     H_    0.889026 0.221372 0.323781 0.049411
O24   O     O_2   0.963211 0.018226 0.362172 -0.459420
C61   C     C_2   0.212106 0.601766 0.598320 0.393389
H25   H     H_    0.262136 0.675296 0.602189 0.037997
O25   O     O_2   0.156239 0.648986 0.546465 -0.478958
C62   C     C_2   0.787893 0.101762 0.401681 0.393393
H26   H     H_    0.737864 0.175299 0.397811 0.037993
O26   O     O_2   0.843760 0.148966 0.453540 -0.478950
C63   C     C_2   0.760555 0.389537 0.883362 0.290735
H27   H     H_    0.712188 0.398039 0.901513 0.041310
O27   O     O_2   0.811690 0.492951 0.915741 -0.530870
C64   C     C_2   0.239442 0.889530 0.116636 0.290747
H28   H     H_    0.287802 0.898002 0.098473 0.041301
O28   O     O_2   0.188311 0.992972 0.084270 -0.530869

loop_
_geom_bond_atom_site_label_1
_geom_bond_atom_site_label_2
_ccdc_geom_bond_type
C44   C46   A    
C41   C43   A    
C57   H21   S    
C2    C23   S    
C13   C15   A    
C5    C15   A    
O1    C3    A    
O2    V1    S    
O2    C4    A    
C2    O7    A    
C58   O22   D    
C25   C27   A    
O5    C3    A    
C19   H7    S    
C20   H8    S    
C18   H4    S    
C38   C40   A    
C7    C9    A    
C36   H18   S    
C35   C37   A    
C32   C46   A    
C36   C38   A    
O16   C56   A    
C62   H26   S    
C13   C54   S    
C39   C41   A    
C26   H14   S    
C53   O18   A    
C47   C49   A    
C60   H24   S    
C40   C42   A    
O5    V1    S    
C50   C55   S    
C21   C31   A    
C30   C32   A    
C27   C29   A    
C20   H10   S    
C28   C30   A    
C59   H23   S    
C17   C19   S    
C14   C53   S    
C6    C16   A    
C18   H6    S    
C48   H20   S    
O17   V3    S    
C6    C8    A    
C26   C28   A    
C57   O21   D    
C59   O23   D    
C5    C19   S    
C11   C63   S    
C58   H22   S    
O19   V3    S    
C22   C24   A    
O13   V3    S    
C23   C25   A    
C21   H11   S    
C24   C26   A    
C3    C8    S    
C37   C39   A    
O4    C2    A    
C62   O26   D    
C49   C51   A    
C49   C56   S    
C41   C51   A    
C43   C45   A    
C27   C33   A    
C28   C34   A    
C17   H5    S    
C29   C31   A    
C42   C44   A    
O4    V2    S    
C47   H19   S    
C33   H15   S    
O18   V4    S    
C38   C48   A    
O6    C4    A    
O1    V2    S    
C44   C60   S    
O12   V3    S    
C6    C20   S    
O14   V4    S    
C63   O27   D    
O12   C56   A    
C46   C62   S    
C50   C52   A    
C8    C10   A    
O20   V4    S    
C9    H1    S    
C10   H2    S    
C25   H13   S    
C64   O28   D    
O19   V4    S    
O3    V1    S    
O16   V4    S    
C54   O17   A    
C52   C58   S    
C61   H25   S    
C37   C47   A    
C9    C11   A    
O14   C54   A    
O3    C1    A    
C48   C50   A    
C63   H27   S    
C11   C13   A    
C1    C24   S    
C12   C14   A    
C34   H16   S    
C19   H9    S    
C33   C35   A    
C45   C61   S    
C14   C16   A    
C15   C17   S    
O11   V4    S    
C30   C40   A    
C16   C18   S    
C29   C39   A    
O11   C55   A    
C4    C7    S    
C51   C57   S    
C5    C7    A    
C34   C36   A    
C17   H3    S    
O7    V1    S    
C31   C45   A    
C35   H17   S    
C60   O24   D    
O15   C55   A    
C22   C32   A    
C1    O8    A    
O6    V2    S    
O20   V3    S    
C10   C12   A    
O9    V2    S    
C64   H28   S    
O13   C53   A    
C42   C52   A    
O10   V1    S    
O8    V2    S    
C12   C64   S    
C22   H12   S    
O15   V3    S    
C21   C23   A    
C43   C59   S    
C18   C20   S    
C61   O25   D    
