data_mof_unit_54637.cif
_audit_creation_date              2012-10-26T20:03:20-0400
_audit_creation_method            fapswitch 2.2
_symmetry_space_group_name_H-M    P1
_symmetry_Int_Tables_number       1
_space_group_crystal_system       triclinic
_cell_length_a                    10.625818
_cell_length_b                    12.360338
_cell_length_c                    13.163012
_cell_angle_alpha                 116.614774
_cell_angle_beta                  77.248996
_cell_angle_gamma                 101.426482
_cell_volume                      1497.71494019

loop_
_atom_site_label
_atom_site_type_symbol
_atom_type_description
_atom_site_fract_x
_atom_site_fract_y
_atom_site_fract_z
_atom_type_partial_charge
C1    C     C_R   0.514890 0.854969 0.286170 0.552521
C2    C     C_R   0.511190 0.565981 0.009327 0.016876
C3    C     C_R   0.467302 0.652372 0.121371 -0.031768
C4    C     C_R   0.740316 0.999689 0.499543 0.553062
C5    C     C_R   0.460364 0.441344 0.975508 0.043953
C6    C     C_R   0.358329 0.407277 0.049270 0.050819
C7    C     C_R   0.307496 0.495600 0.153850 -0.130070
C8    C     C_R   0.359972 0.616403 0.188887 -0.114935
C9    C     C_R   0.507557 0.349159 0.870364 -0.127729
C10   C     C_R   0.349005 0.197015 0.908584 -0.136922
C11   C     C_R   0.530851 0.773125 0.162511 0.000246
C12   C     C_3   0.012489 0.904887 0.514823 0.113336
C13   C     C_R   0.710339 0.347622 0.329073 -0.143475
C14   C     C_R   0.324557 0.754305 0.647509 0.263143
C15   C     C_R   0.277666 0.649429 0.664363 -0.100638
C16   C     C_R   0.479341 0.145158 0.713580 0.537034
C17   C     C_R   0.339750 0.545890 0.603309 -0.167098
C18   C     C_R   0.452305 0.545404 0.524227 -0.010828
C19   C     C_R   0.491662 0.651101 0.500538 0.163563
C20   C     C_R   0.526711 0.443464 0.468320 -0.004556
C21   C     C_R   0.635600 0.445725 0.385008 0.034540
C22   C     C_R   0.669911 0.546222 0.358860 -0.170897
C23   C     C_3   0.956466 0.895332 0.413071 -0.098482
C24   C     C_R   0.600397 0.646748 0.415795 -0.095960
C25   C     C_R   0.499642 0.339766 0.493481 0.040766
C26   C     C_R   0.678112 0.248325 0.356934 0.063163
C27   C     C_R   0.259617 0.999628 0.499592 0.544734
C28   C     C_3   0.985712 0.095759 0.482743 -0.120369
C29   C     C_3   0.067742 0.991468 0.397252 -0.131424
C30   C     C_3   0.122568 0.998498 0.499015 0.065491
C31   C     C_3   0.042226 0.102449 0.584544 -0.152172
C32   C     C_3   0.930851 0.006773 0.601259 -0.125344
C33   C     C_3   0.877060 0.999674 0.499085 0.026988
C34   C     C_R   0.305144 0.285308 0.015983 -0.126509
C35   C     C_R   0.449300 0.228948 0.834740 -0.002684
C36   C     C_R   0.622427 0.810985 0.086300 0.367738
C37   C     C_R   0.654987 0.729370 0.973014 -0.097384
C38   C     C_R   0.602545 0.608056 0.935024 -0.186988
Cu1   Cu    Cu3+1 0.529830 0.098270 0.475420 0.964510
Cu2   Cu    Cu3+1 0.470170 0.901730 0.524580 0.922611
F1    F     F_    0.684574 0.925988 0.122003 -0.640701
H1    H     H_    0.126297 0.985762 0.314316 0.121774
H2    H     H_    0.971837 0.174960 0.469454 0.128465
H3    H     H_    0.298924 0.468748 0.622220 0.097690
H4    H     H_    0.195874 0.650471 0.730548 0.126979
H5    H     H_    0.636603 0.719544 0.391019 0.180373
H6    H     H_    0.080132 0.187153 0.654043 0.109515
H7    H     H_    0.872549 0.011170 0.683885 0.118557
H8    H     H_    0.918450 0.809949 0.344292 0.105858
H9    H     H_    0.299362 0.105964 0.881574 0.121795
H10   H     H_    0.226358 0.471277 0.208898 0.111538
H11   H     H_    0.226071 0.259014 0.071272 0.113068
H12   H     H_    0.588174 0.368270 0.812653 0.117251
H13   H     H_    0.344499 0.913604 0.785141 0.245121
H14   H     H_    0.244548 0.912050 0.697646 0.268887
H15   H     H_    0.937788 0.746121 0.527102 0.224733
H16   H     H_    0.046804 0.830924 0.614796 0.235519
H17   H     H_    0.633518 0.550432 0.846188 0.112467
H18   H     H_    0.724885 0.759484 0.914766 0.142426
H19   H     H_    0.312727 0.681470 0.268390 0.158784
H20   H     H_    0.735676 0.172586 0.313807 0.170011
H21   H     H_    0.753255 0.548260 0.294827 0.109897
H22   H     H_    0.793677 0.348029 0.264609 0.101061
H23   H     H_    0.420494 0.331586 0.557512 0.120466
N1    N     N_R   0.575030 0.246270 0.438190 -0.240479
N2    N     N_R   0.425760 0.754330 0.561190 -0.221897
N3    N     N_3   0.273378 0.862888 0.733245 -0.644625
N4    N     N_3   0.027788 0.799370 0.531039 -0.608525
O1    O     O_R   0.537510 0.972500 0.318130 -0.427749
O2    O     O_R   0.487140 0.806530 0.359650 -0.540919
O3    O     O_R   0.708330 0.082950 0.479220 -0.502821
O4    O     O_R   0.657960 0.916980 0.520740 -0.523751
O5    O     O_R   0.512860 0.193470 0.640350 -0.511208
O6    O     O_R   0.462490 0.027500 0.681870 -0.515088
O7    O     O_R   0.342040 0.083020 0.479260 -0.515005
O8    O     O_R   0.291670 0.917050 0.520780 -0.498329

loop_
_geom_bond_atom_site_label_1
_geom_bond_atom_site_label_2
_ccdc_geom_bond_type
C29   H1    S    
Cu1   N1    S    
C1    C11   S    
C7    C8    A    
C12   N4    S    
C12   C23   S    
C37   C38   A    
Cu2   O2    S    
C16   O6    A    
C23   C29   S    
C28   C29   S    
C26   H20   S    
C16   C35   S    
C30   C31   S    
C23   H8    S    
C20   C25   A    
C19   N2    A    
C18   C19   A    
C38   H17   S    
C23   C33   S    
C14   N3    S    
C10   C35   A    
Cu1   O7    S    
Cu2   N2    S    
C21   C22   A    
C12   C32   S    
C27   C30   S    
C32   H7    S    
C36   F1    S    
C27   O7    A    
Cu1   O1    S    
C16   O5    A    
C25   N1    A    
C3    C8    A    
Cu1   Cu2   S    
H13   N3    S    
H15   N4    S    
C1    O1    A    
C6    C34   A    
C25   H23   S    
C11   C36   A    
C5    C9    A    
C29   C30   S    
C22   H21   S    
C2    C38   A    
C31   C32   S    
C13   H22   S    
C17   C18   A    
C14   N2    A    
C13   C21   A    
C10   C34   A    
C37   H18   S    
C28   C33   S    
C22   C24   A    
C13   C26   A    
C2    C5    A    
C9    H12   S    
C15   H4    S    
H16   N4    S    
C27   O8    A    
C10   H9    S    
C4    O4    A    
C15   C17   A    
C4    C33   S    
C36   C37   A    
Cu2   O4    S    
C12   C30   S    
C26   N1    A    
C28   C31   S    
H14   N3    S    
C6    C7    A    
C28   H2    S    
C34   H11   S    
C1    O2    A    
C24   H5    S    
C32   C33   S    
C2    C3    A    
C17   H3    S    
C7    H10   S    
C8    H19   S    
C5    C6    A    
Cu2   O6    S    
C19   C24   A    
C18   C20   A    
Cu1   O5    S    
C3    C11   A    
Cu2   O8    S    
C20   C21   A    
C9    C35   A    
Cu1   O3    S    
C14   C15   A    
C31   H6    S    
C4    O3    A    
