data_mof_unit_68114.cif
_audit_creation_date              2013-03-05T15:58:26-0500
_audit_creation_method            fapswitch 2.2
_symmetry_space_group_name_H-M    P1
_symmetry_Int_Tables_number       1
_space_group_crystal_system       triclinic
_cell_length_a                    7.219012
_cell_length_b                    15.428298
_cell_length_c                    15.284937
_cell_angle_alpha                 89.999351
_cell_angle_beta                  90.000037
_cell_angle_gamma                 90.004206
_cell_volume                      1702.39146907

loop_
_atom_site_label
_atom_site_type_symbol
_atom_site_description
_atom_site_fract_x
_atom_site_fract_y
_atom_site_fract_z
_atom_type_partial_charge
O1    O     O_R   0.388780 0.834790 0.412340 -0.594666
O2    O     O_R   0.111220 0.165210 0.912340 -0.594607
O3    O     O_R   0.888780 0.665210 0.587660 -0.594587
O4    O     O_R   0.611220 0.334790 0.087660 -0.594550
O5    O     O_R   0.059040 0.845930 0.587040 -0.588936
O6    O     O_R   0.440960 0.154070 0.087040 -0.588946
O7    O     O_R   0.559040 0.654070 0.412960 -0.588953
O8    O     O_R   0.940960 0.345930 0.912960 -0.588964
C1    C     C_R   0.229395 0.867925 0.615047 0.867420
C2    C     C_R   0.270604 0.132078 0.115051 0.867356
C3    C     C_R   0.729390 0.632073 0.384954 0.867232
C4    C     C_R   0.770609 0.367924 0.884951 0.867172
O9    O     O_R   0.059070 0.845930 0.412970 -0.589542
O10   O     O_R   0.440930 0.154070 0.912970 -0.589569
O11   O     O_R   0.559070 0.654070 0.587030 -0.589599
O12   O     O_R   0.940930 0.345930 0.087030 -0.589622
O13   O     O_R   0.888760 0.665210 0.412340 -0.605368
O14   O     O_R   0.611240 0.334790 0.912340 -0.605351
O15   O     O_R   0.388760 0.834790 0.587660 -0.605400
O16   O     O_R   0.111240 0.165210 0.087660 -0.605363
C5    C     C_R   0.228131 0.867119 0.383358 0.893770
C6    C     C_R   0.271869 0.132882 0.883356 0.893710
C7    C     C_R   0.728124 0.632879 0.616640 0.893654
C8    C     C_R   0.771876 0.367120 0.116641 0.893589
O17   O     O_3   0.222280 0.690700 0.500000 -0.285844
O18   O     O_3   0.277720 0.309300 0.000000 -0.285809
O19   O     O_3   0.722280 0.809300 0.500000 -0.285922
O20   O     O_3   0.777720 0.190700 0.000000 -0.285855
V1    V     V_3+5 0.947430 0.761000 0.500000 1.137215
V2    V     V_3+5 0.552570 0.239000 0.000000 1.137220
V3    V     V_3+5 0.447430 0.739000 0.500000 1.137149
V4    V     V_3+5 0.052570 0.261000 0.000000 1.137161
C9    C     C_3   0.835929 0.595606 0.774975 0.530819
C10   C     C_3   0.664076 0.404389 0.274980 0.530841
C11   C     C_3   0.335951 0.904401 0.225023 0.530767
C12   C     C_3   0.164044 0.095601 0.725020 0.530788
H1    H     H_    0.966339 0.628521 0.757587 -0.013490
H2    H     H_    0.533667 0.371474 0.257591 -0.013506
H3    H     H_    0.466368 0.871499 0.242410 -0.013508
H4    H     H_    0.033628 0.128503 0.742409 -0.013528
C13   C     C_3   0.880886 0.515282 0.835337 -0.562187
C14   C     C_3   0.619120 0.484711 0.335344 -0.562174
C15   C     C_3   0.380893 0.984731 0.164662 -0.562063
C16   C     C_3   0.119101 0.015273 0.664658 -0.562047
H5    H     H_    0.868599 0.528398 0.906295 0.133004
H6    H     H_    0.631419 0.471593 0.406301 0.133012
H7    H     H_    0.368609 0.971614 0.093704 0.133019
H8    H     H_    0.131386 0.028393 0.593701 0.133025
H9    H     H_    0.028632 0.496930 0.825671 0.147321
H10   H     H_    0.471370 0.503060 0.325683 0.147323
H11   H     H_    0.528637 0.003096 0.174325 0.147301
H12   H     H_    0.971357 0.996908 0.674321 0.147298
H13   H     H_    0.953776 0.367574 0.734497 0.135531
H14   H     H_    0.546187 0.632410 0.234508 0.135520
H15   H     H_    0.453760 0.132448 0.265504 0.135555
H16   H     H_    0.046215 0.867566 0.765497 0.135547
C17   C     C_3   0.843336 0.478113 0.654528 -0.059155
C18   C     C_3   0.656659 0.521887 0.154533 -0.059164
C19   C     C_3   0.343363 0.021886 0.345469 -0.059060
C20   C     C_3   0.156649 0.978112 0.845467 -0.059055
C21   C     C_3   0.541334 0.532872 0.718306 -0.360369
C22   C     C_3   0.958664 0.467129 0.218308 -0.360408
C23   C     C_3   0.041348 0.967110 0.281688 -0.360230
C24   C     C_3   0.458651 0.032893 0.781681 -0.360260
C25   C     C_3   0.739491 0.562131 0.688903 -0.095901
C26   C     C_3   0.760509 0.437867 0.188906 -0.095867
C27   C     C_3   0.239510 0.937865 0.311094 -0.096051
C28   C     C_3   0.260493 0.062136 0.811090 -0.096024
H17   H     H_    0.471037 0.498529 0.663835 0.140990
H18   H     H_    0.028956 0.501473 0.163835 0.140991
H19   H     H_    0.971048 0.001445 0.336159 0.140984
H20   H     H_    0.528955 0.998556 0.836152 0.140987
H21   H     H_    0.452420 0.589742 0.733932 0.202991
H22   H     H_    0.047580 0.410260 0.233936 0.202993
H23   H     H_    0.952438 0.910234 0.266059 0.202985
H24   H     H_    0.547558 0.089769 0.766050 0.202988
C29   C     C_3   0.754928 0.437404 0.812737 0.006252
C30   C     C_3   0.745066 0.562593 0.312741 0.006247
C31   C     C_3   0.254926 0.062598 0.187264 0.006203
C32   C     C_3   0.245068 0.937405 0.687260 0.006201
C33   C     C_3   0.819378 0.400857 0.722760 0.011494
C34   C     C_3   0.680597 0.599139 0.222767 0.011489
C35   C     C_3   0.319374 0.099146 0.277244 0.011426
C36   C     C_3   0.180613 0.900856 0.777238 0.011413
C37   C     C_3   0.552898 0.473564 0.800615 -0.360599
C38   C     C_3   0.947100 0.526439 0.300615 -0.360579
C39   C     C_3   0.052903 0.026422 0.199380 -0.360626
C40   C     C_3   0.447092 0.973579 0.699376 -0.360611
H25   H     H_    0.513809 0.512208 0.858892 0.185989
H26   H     H_    0.986203 0.487800 0.358894 0.185991
H27   H     H_    0.013819 0.987783 0.141097 0.185996
H28   H     H_    0.486177 0.012215 0.641088 0.185994
H29   H     H_    0.448102 0.421138 0.794809 0.156600
H30   H     H_    0.051883 0.578870 0.294801 0.156595
H31   H     H_    0.948106 0.078840 0.205191 0.156563
H32   H     H_    0.551883 0.921159 0.705190 0.156553
H33   H     H_    0.773268 0.459251 0.592455 0.135109
H34   H     H_    0.726730 0.540757 0.092463 0.135126
H35   H     H_    0.273307 0.040731 0.407549 0.135078
H36   H     H_    0.226720 0.959259 0.907540 0.135114
C41   C     C_3   0.680022 0.331244 0.689589 -0.335358
C42   C     C_3   0.773794 0.260610 0.638059 -1.000428
H37   H     H_    0.850053 0.288966 0.582388 0.277860
H38   H     H_    0.870150 0.227322 0.682351 0.266764
H39   H     H_    0.670550 0.212624 0.614853 0.281644
H40   H     H_    0.607721 0.298476 0.744525 0.217443
H41   H     H_    0.572433 0.361730 0.648697 0.201506
C43   C     C_3   0.819925 0.668764 0.189596 -0.335370
C44   C     C_3   0.726126 0.739380 0.138050 -1.000409
H42   H     H_    0.649915 0.711009 0.082373 0.277862
H43   H     H_    0.629713 0.772653 0.182326 0.266782
H44   H     H_    0.829350 0.787382 0.114855 0.281625
H45   H     H_    0.892194 0.701547 0.244533 0.217432
H46   H     H_    0.927542 0.638284 0.148717 0.201523
C45   C     C_3   0.180018 0.168743 0.310425 -0.335367
C46   C     C_3   0.273798 0.239383 0.361956 -1.000365
H47   H     H_    0.350061 0.211031 0.417625 0.277848
H48   H     H_    0.370157 0.272679 0.317667 0.266754
H49   H     H_    0.170558 0.287364 0.385163 0.281620
H50   H     H_    0.107705 0.201508 0.255493 0.217445
H51   H     H_    0.072442 0.138245 0.351321 0.201481
C47   C     C_3   0.319952 0.831249 0.810415 -0.335370
C48   C     C_3   0.226156 0.760621 0.861956 -1.000364
H52   H     H_    0.149943 0.788980 0.917636 0.277856
H53   H     H_    0.129744 0.727341 0.817681 0.266771
H54   H     H_    0.329381 0.712624 0.885146 0.281605
H55   H     H_    0.392237 0.798476 0.755480 0.217434
H56   H     H_    0.427552 0.861741 0.851301 0.201495
O21   O     O_3   0.716849 0.657267 0.815779 -0.640660
C49   C     C_3   0.778521 0.682348 0.899850 0.286998
H57   H     H_    0.928425 0.671271 0.910870 0.093568
H58   H     H_    0.702817 0.644176 0.949631 0.096300
C50   C     C_3   0.737391 0.777131 0.914778 -0.983680
H59   H     H_    0.596949 0.784881 0.942614 0.247366
H60   H     H_    0.836459 0.802865 0.962986 0.232499
H61   H     H_    0.750262 0.813347 0.852557 0.273678
O22   O     O_3   0.783151 0.342726 0.315788 -0.640653
C51   C     C_3   0.721440 0.317634 0.399851 0.287015
H62   H     H_    0.571532 0.328707 0.410856 0.093553
H63   H     H_    0.797108 0.355803 0.449644 0.096267
C52   C     C_3   0.762581 0.222851 0.414783 -0.983633
H64   H     H_    0.903033 0.215107 0.442617 0.247342
H65   H     H_    0.663523 0.197113 0.463000 0.232527
H66   H     H_    0.749705 0.186634 0.352561 0.273686
O23   O     O_3   0.216876 0.842733 0.184218 -0.640647
C53   C     C_3   0.278570 0.817654 0.100153 0.287045
H67   H     H_    0.428478 0.828732 0.089142 0.093543
H68   H     H_    0.202910 0.855824 0.050366 0.096242
C54   C     C_3   0.237398 0.722877 0.085219 -0.983697
H69   H     H_    0.096940 0.715132 0.057396 0.247395
H70   H     H_    0.336437 0.697159 0.036996 0.232386
H71   H     H_    0.250288 0.686655 0.147434 0.273632
O24   O     O_3   0.283110 0.157270 0.684207 -0.640643
C55   C     C_3   0.221360 0.182364 0.600155 0.287058
H72   H     H_    0.071445 0.171292 0.589166 0.093526
H73   H     H_    0.296968 0.144196 0.550350 0.096189
C56   C     C_3   0.262551 0.277140 0.585219 -0.983611
H74   H     H_    0.403014 0.284877 0.557391 0.247373
H75   H     H_    0.163512 0.302868 0.536994 0.232411
H76   H     H_    0.249678 0.313360 0.647438 0.273629
C57   C     C_3   0.053038 0.494478 0.632592 -0.343523
C58   C     C_3   0.094482 0.490010 0.534868 -0.888777
H77   H     H_    0.023765 0.543365 0.500440 0.286977
H78   H     H_    0.246055 0.495683 0.523426 0.254972
H79   H     H_    0.044780 0.428466 0.506707 0.228656
H80   H     H_    0.102979 0.558103 0.655706 0.203324
H81   H     H_    0.144900 0.447717 0.665828 0.174819
C59   C     C_3   0.446967 0.505518 0.132585 -0.343675
C60   C     C_3   0.405582 0.509940 0.034854 -0.888486
H82   H     H_    0.476661 0.456679 0.000438 0.286827
H83   H     H_    0.254043 0.504067 0.023383 0.255048
H84   H     H_    0.454957 0.571553 0.006703 0.228611
H85   H     H_    0.397012 0.441904 0.155726 0.203323
H86   H     H_    0.355094 0.552298 0.165783 0.174860
C61   C     C_3   0.553086 0.005540 0.367379 -0.343182
C62   C     C_3   0.594676 0.010139 0.465085 -0.889302
H87   H     H_    0.524812 0.956557 0.499552 0.287296
H88   H     H_    0.746347 0.004951 0.476447 0.254750
H89   H     H_    0.544214 0.071536 0.493267 0.228726
H90   H     H_    0.602989 0.941884 0.344336 0.203316
H91   H     H_    0.644925 0.052253 0.334047 0.174721
C63   C     C_3   0.946939 0.994460 0.867396 -0.343310
C64   C     C_3   0.905426 0.989914 0.965108 -0.889373
H92   H     H_    0.975707 0.043368 0.999561 0.287160
H93   H     H_    0.753834 0.995340 0.976503 0.254914
H94   H     H_    0.955470 0.928449 0.993276 0.228739
H95   H     H_    0.897018 0.058101 0.844324 0.203332
H96   H     H_    0.855085 0.947726 0.834110 0.174783

loop_
_geom_bond_atom_site_label_1
_geom_bond_atom_site_label_2
_geom_bond_distance
_ccdc_geom_bond_type
C41   H41   1.102349 S    
C40   H32   1.111015 S    
O1    C5    1.337928 A    
C41   C42   1.505429 S    
C45   H51   1.102353 S    
C39   H27   1.108429 S    
O19   V1    1.788093 S    
C19   H35   1.113870 S    
C60   H82   1.102404 S    
O3    C7    1.337914 A    
C51   H62   1.108440 S    
C10   C14   1.578735 S    
C45   H50   1.110434 S    
C32   C36   1.557529 S    
O15   V3    2.039342 S    
C10   C26   1.575514 S    
C31   C39   1.572465 S    
C57   C58   1.524931 S    
C9    C25   1.575497 S    
C48   H52   1.103846 S    
C33   C41   1.556433 S    
C46   H47   1.103841 S    
C59   H86   1.103783 S    
C22   C38   1.557897 S    
C56   H74   1.106049 S    
C24   C28   1.565912 S    
H13   C33   1.112325 S    
C19   C35   1.593198 S    
C53   H67   1.108437 S    
C19   C61   1.570987 S    
C54   H70   1.100883 S    
C13   C29   1.545848 S    
O4    C8    1.337922 A    
C48   H53   1.098170 S    
C15   C31   1.545869 S    
C45   C46   1.505453 S    
C58   H79   1.102524 S    
O1    V3    2.039290 S    
O13   V1    2.039298 S    
C43   C44   1.505432 S    
C22   H18   1.109708 S    
C42   H39   1.108766 S    
O2    V4    2.039314 S    
C11   O23   1.425849 S    
C43   H46   1.102347 S    
C47   H55   1.110434 S    
O3    V1    2.039246 S    
C63   C64   1.524903 S    
C58   H77   1.102359 S    
C38   H30   1.111014 S    
C44   H43   1.098185 S    
C19   C27   1.586950 S    
C37   H29   1.111009 S    
C18   C26   1.586996 S    
C62   H89   1.102543 S    
C3    O13   1.326705 A    
C40   H28   1.108439 S    
C2    O16   1.326723 A    
C39   H31   1.111013 S    
O2    C6    1.337940 A    
C50   H61   1.106934 S    
C49   H58   1.106530 S    
O14   V2    2.039275 S    
C34   C43   1.556425 S    
C11   C15   1.578730 S    
C53   H68   1.106470 S    
C57   H80   1.103800 S    
C8    C26   1.555059 S    
C61   H91   1.103832 S    
C16   H12   1.113383 S    
O11   C7    1.342074 A    
C29   C37   1.572512 S    
C56   H75   1.100949 S    
C5    C27   1.555035 S    
C60   H83   1.111615 S    
O10   V2    2.033697 S    
C13   H9    1.113385 S    
C1    O15   1.326734 A    
C12   O24   1.425853 S    
H16   C36   1.112324 S    
C58   H78   1.111540 S    
C20   C63   1.570956 S    
C59   H85   1.103796 S    
C23   C27   1.565919 S    
O7    V3    2.033788 S    
C22   C26   1.565876 S    
O8    V4    2.033767 S    
C35   C45   1.556422 S    
C16   C32   1.545869 S    
C55   C56   1.509507 S    
C38   H26   1.108420 S    
C54   H71   1.106930 S    
C37   H25   1.108412 S    
O18   V4    1.787993 S    
C48   H54   1.108763 S    
C21   H21   1.113087 S    
C52   H66   1.106966 S    
C9    H1    1.102155 S    
C52   H65   1.100987 S    
C43   H45   1.110431 S    
C11   H3    1.102168 S    
C64   H92   1.102179 S    
O5    C1    1.345640 A    
C3    C30   1.542809 S    
C53   C54   1.509489 S    
C30   C34   1.557509 S    
O7    C3    1.345660 A    
C61   C62   1.524957 S    
C12   H4    1.102169 S    
O8    C4    1.345666 A    
C17   H33   1.113875 S    
C4    C29   1.542802 S    
C24   H24   1.113085 S    
O9    C5    1.342080 A    
C63   H96   1.103794 S    
C42   H38   1.098182 S    
C6    C28   1.555065 S    
C55   H72   1.108426 S    
C57   H81   1.103797 S    
C21   C37   1.557892 S    
C14   H10   1.113388 S    
C62   H87   1.102376 S    
O6    V2    2.033691 S    
C23   H19   1.109700 S    
C14   C30   1.545851 S    
C56   H76   1.106960 S    
C52   H64   1.106046 S    
C14   H6    1.106873 S    
C50   H59   1.106000 S    
C60   H84   1.102604 S    
C17   C33   1.593174 S    
C44   H44   1.108773 S    
C49   C50   1.509548 S    
O9    V1    2.033678 S    
H15   C35   1.112321 S    
O5    V1    2.033709 S    
O23   C53   1.413916 S    
H14   C34   1.112331 S    
C18   C59   1.570910 S    
O21   C49   1.413932 S    
O16   V4    2.039320 S    
C9    O21   1.425871 S    
C41   H40   1.110428 S    
C59   C60   1.524922 S    
C24   C40   1.557900 S    
C23   C39   1.557892 S    
C10   H2    1.102153 S    
C36   C47   1.556417 S    
C55   H73   1.106451 S    
O17   V3    1.787994 S    
C17   C25   1.586978 S    
C20   H36   1.113866 S    
C51   C52   1.509566 S    
O6    C2    1.345647 A    
C2    C31   1.542784 S    
C12   C28   1.575484 S    
O11   V3    2.033753 S    
C61   H90   1.103815 S    
C51   H63   1.106514 S    
C18   H34   1.113875 S    
O12   V4    2.033772 S    
O22   C51   1.413951 S    
C10   O22   1.425881 S    
C46   H49   1.108765 S    
C64   H94   1.102369 S    
C21   H17   1.109703 S    
C7    C25   1.555032 S    
C18   C34   1.593159 S    
C49   H57   1.108453 S    
C47   C48   1.505451 S    
C9    C13   1.578731 S    
C32   C40   1.572458 S    
C54   H69   1.106003 S    
C31   C35   1.557543 S    
C20   C36   1.593185 S    
O10   C6    1.342080 A    
C23   H23   1.113087 S    
C15   H11   1.113383 S    
O20   V2    1.788093 S    
C46   H48   1.098171 S    
C63   H95   1.103795 S    
C24   H20   1.109706 S    
C47   H56   1.102355 S    
C42   H37   1.103847 S    
C29   C33   1.557521 S    
C12   C16   1.578730 S    
C11   C27   1.575469 S    
C21   C25   1.565883 S    
C17   C57   1.570932 S    
C20   C28   1.586960 S    
C64   H93   1.111285 S    
O12   C8    1.342079 A    
C30   C38   1.572505 S    
C4    O14   1.326695 A    
C50   H60   1.100915 S    
C13   H5    1.106872 S    
C22   H22   1.113087 S    
O24   C55   1.413923 S    
C44   H42   1.103851 S    
C15   H7    1.106870 S    
C1    C32   1.542791 S    
O4    V2    2.039266 S    
C16   H8    1.106870 S    
C62   H88   1.111498 S    
