data_mof_unit_58895.cif
_audit_creation_date              2013-03-05T15:44:59-0500
_audit_creation_method            fapswitch 2.2
_symmetry_space_group_name_H-M    P1
_symmetry_Int_Tables_number       1
_space_group_crystal_system       triclinic
_cell_length_a                    17.532545
_cell_length_b                    24.776112
_cell_length_c                    15.238934
_cell_angle_alpha                 90.00136
_cell_angle_beta                  126.484405
_cell_angle_gamma                 89.998912
_cell_volume                      5322.29414617

loop_
_atom_site_label
_atom_site_type_symbol
_atom_site_description
_atom_site_fract_x
_atom_site_fract_y
_atom_site_fract_z
_atom_type_partial_charge
C1    C     C_R   0.327492 0.359713 0.907685 0.309222
C2    C     C_R   0.654384 0.350857 0.091920 0.299856
C3    C     C_R   0.845666 0.850835 0.908082 0.299206
C4    C     C_R   0.172603 0.859777 0.092309 0.309116
N1    N     N_R   0.395440 0.396300 0.944370 -0.120788
N2    N     N_R   0.604560 0.396300 0.055630 -0.114307
N3    N     N_R   0.895440 0.896300 0.944370 -0.114311
N4    N     N_R   0.104560 0.896300 0.055630 -0.120832
C5    C     C_R   0.404147 0.630575 0.085841 -0.106763
C6    C     C_R   0.592017 0.631755 0.911288 -0.063219
C7    C     C_R   0.907966 0.131728 0.088722 -0.063145
C8    C     C_R   0.095888 0.130539 0.914161 -0.106663
H1    H     H_    0.432943 0.644520 0.166760 0.176175
H2    H     H_    0.564348 0.641557 0.828497 0.177789
H3    H     H_    0.935653 0.141546 0.171512 0.177869
H4    H     H_    0.067115 0.144467 0.833240 0.176107
N5    N     N_R   0.449890 0.602500 0.055780 -0.050851
N6    N     N_R   0.550110 0.602500 0.944220 -0.049760
N7    N     N_R   0.949890 0.102500 0.055780 -0.049797
N8    N     N_R   0.050110 0.102500 0.944220 -0.050821
C9    C     C_R   0.498655 0.454250 0.266339 -0.083418
C10   C     C_R   0.462828 0.454346 0.704356 -0.119809
C11   C     C_R   0.037061 0.954342 0.295575 -0.119345
C12   C     C_R   0.001249 0.954247 0.733570 -0.083352
H5    H     H_    0.496198 0.413427 0.287490 0.189595
H6    H     H_    0.448392 0.413878 0.673603 0.197347
H7    H     H_    0.051397 0.913865 0.326278 0.197258
H8    H     H_    0.003645 0.913425 0.712364 0.189638
N9    N     N_R   0.525090 0.470990 0.205640 -0.059533
N10   N     N_R   0.474910 0.470990 0.794360 -0.062059
N11   N     N_R   0.025090 0.970990 0.205640 -0.062098
N12   N     N_R   0.974910 0.970990 0.794360 -0.059539
C13   C     C_R   0.240249 0.544974 0.702136 -0.101641
C14   C     C_R   0.769047 0.544391 0.253208 -0.090945
C15   C     C_R   0.730951 0.044392 0.746776 -0.090829
C16   C     C_R   0.259732 0.044977 0.297881 -0.101659
H9    H     H_    0.226368 0.586110 0.672772 0.145732
H10   H     H_    0.794758 0.585135 0.274211 0.115692
H11   H     H_    0.705242 0.085137 0.725765 0.115648
H12   H     H_    0.273603 0.086115 0.327239 0.145737
N13   N     N_R   0.320240 0.527820 0.794510 -0.055628
N14   N     N_R   0.679760 0.527820 0.205490 -0.050335
N15   N     N_R   0.820240 0.027820 0.794510 -0.050324
N16   N     N_R   0.179760 0.027820 0.205490 -0.055634
C17   C     C_R   0.507531 0.544870 0.274505 0.292619
C18   C     C_R   0.461877 0.544564 0.703636 0.323243
C19   C     C_R   0.038067 0.044564 0.296331 0.323303
C20   C     C_R   0.992398 0.044869 0.725438 0.292581
N17   N     N_R   0.524580 0.527810 0.205160 -0.090427
N18   N     N_R   0.475420 0.527810 0.794840 -0.095895
N19   N     N_R   0.024580 0.027810 0.205160 -0.095896
N20   N     N_R   0.975420 0.027810 0.794840 -0.090445
C21   C     C_R   0.241186 0.454925 0.700483 -0.057723
C22   C     C_R   0.767182 0.454512 0.244686 0.001539
C23   C     C_R   0.732816 0.954513 0.755307 0.001054
C24   C     C_R   0.258789 0.954930 0.299550 -0.057636
H13   H     H_    0.227170 0.414648 0.668496 0.173648
H14   H     H_    0.789313 0.413729 0.248693 0.139252
H15   H     H_    0.710685 0.913732 0.751302 0.139167
H16   H     H_    0.272773 0.914660 0.331558 0.173645
N21   N     N_R   0.320750 0.470990 0.794990 -0.062732
N22   N     N_R   0.679250 0.470990 0.205010 -0.047810
N23   N     N_R   0.820750 0.970990 0.794990 -0.047734
N24   N     N_R   0.179250 0.970990 0.205010 -0.062784
C25   C     C_R   0.313416 0.628404 0.902748 -0.089874
C26   C     C_R   0.677322 0.636615 0.093830 -0.117951
C27   C     C_R   0.822639 0.136588 0.906184 -0.117849
C28   C     C_R   0.186613 0.128371 0.097251 -0.089925
H17   H     H_    0.260794 0.638612 0.817963 0.126022
H18   H     H_    0.722243 0.653507 0.174959 0.134220
H19   H     H_    0.777723 0.153503 0.825075 0.134303
H20   H     H_    0.239253 0.138569 0.182037 0.126006
N25   N     N_R   0.393580 0.602500 0.942610 -0.046386
N26   N     N_R   0.606420 0.602500 0.057390 -0.049586
N27   N     N_R   0.893580 0.102500 0.942610 -0.049596
N28   N     N_R   0.106420 0.102500 0.057390 -0.046393
C29   C     C_R   0.422833 0.356379 0.090022 0.303113
C30   C     C_R   0.566133 0.350955 0.910412 0.351096
C31   C     C_R   0.934031 0.850900 0.089588 0.351594
C32   C     C_R   0.077241 0.856422 0.909973 0.303048
N29   N     N_R   0.451750 0.396300 0.057540 -0.101860
N30   N     N_R   0.548250 0.396300 0.942460 -0.096983
N31   N     N_R   0.951750 0.896300 0.057540 -0.096991
N32   N     N_R   0.048250 0.896300 0.942460 -0.101839
C33   C     C_R   0.341868 0.335601 0.997279 -0.132437
C34   C     C_R   0.632969 0.323211 0.002741 -0.174377
C35   C     C_R   0.867230 0.823134 0.997275 -0.174805
C36   C     C_R   0.158267 0.835690 0.002714 -0.132201
C37   C     C_R   0.318554 0.646237 0.991209 0.033520
C38   C     C_R   0.672684 0.651784 0.004506 0.027809
C39   C     C_R   0.827262 0.151727 0.995515 0.027467
C40   C     C_R   0.181498 0.146183 0.008792 0.033508
C41   C     C_R   0.484594 0.499551 0.306922 -0.141240
C42   C     C_R   0.455726 0.499208 0.647907 -0.140203
C43   C     C_R   0.044136 0.999205 0.352004 -0.140297
C44   C     C_R   0.015277 0.999548 0.692966 -0.141280
C45   C     C_R   0.189995 0.500200 0.642124 0.083391
C46   C     C_R   0.823584 0.499633 0.272847 0.064944
C47   C     C_R   0.676414 0.999635 0.727139 0.064964
C48   C     C_R   0.309972 0.000206 0.357914 0.083332
Ni1   Ni    Ni4+2 0.435420 0.434250 0.870220 0.276431
Ni2   Ni    Ni4+2 0.564580 0.434250 0.129780 0.310755
Ni3   Ni    Ni4+2 0.935420 0.934250 0.870220 0.310736
Ni4   Ni    Ni4+2 0.064580 0.934250 0.129780 0.276394
Ni5   Ni    Ni4+2 0.563400 0.564580 0.128670 0.294155
Ni6   Ni    Ni4+2 0.436600 0.564580 0.871330 0.283593
Ni7   Ni    Ni4+2 0.063400 0.064580 0.128670 0.283548
Ni8   Ni    Ni4+2 0.936600 0.064580 0.871330 0.294186
C49   C     C_2   0.978345 0.457253 0.363362 -0.041756
C50   C     C_2   0.076593 0.460923 0.461294 -0.095298
C51   C     C_2   0.423392 0.960927 0.538738 -0.095047
C52   C     C_2   0.521652 0.957258 0.636647 -0.042146
C53   C     C_2   0.924078 0.501402 0.320381 -0.170760
C54   C     C_2   0.103988 0.502016 0.531592 -0.170503
C55   C     C_2   0.395966 0.002029 0.468456 -0.170434
C56   C     C_2   0.575923 0.001407 0.679619 -0.171137
H21   H     H_    0.947465 0.417181 0.341356 0.155525
H22   H     H_    0.121147 0.425566 0.483725 0.155919
H23   H     H_    0.378859 0.925561 0.516299 0.155861
H24   H     H_    0.552533 0.917186 0.658638 0.155478
H25   H     H_    0.955960 0.541161 0.336858 0.141704
H26   H     H_    0.059637 0.537135 0.512022 0.146532
H27   H     H_    0.440294 0.037159 0.488033 0.146528
H28   H     H_    0.544048 0.041166 0.663163 0.141743
C57   C     C_R   0.275961 0.738708 0.937974 -0.250224
C58   C     C_R   0.707553 0.745605 0.028225 -0.240835
C59   C     C_R   0.793447 0.245666 0.973117 -0.240662
C60   C     C_R   0.224149 0.238647 0.062028 -0.250148
H29   H     H_    0.310591 0.737107 0.898172 0.179992
H30   H     H_    0.657453 0.751162 0.047251 0.182012
H31   H     H_    0.844157 0.251208 0.955005 0.182331
H32   H     H_    0.189507 0.237066 0.101817 0.179993
C61   C     C_R   0.749125 0.289500 0.979437 0.370975
C62   C     C_R   0.256197 0.287384 0.052495 0.391084
C63   C     C_R   0.243934 0.787455 0.947504 0.391143
C64   C     C_R   0.751912 0.789401 0.021898 0.371685
C65   C     C_R   0.684915 0.279849 0.004463 0.033797
C66   C     C_R   0.297052 0.288043 0.996418 0.030780
C67   C     C_R   0.203093 0.788133 0.003595 0.030774
C68   C     C_R   0.815286 0.779786 0.995637 0.033149
C69   C     C_R   0.666066 0.228452 0.024342 -0.041293
C70   C     C_R   0.305219 0.241573 0.950379 -0.071271
C71   C     C_R   0.194916 0.741672 0.049647 -0.071376
C72   C     C_R   0.833300 0.728439 0.974589 -0.041179
H33   H     H_    0.615420 0.222193 0.042270 0.155556
H34   H     H_    0.339483 0.242535 0.910168 0.165452
H35   H     H_    0.160655 0.742646 0.089860 0.165574
H36   H     H_    0.883345 0.722184 0.955758 0.156010
C73   C     C_R   0.230253 0.693684 0.042756 -0.139972
C74   C     C_R   0.785924 0.685281 0.977623 -0.146261
C75   C     C_R   0.713347 0.185254 0.021261 -0.146046
C76   C     C_R   0.269852 0.193594 0.957264 -0.140021
H37   H     H_    0.227433 0.657717 0.081229 0.141878
H38   H     H_    0.797272 0.645008 0.959644 0.147004
H39   H     H_    0.701308 0.144937 0.038295 0.146881
H40   H     H_    0.272656 0.157620 0.918794 0.141841
C77   C     C_R   0.269846 0.692700 0.986482 0.075484
C78   C     C_R   0.724384 0.694647 0.005057 0.065393
C79   C     C_R   0.775698 0.194648 0.995023 0.065375
C80   C     C_R   0.230245 0.192630 0.013526 0.075478
C81   C     C_R   0.385164 0.521991 0.458405 -0.056647
C82   C     C_R   0.393694 0.522534 0.374189 -0.057367
C83   C     C_R   0.106178 0.022507 0.625714 -0.057427
C84   C     C_R   0.114707 0.021962 0.541503 -0.056638
H41   H     H_    0.325752 0.541936 0.449125 0.145347
H42   H     H_    0.341096 0.543047 0.298472 0.127152
H43   H     H_    0.158805 0.042995 0.701454 0.127114
H44   H     H_    0.174146 0.041881 0.550803 0.145292
C85   C     C_R   0.472002 0.497274 0.389709 0.172806
C86   C     C_R   0.455805 0.496681 0.555704 0.141685
C87   C     C_R   0.044032 0.996684 0.444181 0.141517
C88   C     C_R   0.027839 0.997277 0.610165 0.172733
C89   C     C_R   0.539672 0.469725 0.485005 -0.119214
C90   C     C_R   0.531513 0.469453 0.568675 -0.121868
C91   C     C_R   0.968286 0.969487 0.431173 -0.121579
C92   C     C_R   0.960129 0.969758 0.514844 -0.119095
H45   H     H_    0.599834 0.450056 0.495445 0.155655
H46   H     H_    0.585729 0.449700 0.644746 0.165956
H47   H     H_    0.914047 0.949757 0.355081 0.166453
H48   H     H_    0.899948 0.950111 0.504392 0.155766
N33   N     N_R   0.269703 0.338854 0.799035 0.217365
O1    O     O_R   0.306852 0.329210 0.748026 -0.377270
O2    O     O_R   0.184066 0.322170 0.757051 -0.352882
N34   N     N_R   0.699863 0.329349 0.199850 0.236858
O3    O     O_R   0.688323 0.352557 0.267724 -0.361001
O4    O     O_R   0.756412 0.288021 0.232930 -0.348312
N35   N     N_R   0.800085 0.829381 0.800096 0.236778
O5    O     O_R   0.811763 0.852550 0.732304 -0.360859
O6    O     O_R   0.743088 0.788257 0.766779 -0.348687
N36   N     N_R   0.230500 0.838943 0.200974 0.217367
O7    O     O_R   0.193402 0.829164 0.251992 -0.377200
O8    O     O_R   0.316188 0.822369 0.242922 -0.352826
N37   N     N_R   0.769815 0.342813 0.960890 0.240531
O9    O     O_R   0.778856 0.383361 0.020702 -0.411928
O10   O     O_R   0.791588 0.349677 0.893543 -0.351911
N38   N     N_R   0.245944 0.335340 0.098303 0.242876
O11   O     O_R   0.229092 0.381913 0.050469 -0.381642
O12   O     O_R   0.243706 0.331727 0.181954 -0.352880
N39   N     N_R   0.254182 0.835401 0.901668 0.242868
O13   O     O_R   0.270982 0.881986 0.949443 -0.381702
O14   O     O_R   0.256453 0.831767 0.818041 -0.352978
N40   N     N_R   0.732067 0.842667 0.041612 0.240354
O15   O     O_R   0.721901 0.883279 0.981330 -0.411296
O16   O     O_R   0.712266 0.849441 0.110761 -0.352154
N41   N     N_R   0.543822 0.594623 0.333910 0.226841
O17   O     O_R   0.521760 0.610633 0.397492 -0.341986
O18   O     O_R   0.603463 0.622987 0.328647 -0.383158
N42   N     N_R   0.429540 0.597473 0.658430 0.213309
O19   O     O_R   0.450393 0.618148 0.596661 -0.347210
O20   O     O_R   0.384716 0.626756 0.685225 -0.420258
N43   N     N_R   0.070416 0.097466 0.341571 0.213303
O21   O     O_R   0.049538 0.118140 0.403321 -0.347146
O22   O     O_R   0.115276 0.126746 0.314824 -0.420291
N44   N     N_R   0.956094 0.094626 0.666053 0.226864
O23   O     O_R   0.978080 0.110627 0.602399 -0.341881
O24   O     O_R   0.896517 0.123004 0.671413 -0.383153
Br1   Br    Br    0.501436 0.316287 0.223487 -0.450088
Br2   Br    Br    0.492963 0.319116 0.768313 -0.478446
Br3   Br    Br    0.007356 0.819068 0.231694 -0.477726
Br4   Br    Br    0.998675 0.816290 0.776552 -0.450260

loop_
_geom_bond_atom_site_label_1
_geom_bond_atom_site_label_2
_geom_bond_distance
_ccdc_geom_bond_type
N3    N31   1.387127 A    
C76   C80   1.387748 A    
C61   C65   1.407328 A    
N36   O7    1.299068 A    
N2    N30   1.387129 A    
C19   N43   1.431766 S    
C23   H15   1.070996 S    
C70   H34   1.083825 S    
C15   H11   1.073846 S    
C83   C84   1.377533 A    
C14   N14   1.339479 A    
N13   N21   1.408046 A    
C35   C68   1.398732 S    
C72   H36   1.084261 S    
C17   C41   1.379410 A    
C30   C34   1.365489 A    
C50   H22   1.084840 S    
C31   C35   1.365496 A    
C81   C82   1.377610 A    
N15   N23   1.408046 A    
C26   C38   1.367159 A    
N9    N17   1.407798 A    
C89   C90   1.364970 A    
N16   N24   1.408046 A    
C25   C37   1.369728 A    
C41   C85   1.405264 S    
C9    H5    1.070174 S    
C81   H41   1.083510 S    
C1    N1    1.327203 A    
C20   N20   1.326734 A    
C3    N3    1.327530 A    
C12   C44   1.372629 A    
C63   N39   1.442431 S    
C57   C77   1.396986 A    
C58   H30   1.085083 S    
C87   C91   1.394262 A    
C26   N26   1.321802 A    
C20   C44   1.379349 A    
C25   N25   1.319455 A    
N34   O3    1.300093 A    
N8    N28   1.387127 A    
C51   H23   1.084834 S    
C70   C76   1.373303 A    
C4    N4    1.327197 A    
C73   H37   1.083872 S    
N12   N20   1.407798 A    
C5    H1    1.074467 S    
C34   C65   1.398553 S    
C14   C46   1.375949 A    
C82   H42   1.083834 S    
C60   C62   1.375500 A    
C67   C71   1.399224 A    
C64   C68   1.407213 A    
C74   C78   1.388939 A    
C76   H40   1.083868 S    
N22   Ni2   1.855778 S    
N36   O8    1.300835 A    
N42   O19   1.300543 A    
N37   O10   1.301483 A    
C23   N23   1.341827 A    
C72   C74   1.371554 A    
C24   N24   1.337683 A    
N41   O17   1.300540 A    
C75   H39   1.083920 S    
C15   N15   1.339471 A    
N14   N22   1.408046 A    
C39   C79   1.392895 S    
C69   H33   1.084279 S    
C57   C63   1.375508 A    
C62   N38   1.442401 S    
N10   N18   1.407798 A    
C58   C64   1.371441 A    
N27   Ni8   1.898870 S    
N6    N26   1.387127 A    
C69   C75   1.371530 A    
N3    Ni3   1.895844 S    
N5    N25   1.387127 A    
C10   C42   1.365117 A    
C2    N2    1.327433 A    
C48   C55   1.446558 S    
C7    H3    1.076200 S    
N19   Ni7   1.896153 S    
C15   C47   1.375951 A    
C60   H32   1.084448 S    
C64   N40   1.441265 S    
C20   N44   1.434881 S    
N29   Ni2   1.849189 S    
C58   C78   1.389087 A    
C1    C33   1.369408 A    
N1    Ni1   1.895844 S    
C55   H27   1.083902 S    
N40   O15   1.301312 A    
C3    C35   1.360275 A    
C32   N32   1.333720 A    
C8    H4    1.074466 S    
C16   H12   1.081084 S    
N23   Ni3   1.855767 S    
C66   C70   1.399206 A    
N33   O2    1.300835 A    
C5    C37   1.381541 A    
C47   C56   1.453686 S    
C52   H24   1.084147 S    
C1    N33   1.428304 S    
N44   O23   1.300530 A    
C14   H10   1.073838 S    
C46   C53   1.453688 S    
C19   N19   1.329587 A    
C22   N22   1.341832 A    
C21   C45   1.380406 A    
N33   O1    1.299078 A    
C9    N9    1.323736 A    
C13   H9    1.081080 S    
N21   Ni1   1.855767 S    
C24   H16   1.073005 S    
C3    N35   1.437095 S    
C6    H2    1.076205 S    
C11   N11   1.323051 A    
C38   C78   1.393018 S    
C83   H43   1.083841 S    
C12   N12   1.323705 A    
C36   C67   1.411956 S    
C32   Br4   1.920781 S    
C18   N42   1.431763 S    
C4    N36   1.428298 S    
N1    N29   1.387127 A    
C30   N30   1.334567 A    
C92   H48   1.084340 S    
C31   Br3   1.911443 S    
C91   C92   1.364945 A    
C18   C42   1.373591 A    
C29   N29   1.333729 A    
C28   H20   1.080237 S    
C7    N7    1.324926 A    
C8    N8    1.331850 A    
C27   C39   1.367171 A    
C17   N17   1.326786 A    
C65   C69   1.393431 A    
N12   Ni3   1.896380 S    
C89   H45   1.084341 S    
C16   C48   1.372937 A    
C2    N34   1.437135 S    
C83   C88   1.395118 A    
N4    Ni4   1.895804 S    
N20   Ni8   1.896113 S    
C10   H6    1.071412 S    
N40   O16   1.301591 A    
C81   C86   1.393495 A    
C84   H44   1.083516 S    
N38   O12   1.301554 A    
N43   O22   1.300859 A    
C71   H35   1.083825 S    
N28   Ni7   1.898908 S    
C11   H7    1.071421 S    
C57   H29   1.084445 S    
C44   C88   1.405106 S    
C22   H14   1.071014 S    
N13   Ni6   1.876644 S    
C16   N16   1.334656 A    
C27   N27   1.321874 A    
C24   C48   1.380400 A    
C21   N21   1.337667 A    
C59   C79   1.389103 A    
C50   C54   1.342733 D    
C52   C56   1.337788 D    
N31   Ni4   1.849189 S    
C60   C80   1.396968 A    
C12   H8    1.070166 S    
N39   O14   1.301554 A    
C86   C90   1.394267 A    
N16   Ni7   1.876634 S    
C5    N5    1.331822 A    
N24   Ni4   1.855778 S    
C90   H46   1.084669 S    
C17   N41   1.434876 S    
C56   H28   1.085780 S    
C51   C52   1.464771 S    
N4    N32   1.387129 A    
C8    C40   1.381549 A    
N17   Ni5   1.896153 S    
C59   C61   1.371692 A    
N11   N19   1.407798 A    
N38   O11   1.301534 A    
C21   H13   1.073012 S    
C62   C66   1.404117 A    
C19   C43   1.373581 A    
C91   H47   1.084671 S    
C49   H21   1.084146 S    
C37   C77   1.409424 S    
N5    Ni5   1.856941 S    
C4    C36   1.369411 A    
C49   C53   1.337785 D    
C28   N28   1.319477 A    
C18   N18   1.329634 A    
N34   O4    1.300457 A    
C40   C80   1.409486 S    
C63   C67   1.404110 A    
C13   N13   1.334661 A    
N11   Ni4   1.896341 S    
C68   C72   1.393386 A    
N44   O24   1.301342 A    
N35   O5    1.300101 A    
C32   C36   1.375397 A    
N42   O20   1.300861 A    
C10   N10   1.323093 A    
C49   C50   1.464764 S    
C42   C86   1.407299 S    
N26   Ni5   1.898909 S    
C31   N31   1.334442 A    
C29   Br1   1.920765 S    
N25   Ni6   1.898870 S    
C26   H18   1.079815 S    
C82   C85   1.395141 A    
C9    C41   1.372673 A    
N6    Ni6   1.856953 S    
C6    N6    1.324982 A    
C25   H17   1.080240 S    
N10   Ni1   1.896380 S    
N7    N27   1.387127 A    
C28   C40   1.369749 A    
N30   Ni1   1.849176 S    
C11   C43   1.365099 A    
N9    Ni2   1.896341 S    
C2    C34   1.360199 A    
C27   H19   1.079822 S    
N15   Ni8   1.876644 S    
N2    Ni2   1.895804 S    
N14   Ni5   1.876634 S    
C59   H31   1.085052 S    
N35   O6    1.300467 A    
N39   O13   1.301518 A    
C29   C33   1.375374 A    
N43   O21   1.300545 A    
C54   H26   1.083911 S    
C7    C39   1.369333 A    
C71   C73   1.373240 A    
C53   H25   1.085789 S    
C6    C38   1.369394 A    
C61   N37   1.441579 S    
N37   O9    1.301288 A    
C74   H38   1.084005 S    
C23   C47   1.380990 A    
N18   Ni6   1.896113 S    
N32   Ni3   1.849176 S    
C85   C89   1.390512 A    
C22   C46   1.380989 A    
C84   C87   1.393469 A    
C51   C55   1.342727 D    
C13   C45   1.372973 A    
C73   C77   1.387716 A    
C45   C54   1.446552 S    
N41   O18   1.301327 A    
C43   C87   1.407149 S    
C33   C66   1.411993 S    
C30   Br2   1.911419 S    
C88   C92   1.390494 A    
C75   C79   1.388840 A    
N8    Ni8   1.856953 S    
N7    Ni7   1.856940 S    
