data_mof_unit_67432.cif
_audit_creation_date              2013-03-05T15:40:04-0500
_audit_creation_method            fapswitch 2.2
_symmetry_space_group_name_H-M    P1
_symmetry_Int_Tables_number       1
_space_group_crystal_system       triclinic
_cell_length_a                    7.449057
_cell_length_b                    8.761505
_cell_length_c                    11.269056
_cell_angle_alpha                 90.69042
_cell_angle_beta                  72.695265
_cell_angle_gamma                 102.50553
_cell_volume                      684.442341766

loop_
_atom_site_label
_atom_site_type_symbol
_atom_site_description
_atom_site_fract_x
_atom_site_fract_y
_atom_site_fract_z
_atom_type_partial_charge
O1    O     O_R   0.622710 0.286400 0.490790 -0.560789
O2    O     O_R   0.377290 0.713600 0.509210 -0.581560
O3    O     O_R   0.303660 0.256330 0.514730 -0.575067
O4    O     O_R   0.696340 0.743670 0.485270 -0.594577
C1    C     C_R   0.454538 0.200735 0.497943 0.818920
C2    C     C_R   0.545717 0.799665 0.498388 0.821249
O5    O     O_R   0.600900 0.509520 0.671740 -0.613512
O6    O     O_R   0.399100 0.490480 0.328260 -0.599150
O7    O     O_R   0.281840 0.479450 0.695690 -0.602545
O8    O     O_R   0.718160 0.520550 0.304310 -0.599345
C3    C     C_R   0.423882 0.489365 0.741352 0.742950
C4    C     C_R   0.576418 0.506418 0.258996 0.732515
Cu1   Cu    Cu3+1 0.688910 0.517800 0.485820 0.932230
Cu2   Cu    Cu3+1 0.311090 0.482200 0.514180 0.946238
C5    C     C_2   0.381532 0.448453 0.873977 0.254252
C6    C     C_2   0.622766 0.525231 0.123884 0.264619
C7    C     C_2   0.505737 0.517283 0.937122 -0.101811
C8    C     C_2   0.487618 0.462368 0.067174 -0.106445
C9    C     C_2   0.433596 0.034569 0.486100 0.149371
C10   C     C_2   0.560954 0.964358 0.513613 0.179354
N1    N     N_2   0.027170 0.455360 0.535550 -0.219741
N2    N     N_2   0.972830 0.544640 0.464450 -0.243428
H1    H     H_    0.915990 0.380298 0.599485 0.234666
H2    H     H_    0.084138 0.615826 0.397674 0.227924
C11   C     C_R   0.321922 0.334964 0.134474 0.159427
C12   C     C_R   0.137237 0.364444 0.186042 -0.025277
C13   C     C_R   0.979909 0.240469 0.237904 -0.089032
C14   C     C_R   0.006206 0.087763 0.239557 -0.142417
C15   C     C_R   0.190570 0.058386 0.191333 -0.090303
C16   C     C_R   0.348447 0.181698 0.139522 -0.094975
H3    H     H_    0.114952 0.481996 0.181685 0.114153
H4    H     H_    0.836663 0.261625 0.272969 0.156248
H5    H     H_    0.883587 0.992389 0.279092 0.117631
H6    H     H_    0.211198 0.940082 0.193665 0.125634
H7    H     H_    0.490309 0.157643 0.100641 0.088065
C17   C     C_R   0.651002 0.664737 0.884703 0.127565
C18   C     C_R   0.616589 0.807449 0.933605 -0.172676
C19   C     C_R   0.766689 0.941062 0.908480 -0.145110
C20   C     C_R   0.951453 0.933379 0.833962 -0.159346
C21   C     C_R   0.987288 0.791398 0.786548 -0.182709
C22   C     C_R   0.837643 0.657997 0.810192 0.042924
H8    H     H_    0.475878 0.813496 0.995256 0.109940
H9    H     H_    0.739684 0.049957 0.947792 0.112663
H10   H     H_    0.068870 0.035542 0.815953 0.154540
H11   H     H_    0.132427 0.783848 0.734336 0.133445
H12   H     H_    0.870081 0.546953 0.779274 0.110054
O9    O     O_3   0.810764 0.595136 0.053201 -0.607868
C23   C     C_3   0.889887 0.732884 0.103912 -0.271904
H13   H     H_    0.964633 0.706065 0.169945 0.166187
H14   H     H_    0.780668 0.802384 0.146830 0.149444
H15   H     H_    0.005332 0.807390 0.028727 0.190400
O10   O     O_3   0.236853 0.316212 0.924304 -0.595263
C24   C     C_3   0.055013 0.339226 0.923443 -0.292038
H16   H     H_    0.019768 0.290724 0.839695 0.165230
H17   H     H_    0.046380 0.464154 0.928004 0.211154
H18   H     H_    0.942147 0.274388 0.005322 0.178031
O11   O     O_3   0.306042 0.957194 0.425222 -0.630122
C25   C     C_3   0.113546 0.935154 0.502913 -0.180767
H19   H     H_    0.022065 0.954268 0.446195 0.225204
H20   H     H_    0.088628 0.012362 0.582145 0.167953
H21   H     H_    0.061664 0.813213 0.541260 0.185421
O12   O     O_3   0.703058 0.044151 0.562057 -0.595153
C26   C     C_3   0.620093 0.053563 0.691023 -0.324078
H22   H     H_    0.561221 0.934752 0.737873 0.162548
H23   H     H_    0.503939 0.120023 0.712372 0.152988
H24   H     H_    0.733743 0.118411 0.729101 0.185868

loop_
_geom_bond_atom_site_label_1
_geom_bond_atom_site_label_2
_geom_bond_distance
_ccdc_geom_bond_type
C14   H5    1.080454 S    
O5    Cu1   1.997652 S    
O6    Cu2   1.997651 S    
O7    Cu2   1.991403 S    
C26   H23   1.112003 S    
C11   C16   1.403189 A    
C20   H10   1.080336 S    
C1    C9    1.439109 S    
C7    C17   1.490515 S    
O3    Cu2   1.967753 S    
C2    C10   1.434976 S    
C9    C10   1.344195 D    
O6    C4    1.297230 A    
C22   H12   1.081612 S    
O12   C26   1.409172 S    
C23   H14   1.113534 S    
C7    C8    1.506252 S    
C12   C13   1.396929 A    
C26   H24   1.107065 S    
C19   H9    1.080241 S    
O2    C2    1.288038 A    
C5    O10   1.391764 S    
C9    O11   1.389479 S    
O5    C3    1.293229 A    
O7    C3    1.294170 A    
C14   C15   1.397620 A    
C17   C22   1.407595 A    
C15   C16   1.395594 A    
C8    C11   1.487112 S    
O8    C4    1.285888 A    
C16   H7    1.082523 S    
C25   H21   1.100232 S    
O1    C1    1.293576 A    
Cu2   N1    2.017234 S    
N1    N2    1.327729 D    
C17   C18   1.403916 A    
C11   C12   1.404177 A    
C18   C19   1.397697 A    
O4    Cu1   1.967752 S    
Cu1   N2    2.017235 S    
O11   C25   1.413231 S    
C24   H17   1.109951 S    
N1    H1    1.028629 S    
C10   O12   1.386143 S    
C21   H11   1.082149 S    
O2    Cu2   1.977383 S    
N2    H2    1.029029 S    
O4    C2    1.288167 A    
O1    Cu1   1.977383 S    
C13   H4    1.078034 S    
C25   H20   1.109272 S    
C26   H22   1.110162 S    
C4    C6    1.460585 S    
C20   C21   1.395397 A    
C19   C20   1.398274 A    
O10   C24   1.414803 S    
C6    O9    1.395505 S    
C6    C8    1.363590 D    
C12   H3    1.082047 S    
C24   H18   1.106905 S    
C18   H8    1.083550 S    
C5    C7    1.365911 D    
C23   H13   1.107387 S    
C21   C22   1.395079 A    
O3    C1    1.282412 A    
C25   H19   1.100934 S    
Cu1   Cu2   2.684666 S    
C3    C5    1.464639 S    
C15   H6    1.081988 S    
C23   H15   1.104661 S    
O9    C23   1.416417 S    
C24   H16   1.108879 S    
C13   C14   1.394653 A    
O8    Cu1   1.991403 S    
