data_mof_unit_57211.cif
_audit_creation_date              2012-12-10T20:55:47-0500
_audit_creation_method            fapswitch 2.2
_symmetry_space_group_name_H-M    P1
_symmetry_Int_Tables_number       1
_space_group_crystal_system       triclinic
_cell_length_a                    15.849149
_cell_length_b                    15.093233
_cell_length_c                    10.680692
_cell_angle_alpha                 89.993076
_cell_angle_beta                  89.834047
_cell_angle_gamma                 89.672091
_cell_volume                      2554.92808146

loop_
_atom_site_label
_atom_site_type_symbol
_atom_type_description
_atom_site_fract_x
_atom_site_fract_y
_atom_site_fract_z
_atom_type_partial_charge
C1    C     C_1   0.250688 0.500507 0.497830 -0.169721
C2    C     C_R   0.446537 0.047469 0.581859 0.376518
C3    C     C_R   0.955599 0.569478 0.435331 0.355519
C4    C     C_R   0.044089 0.429776 0.551842 0.401317
C5    C     C_R   0.043610 0.567223 0.430253 0.359764
C6    C     C_R   0.956224 0.432095 0.557211 0.369256
C7    C     C_R   0.338945 0.500208 0.500128 0.862376
C8    C     C_R   0.661016 0.499821 0.499575 0.861395
C9    C     C_R   0.500265 0.499982 0.260266 0.876716
C10   C     C_R   0.499811 0.499972 0.739788 0.878040
C11   C     C_R   0.912830 0.500575 0.496013 -0.255943
C12   C     C_1   0.749213 0.499691 0.497729 -0.175182
C13   C     C_R   0.087001 0.499029 0.492307 -0.239788
C14   C     C_1   0.500073 0.807046 0.500270 0.257932
C15   C     C_1   0.499764 0.192960 0.499713 0.250252
C16   C     C_1   0.823929 0.500154 0.496372 0.152831
C17   C     C_1   0.175946 0.500136 0.495291 0.170752
C18   C     C_R   0.651712 0.538939 0.129153 -0.351468
C19   C     C_R   0.351784 0.448581 0.871125 -0.364577
C20   C     C_R   0.649982 0.545369 0.869138 -0.378131
C21   C     C_R   0.350808 0.453027 0.131210 -0.373668
C22   C     C_R   0.725955 0.558177 0.063903 0.501951
C23   C     C_R   0.500057 0.499726 0.871926 -0.076911
C24   C     C_R   0.279867 0.421129 0.936681 0.499540
C25   C     C_R   0.724399 0.566138 0.933625 0.480038
C26   C     C_R   0.279103 0.424004 0.067203 0.497176
C27   C     C_R   0.575023 0.522921 0.934356 0.008732
C28   C     C_R   0.425640 0.475630 0.065863 0.004590
C29   C     C_R   0.575497 0.521430 0.064908 -0.002871
C30   C     C_R   0.425866 0.474389 0.935298 0.002365
C31   C     C_3   0.098772 0.611466 0.244808 -0.203697
C32   C     C_3   0.902797 0.385318 0.742609 -0.218753
C33   C     C_3   0.899549 0.707379 0.454078 -0.204292
C34   C     C_R   0.500272 0.499768 0.128207 -0.076687
C35   C     C_3   0.102144 0.293525 0.525870 -0.300966
C36   C     C_3   0.219838 0.320915 0.194854 -0.340905
C37   C     C_3   0.787064 0.661836 0.795655 -0.308227
C38   C     C_3   0.225567 0.309323 0.820271 -0.212907
C39   C     C_3   0.840830 0.491075 0.146280 -0.207171
C40   C     C_3   0.315737 0.105473 0.609921 -0.273768
C41   C     C_3   0.683779 0.894486 0.389317 -0.241205
C42   C     C_3   0.559403 0.103005 0.218581 -0.235413
C43   C     C_3   0.439979 0.897360 0.781418 -0.229461
C44   C     C_R   0.500392 0.905031 0.500758 -0.305507
C45   C     C_R   0.499283 0.094991 0.499128 -0.303084
C46   C     C_R   0.448907 0.953256 0.585147 0.373512
C47   C     C_R   0.550726 0.046764 0.414685 0.374158
C48   C     C_R   0.553059 0.952558 0.417933 0.371902
H1    H     H_    0.655268 0.536085 0.230158 0.174781
H2    H     H_    0.868004 0.330864 0.789152 0.174918
H3    H     H_    0.960768 0.734829 0.486457 0.177362
H4    H     H_    0.859693 0.688573 0.535503 0.121608
H5    H     H_    0.865840 0.760721 0.402783 0.173770
H6    H     H_    0.146266 0.314820 0.450935 0.145787
H7    H     H_    0.042222 0.268909 0.484638 0.188084
H8    H     H_    0.132264 0.237212 0.575651 0.162401
H9    H     H_    0.260096 0.331045 0.278651 0.162907
H10   H     H_    0.247863 0.269075 0.132858 0.158012
H11   H     H_    0.157942 0.295720 0.227284 0.186966
H12   H     H_    0.348788 0.448512 0.770037 0.175452
H13   H     H_    0.753256 0.716042 0.846304 0.167750
H14   H     H_    0.753606 0.644870 0.707730 0.157534
H15   H     H_    0.850073 0.687504 0.769208 0.188073
H16   H     H_    0.259459 0.263736 0.885436 0.121896
H17   H     H_    0.261787 0.316746 0.731633 0.170302
H18   H     H_    0.164668 0.277354 0.798003 0.215389
H19   H     H_    0.853638 0.457037 0.055575 0.145561
H20   H     H_    0.803576 0.447447 0.209407 0.139431
H21   H     H_    0.902658 0.502861 0.191302 0.196885
H22   H     H_    0.285323 0.041094 0.587626 0.191753
H23   H     H_    0.652115 0.545131 0.768088 0.168628
H24   H     H_    0.320203 0.147258 0.524288 0.133826
H25   H     H_    0.274250 0.140697 0.677520 0.166996
H26   H     H_    0.679356 0.854331 0.476521 0.129072
H27   H     H_    0.714910 0.958913 0.408923 0.183351
H28   H     H_    0.724527 0.857470 0.322580 0.191288
H29   H     H_    0.500766 0.142978 0.231602 0.134310
H30   H     H_    0.544398 0.038143 0.174595 0.181076
H31   H     H_    0.600739 0.139666 0.152797 0.186033
H32   H     H_    0.454662 0.962351 0.825268 0.178577
H33   H     H_    0.498780 0.857591 0.768794 0.135916
H34   H     H_    0.347108 0.457006 0.232100 0.169799
H35   H     H_    0.398630 0.860650 0.847126 0.188794
H36   H     H_    0.037337 0.604567 0.195652 0.189648
H37   H     H_    0.136626 0.549509 0.235420 0.184962
H38   H     H_    0.134296 0.665135 0.197664 0.184767
H39   H     H_    0.864915 0.446962 0.754749 0.189615
H40   H     H_    0.964821 0.391736 0.790306 0.198354
N1    N     N_1   0.500000 0.270550 0.500000 -0.102093
N2    N     N_1   0.500000 0.729450 0.500000 -0.098666
O1    O     O_R   0.378020 0.573650 0.500040 -0.589112
O2    O     O_3   0.912792 0.364022 0.614890 -0.580090
O3    O     O_3   0.911560 0.635088 0.372382 -0.546856
O4    O     O_3   0.087692 0.362703 0.612085 -0.564174
O5    O     O_3   0.206266 0.401474 0.130918 -0.597252
O6    O     O_3   0.798647 0.586044 0.871154 -0.606760
O7    O     O_3   0.208708 0.393017 0.874031 -0.564631
O8    O     O_3   0.799827 0.573277 0.128488 -0.552636
O9    O     O_3   0.395521 0.092943 0.665451 -0.580319
O10   O     O_3   0.603889 0.907046 0.334147 -0.576039
O11   O     O_3   0.602797 0.091606 0.332553 -0.576118
O12   O     O_R   0.621980 0.426350 0.499960 -0.593779
O13   O     O_3   0.396797 0.908399 0.667203 -0.575357
O14   O     O_R   0.621980 0.573650 0.499960 -0.622922
O15   O     O_R   0.378020 0.426350 0.500040 -0.634012
O16   O     O_R   0.499990 0.573670 0.316780 -0.603530
O17   O     O_R   0.500010 0.426330 0.683220 -0.612082
O18   O     O_R   0.500010 0.573670 0.683220 -0.617112
O19   O     O_R   0.499990 0.426330 0.316780 -0.620888
O20   O     O_3   0.087111 0.634766 0.371524 -0.580786
Zn1   Zn    Zn3+2 0.500000 0.598370 0.500000 0.991547
Zn2   Zn    Zn3+2 0.500000 0.401630 0.500000 0.975714

loop_
_geom_bond_atom_site_label_1
_geom_bond_atom_site_label_2
_ccdc_geom_bond_type
C21   C26   A    
C31   H37   S    
C27   C29   A    
C43   H35   S    
C39   H20   S    
O12   Zn2   S    
C36   H11   S    
C40   O9    S    
C37   H14   S    
C2    C46   A    
C33   H4    S    
N1    Zn2   S    
C40   H22   S    
C47   O11   S    
C24   C26   A    
C36   H10   S    
C15   N1    T    
C20   C25   A    
C32   H40   S    
C40   H25   S    
O17   Zn2   S    
O1    Zn1   S    
C4    C13   A    
C14   N2    T    
C41   H26   S    
C10   O18   A    
C12   C16   T    
C22   C25   A    
C7    O15   A    
C20   H23   S    
C23   C27   A    
C5    C13   A    
C28   C34   A    
C42   H31   S    
C31   H38   S    
C1    C7    S    
C35   H6    S    
C9    O19   A    
C10   O17   A    
N2    Zn1   S    
C38   O7    S    
C37   H15   S    
C44   C46   A    
C38   H16   S    
O16   Zn1   S    
C45   C47   A    
C2    C45   A    
C33   H5    S    
C48   O10   S    
C35   H7    S    
C24   O7    S    
C23   C30   A    
C38   H18   S    
C4    C6    A    
C36   H9    S    
O19   Zn2   S    
C22   O8    S    
C39   O8    S    
C9    O16   A    
C32   H39   S    
C29   C34   A    
C31   H36   S    
C37   O6    S    
C41   H27   S    
C11   C16   S    
C47   C48   A    
C38   H17   S    
C8    C12   S    
C7    O1    A    
C39   H21   S    
C41   O10   S    
C3    O3    S    
C18   C29   A    
C8    O14   A    
C32   H2    S    
C42   H29   S    
C4    O4    S    
C21   C28   A    
C2    O9    S    
C42   H30   S    
C9    C34   S    
C43   H33   S    
C15   C45   S    
C42   O11   S    
C6    C11   A    
C14   C44   S    
C35   O4    S    
C26   O5    S    
C40   H24   S    
C35   H8    S    
C18   C22   A    
C39   H19   S    
O15   Zn2   S    
C3    C5    A    
C33   O3    S    
O14   Zn1   S    
C37   H13   S    
C20   C27   A    
C10   C23   S    
C33   H3    S    
C46   O13   S    
C1    C17   T    
O18   Zn1   S    
C13   C17   S    
C28   C30   A    
C19   C24   A    
C43   H32   S    
C41   H28   S    
C36   O5    S    
C32   O2    S    
C6    O2    S    
C31   O20   S    
C43   O13   S    
C3    C11   A    
C21   H34   S    
C25   O6    S    
C5    O20   S    
C19   H12   S    
C19   C30   A    
C8    O12   A    
C44   C48   A    
C18   H1    S    
