data_mof_unit_12092.cif
_audit_creation_date              2012-12-10T17:05:23-0500
_audit_creation_method            fapswitch 2.2
_symmetry_space_group_name_H-M    P1
_symmetry_Int_Tables_number       1
_space_group_crystal_system       triclinic
_cell_length_a                    10.042205
_cell_length_b                    10.647254
_cell_length_c                    15.548316
_cell_angle_alpha                 90.210025
_cell_angle_beta                  70.530198
_cell_angle_gamma                 90.286782
_cell_volume                      1567.36874287

loop_
_atom_site_label
_atom_site_type_symbol
_atom_type_description
_atom_site_fract_x
_atom_site_fract_y
_atom_site_fract_z
_atom_type_partial_charge
C1    C     C_R   0.500568 0.737513 0.499868 0.929175
C2    C     C_R   0.728374 0.494877 0.035939 -0.190221
C3    C     C_R   0.587324 0.462046 0.086346 -0.121397
C4    C     C_R   0.413063 0.500436 0.675171 0.900739
C5    C     C_R   0.818580 0.544702 0.080392 0.544639
C6    C     C_R   0.776729 0.541306 0.175383 0.352168
C7    C     C_R   0.537306 0.492770 0.179453 0.441717
C8    C     C_2   0.632103 0.065788 0.454765 0.588951
C9    C     C_2   0.512075 0.131543 0.472404 -0.459035
C10   C     C_2   0.621213 0.929311 0.449510 -0.297155
C11   C     C_2   0.503507 0.870156 0.499682 -0.393544
C12   C     C_R   0.435625 0.429845 0.903211 0.016947
C13   C     C_2   0.095937 0.415739 0.458222 -0.099961
C14   C     C_2   0.950217 0.423612 0.450825 -0.093398
C15   C     C_R   0.503554 0.262749 0.492754 0.955532
C16   C     C_R   0.586318 0.504444 0.325080 0.952553
C17   C     C_R   0.363369 0.483820 0.774293 -0.304200
C18   C     C_R   0.635067 0.511792 0.225562 -0.413927
C19   C     C_R   0.189906 0.399042 0.910794 0.470371
C20   C     C_R   0.221423 0.456185 0.824574 0.370240
C21   C     C_R   0.464677 0.480979 0.816663 -0.255866
C22   C     C_3   0.922456 0.725495 0.015776 -0.417274
C23   C     C_R   0.295920 0.390618 0.951818 -0.114443
C24   C     C_3   0.856943 0.058307 0.466900 -0.315341
C25   C     C_3   0.347204 0.624275 0.201937 0.109471
C26   C     C_3   0.343330 0.723631 0.274220 -0.328249
C27   C     C_3   0.282872 0.847331 0.254777 -1.009278
C28   C     C_3   0.871877 0.688044 0.247013 -0.232859
C29   C     C_3   0.043309 0.230210 0.933629 0.089377
C30   C     C_3   0.902091 0.175007 0.994026 -0.376880
C31   C     C_3   0.888140 0.176118 0.094886 -0.781781
C32   C     C_3   0.099146 0.610526 0.781089 0.110602
C33   C     C_3   0.989098 0.637068 0.734987 -0.274857
C34   C     C_R   0.540721 0.426220 0.944920 -0.082045
C35   C     C_3   0.006266 0.768593 0.693839 -1.048574
C36   C     C_3   0.413024 0.189241 0.163201 -0.320515
C37   C     C_3   0.746483 0.282814 0.789784 -0.278661
C38   C     C_R   0.497214 0.413542 0.040375 -0.074238
C39   C     C_R   0.365455 0.353012 0.084763 0.570531
C40   C     C_R   0.265006 0.345380 0.040830 -0.262071
C41   C     C_R   0.687348 0.438802 0.896027 0.462476
C42   C     C_R   0.777404 0.476824 0.942113 -0.200459
H1    H     H_    0.161917 0.306939 0.077878 0.212347
H2    H     H_    0.565996 0.522878 0.781260 0.237336
H3    H     H_    0.860225 0.776272 0.078952 0.153170
H4    H     H_    0.866619 0.732729 0.965075 0.158812
H5    H     H_    0.025623 0.774485 0.987770 0.189210
H6    H     H_    0.907335 0.982799 0.417447 0.159510
H7    H     H_    0.805556 0.019244 0.536570 0.159702
H8    H     H_    0.942363 0.122434 0.470463 0.181669
H9    H     H_    0.238142 0.610091 0.200691 0.190788
H10   H     H_    0.411152 0.659211 0.132779 0.104198
H11   H     H_    0.276816 0.689090 0.342476 0.251829
H12   H     H_    0.414394 0.087989 0.471722 0.121126
H13   H     H_    0.452012 0.740603 0.275374 0.199547
H14   H     H_    0.348742 0.884739 0.187335 0.260692
H15   H     H_    0.281967 0.917180 0.308185 0.268045
H16   H     H_    0.172865 0.833452 0.255332 0.262503
H17   H     H_    0.897880 0.690581 0.310994 0.181662
H18   H     H_    0.766771 0.733664 0.261785 0.100258
H19   H     H_    0.954171 0.743625 0.195617 0.165981
H20   H     H_    0.130033 0.172231 0.942570 0.105631
H21   H     H_    0.047827 0.223010 0.861246 0.123947
H22   H     H_    0.813392 0.228615 0.984841 0.222916
H23   H     H_    0.712293 0.876508 0.407744 0.159842
H24   H     H_    0.893541 0.076443 0.972567 0.158025
H25   H     H_    0.975311 0.121905 0.105853 0.238894
H26   H     H_    0.786072 0.132334 0.135531 0.221138
H27   H     H_    0.890252 0.273956 0.119367 0.290707
H28   H     H_    0.199785 0.657602 0.741530 0.138252
H29   H     H_    0.064747 0.654649 0.849240 0.135996
H30   H     H_    0.998684 0.566722 0.680492 0.253233
H31   H     H_    0.881435 0.629321 0.785610 0.220765
H32   H     H_    0.996856 0.840439 0.747525 0.260497
H33   H     H_    0.922525 0.785176 0.663247 0.265366
H34   H     H_    0.410357 0.917528 0.543995 0.140023
H35   H     H_    0.110761 0.778219 0.639462 0.279087
H36   H     H_    0.527702 0.210930 0.143724 0.161556
H37   H     H_    0.393537 0.121329 0.114013 0.139717
H38   H     H_    0.380660 0.143188 0.230973 0.196740
H39   H     H_    0.809647 0.233927 0.826117 0.146386
H40   H     H_    0.796707 0.263606 0.715840 0.196346
H41   H     H_    0.637421 0.243749 0.810765 0.157048
H42   H     H_    0.161449 0.336939 0.425304 0.181125
H43   H     H_    0.091674 0.579479 0.521004 0.158691
H44   H     H_    0.924822 0.359229 0.404287 0.210064
H45   H     H_    0.873918 0.552674 0.547778 0.165083
H46   H     H_    0.886617 0.491042 0.904343 0.260885
N1    N     N_2   0.148330 0.498670 0.499030 -0.200163
N2    N     N_2   0.852680 0.498640 0.499000 -0.200152
O1    O     O_R   0.386950 0.680940 0.500010 -0.638979
O2    O     O_3   0.761611 0.127576 0.436587 -0.587463
O3    O     O_3   0.393824 0.507803 0.225218 -0.556107
O4    O     O_3   0.876570 0.561825 0.217671 -0.548297
O5    O     O_3   0.054222 0.357446 0.956825 -0.587347
O6    O     O_3   0.114506 0.478638 0.788720 -0.616619
O7    O     O_3   0.332312 0.299212 0.170266 -0.555265
O8    O     O_3   0.746222 0.413732 0.803669 -0.629749
O9    O     O_R   0.613110 0.680900 0.499990 -0.620667
O10   O     O_R   0.322330 0.500030 0.632270 -0.572400
O11   O     O_R   0.548480 0.499990 0.632240 -0.611610
O12   O     O_R   0.386890 0.319100 0.500010 -0.625392
O13   O     O_R   0.613050 0.319060 0.499990 -0.549101
O14   O     O_R   0.451520 0.500010 0.367760 -0.567074
O15   O     O_R   0.677670 0.499970 0.367730 -0.572115
O16   O     O_3   0.947084 0.598480 0.032034 -0.553397
Zn1   Zn    Zn3+2 0.349000 0.500030 0.500020 0.955328
Zn2   Zn    Zn3+2 0.651000 0.499970 0.499980 0.970967

loop_
_geom_bond_atom_site_label_1
_geom_bond_atom_site_label_2
_ccdc_geom_bond_type
C29   H21   S    
C35   H32   S    
C25   O3    S    
C30   H22   S    
C41   C42   A    
C19   C20   A    
C1    C11   S    
C26   H13   S    
C1    O9    A    
C31   H25   S    
O9    Zn2   S    
C12   C23   A    
C35   H33   S    
C26   C27   S    
C2    C42   A    
C3    C7    A    
C11   H34   S    
C30   C31   S    
C39   O7    S    
C23   C40   A    
C17   C20   A    
C28   O4    S    
C14   N2    D    
C33   H30   S    
C16   O14   A    
C40   H1    S    
C3    C38   A    
C8    C9    D    
C6    O4    S    
O13   Zn2   S    
C8    O2    S    
C28   H19   S    
O11   Zn2   S    
C22   H5    S    
C20   O6    S    
C1    O1    A    
C13   C14   S    
C37   H39   S    
C34   C41   A    
C7    O3    S    
C24   O2    S    
C37   O8    S    
C10   H23   S    
C32   H29   S    
C5    O16   S    
C28   H18   S    
C24   H8    S    
C31   H26   S    
C6    C18   A    
O15   Zn2   S    
C24   H6    S    
O1    Zn1   S    
C38   C39   A    
C14   H44   S    
C36   H38   S    
C39   C40   A    
C29   O5    S    
H43   N1    S    
C27   H14   S    
C32   H28   S    
C25   C26   S    
C22   O16   S    
C12   C21   A    
C35   H35   S    
C17   C21   A    
C36   O7    S    
C19   C23   A    
C25   H9    S    
C29   C30   S    
C21   H2    S    
C13   H42   S    
C7    C18   A    
C4    O11   A    
N1    Zn1   S    
O12   Zn1   S    
C16   C18   S    
C30   H24   S    
C16   O15   A    
C4    C17   S    
C33   H31   S    
C22   H4    S    
C4    O10   A    
C27   H15   S    
C37   H40   S    
C2    C5    A    
C42   H46   S    
C12   C34   A    
C26   H11   S    
C19   O5    S    
C28   H17   S    
C24   H7    S    
C29   H20   S    
O10   Zn1   S    
C13   N1    D    
C34   C38   A    
C36   H37   S    
C32   C33   S    
C2    C3    A    
C9    C15   S    
C25   H10   S    
N2    Zn2   S    
C32   O6    S    
C36   H36   S    
C5    C6    A    
C27   H16   S    
C33   C35   S    
C15   O12   A    
C10   C11   D    
C31   H27   S    
C22   H3    S    
C8    C10   S    
H45   N2    S    
C41   O8    S    
C37   H41   S    
C9    H12   S    
C15   O13   A    
O14   Zn1   S    
