data_mof_unit_34905.cif
_audit_creation_date              2013-03-05T15:53:45-0500
_audit_creation_method            fapswitch 2.2
_symmetry_space_group_name_H-M    P1
_symmetry_Int_Tables_number       1
_space_group_crystal_system       triclinic
_cell_length_a                    10.631417
_cell_length_b                    10.656776
_cell_length_c                    9.919246
_cell_angle_alpha                 89.744433
_cell_angle_beta                  90.193037
_cell_angle_gamma                 91.526851
_cell_volume                      1123.40101136

loop_
_atom_site_label
_atom_site_type_symbol
_atom_site_description
_atom_site_fract_x
_atom_site_fract_y
_atom_site_fract_z
_atom_type_partial_charge
O1    O     O_R   0.500000 0.316780 0.614690 -0.638362
O2    O     O_R   0.499990 0.316750 0.385360 -0.624230
C1    C     C_R   0.506155 0.260759 0.500655 0.851862
O3    O     O_R   0.314800 0.499990 0.614670 -0.639384
O4    O     O_R   0.314790 0.499970 0.385330 -0.645691
C2    C     C_R   0.257848 0.499864 0.499542 0.818868
Zn1   Zn    Zn3+2 0.500010 0.500020 0.653130 0.938470
Zn2   Zn    Zn3+2 0.499990 0.499980 0.346870 0.939467
O5    O     O_R   0.500010 0.683250 0.614640 -0.614784
O6    O     O_R   0.500000 0.683220 0.385310 -0.614178
O7    O     O_R   0.685210 0.500030 0.614670 -0.628892
O8    O     O_R   0.685200 0.500010 0.385330 -0.619816
C3    C     C_R   0.505562 0.739438 0.499706 0.866216
C4    C     C_R   0.742257 0.500560 0.499788 0.809005
C5    C     C_3   0.069254 0.381651 0.572391 -0.402264
H1    H     H_    0.103829 0.379458 0.678380 0.192657
H2    H     H_    0.101844 0.295346 0.521815 0.153804
C6    C     C_3   0.925004 0.382169 0.572438 -0.376391
H3    H     H_    0.886946 0.295882 0.522309 0.157715
H4    H     H_    0.891241 0.381345 0.678255 0.228463
H5    H     H_    0.110865 0.622101 0.676306 0.189601
H6    H     H_    0.897381 0.623102 0.676095 0.181602
C7    C     C_3   0.076010 0.619351 0.570356 -0.374499
C8    C     C_3   0.071055 0.499549 0.351020 -0.386220
C9    C     C_3   0.121434 0.500110 0.498309 0.163858
H7    H     H_    0.107769 0.583570 0.295000 0.185365
H8    H     H_    0.102478 0.414582 0.296991 0.180139
C10   C     C_3   0.878858 0.500670 0.498508 0.157658
C11   C     C_3   0.931622 0.619778 0.570247 -0.417615
C12   C     C_3   0.928204 0.499998 0.351123 -0.367756
H9    H     H_    0.891186 0.415391 0.296855 0.198881
H10   H     H_    0.896138 0.584379 0.295355 0.178062
H11   H     H_    0.113691 0.705088 0.518268 0.158675
H12   H     H_    0.898993 0.705497 0.517556 0.162638
H13   H     H_    0.368996 0.110708 0.351258 0.145690
C13   C     C_R   0.690098 0.132660 0.671679 -0.294910
H14   H     H_    0.694096 0.233748 0.675109 0.194165
C14   C     C_R   0.775117 0.068112 0.753453 0.382160
C15   C     C_R   0.779530 0.937540 0.743589 -0.225293
H15   H     H_    0.846160 0.885371 0.802906 0.177672
C16   C     C_R   0.697091 0.872278 0.658316 -0.274965
H16   H     H_    0.706690 0.771854 0.652660 0.162563
C17   C     C_R   0.605809 0.935838 0.581987 0.118098
C18   C     C_R   0.603883 0.067280 0.586061 0.052041
C19   C     C_R   0.516447 0.128491 0.501856 -0.072294
C20   C     C_R   0.435435 0.062791 0.415287 -0.205870
H17   H     H_    0.368583 0.884428 0.350201 0.158408
C21   C     C_R   0.435376 0.934824 0.414323 -0.208562
C22   C     C_R   0.517374 0.871975 0.498770 -0.091453
H18   H     H_    0.642055 0.639915 0.124991 0.145188
C23   C     C_R   0.334565 0.336330 0.140048 -0.188024
H19   H     H_    0.328890 0.330851 0.246922 0.197048
C24   C     C_R   0.253100 0.255657 0.069932 -0.174133
H20   H     H_    0.189363 0.192953 0.124389 0.166986
C25   C     C_R   0.253618 0.255220 0.930394 -0.146407
H21   H     H_    0.190452 0.192135 0.875920 0.195212
C26   C     C_R   0.335374 0.335591 0.860190 -0.180976
H22   H     H_    0.330479 0.329390 0.753327 0.202392
C27   C     C_R   0.418740 0.419114 0.927793 0.180460
C28   C     C_R   0.418559 0.419324 0.072330 0.184319
N1    N     N_R   0.498810 0.498800 0.142780 -0.121816
C29   C     C_R   0.578155 0.576987 0.071389 -0.099709
H23   H     H_    0.641930 0.639943 0.874532 0.140260
C30   C     C_R   0.578086 0.576995 0.928310 -0.083598
N2    N     N_R   0.498760 0.498720 0.857170 -0.120212
N3    N     N_R   0.856166 0.134904 0.846636 0.193927
O9    O     O_R   0.830435 0.248268 0.883937 -0.429766
O10   O     O_R   0.950240 0.079339 0.903505 -0.441525

loop_
_geom_bond_atom_site_label_1
_geom_bond_atom_site_label_2
_geom_bond_distance
_ccdc_geom_bond_type
C5    C6    1.533744 S    
N3    O10   1.301497 A    
C17   C18   1.402208 A    
C5    H2    1.113509 S    
C23   H19   1.063282 S    
H6    C11   1.113427 S    
O4    Zn2   2.006815 S    
C16   H16   1.079483 S    
H17   C21   1.084851 S    
C8    H8    1.113715 S    
Zn2   N1    2.024509 S    
Zn2   O8    2.004391 S    
C4    C10   1.452332 S    
C30   N2    1.367023 A    
C25   H21   1.082421 S    
C13   C14   1.404035 A    
O2    C1    1.289855 A    
C6    C10   1.547755 S    
C27   C28   1.433713 A    
C15   C16   1.391068 A    
C25   C26   1.390354 A    
O1    Zn1   1.991291 S    
C24   H20   1.082867 S    
C27   N2    1.376379 A    
Zn1   O7    2.006816 S    
C16   C17   1.413970 A    
C26   H22   1.063365 S    
C12   H9    1.114270 S    
C21   C22   1.389746 A    
O3    Zn1   2.004389 S    
C3    C22   1.414639 S    
O4    C2    1.286274 A    
C7    C11   1.535172 S    
C10   C12   1.555003 S    
C10   C11   1.549069 S    
C8    H7    1.114109 S    
N3    O9    1.301346 A    
C6    H4    1.110370 S    
C24   C25   1.384168 A    
H5    C7    1.113424 S    
N1    C29   1.366968 A    
H18   C29   1.081847 S    
O7    C4    1.292604 A    
C20   C21   1.363780 A    
C26   C27   1.409507 A    
C8    C12   1.518849 S    
Zn1   N2    2.023996 S    
C17   C22   1.412165 A    
C5    H1    1.112918 S    
C2    C9    1.450361 S    
C14   N3    1.439190 S    
C7    C9    1.549778 S    
C14   C15   1.397391 A    
C8    C9    1.554359 S    
C7    H11   1.113522 S    
C5    C9    1.548711 S    
Zn2   O6    1.991291 S    
O3    C2    1.290753 A    
C15   H15   1.082734 S    
Zn1   O5    1.987943 S    
C6    H3    1.113283 S    
O5    C3    1.286172 A    
C13   H14   1.077666 S    
C12   H10   1.114213 S    
C29   C30   1.419236 A    
C23   C28   1.409784 A    
O1    C1    1.284044 A    
C19   C20   1.391981 A    
H13   C20   1.084594 S    
C11   H12   1.113270 S    
C1    C19   1.416696 S    
C13   C18   1.418742 A    
O2    Zn2   1.987943 S    
C18   C19   1.417564 A    
H23   C30   1.081786 S    
O8    C4    1.285387 A    
C28   N1    1.377085 A    
C23   C24   1.390873 A    
O6    C3    1.285981 A    
