data_mof_unit_41228.cif
_audit_creation_date              2012-12-11T14:43:31-0500
_audit_creation_method            fapswitch 2.2
_symmetry_space_group_name_H-M    P1
_symmetry_Int_Tables_number       1
_space_group_crystal_system       triclinic
_cell_length_a                    20.788031
_cell_length_b                    7.089001
_cell_length_c                    16.43824
_cell_angle_alpha                 88.961498
_cell_angle_beta                  92.49996
_cell_angle_gamma                 89.630356
_cell_volume                      2419.67711938

loop_
_atom_site_label
_atom_site_type_symbol
_atom_type_description
_atom_site_fract_x
_atom_site_fract_y
_atom_site_fract_z
_atom_type_partial_charge
O1    O     O_R   0.564840 0.505290 0.579830 -0.516158
O2    O     O_R   0.435160 0.005290 0.420170 -0.549401
O3    O     O_R   0.556720 0.179930 0.409350 -0.540584
O4    O     O_R   0.443280 0.679930 0.590650 -0.539562
C1    C     C_R   0.569962 0.345945 0.380466 0.713511
C2    C     C_R   0.429134 0.843743 0.618859 0.731861
O5    O     O_R   0.572280 0.175810 0.578530 -0.549470
O6    O     O_R   0.427720 0.675810 0.421470 -0.529020
O7    O     O_R   0.450830 0.001920 0.590540 -0.544381
O8    O     O_R   0.549170 0.501920 0.409460 -0.542050
C3    C     C_R   0.588708 0.341763 0.606728 0.772800
C4    C     C_R   0.410500 0.845887 0.394838 0.787536
O9    O     O_3   0.460130 0.338030 0.503750 -0.374095
O10   O     O_3   0.539870 0.838030 0.496250 -0.369415
V1    V     V_3+5 0.507400 0.064560 0.499310 1.415871
V2    V     V_3+5 0.492600 0.564560 0.500690 1.450460
C5    C     C_R   0.141843 0.912541 0.170337 -0.169396
C6    C     C_R   0.857321 0.424900 0.829809 -0.175952
C7    C     C_R   0.358852 0.862799 0.329653 -0.148889
C8    C     C_R   0.640698 0.343006 0.672482 -0.162073
C9    C     C_R   0.323138 0.961160 0.191512 0.322337
C10   C     C_R   0.691301 0.213937 0.799350 0.327214
C11   C     C_R   0.373484 0.922213 0.250085 0.055979
C12   C     C_R   0.638092 0.223823 0.742616 0.053519
C13   C     C_R   0.294433 0.837689 0.349700 0.259015
C14   C     C_R   0.694423 0.459776 0.662958 0.271794
C15   C     C_R   0.243287 0.883117 0.291525 -0.146378
C16   C     C_R   0.746162 0.459568 0.722961 -0.130922
C17   C     C_R   0.257812 0.923658 0.209536 -0.140959
C18   C     C_R   0.748142 0.320350 0.786152 -0.138489
C19   C     C_R   0.206442 0.927408 0.148436 0.287928
C20   C     C_R   0.806054 0.296178 0.835959 0.284612
C21   C     C_R   0.127482 0.902830 0.253621 0.004054
C22   C     C_R   0.854370 0.564755 0.766918 0.031503
C23   C     C_R   0.178046 0.896320 0.313801 0.358145
C24   C     C_R   0.796828 0.592859 0.719855 0.346235
C25   C     C_R   0.380896 0.706664 0.828988 0.184229
C26   C     C_R   0.617751 0.321381 0.162036 0.186905
H1    H     H_    0.465355 0.686683 0.758064 0.120377
H2    H     H_    0.533312 0.263702 0.229113 0.117789
C27   C     C_R   0.390904 0.841168 0.692996 -0.110115
C28   C     C_R   0.610438 0.357217 0.308633 -0.109800
C29   C     C_R   0.084868 0.969156 0.733035 0.183674
C30   C     C_R   0.919174 0.331973 0.263637 0.178002
C31   C     C_R   0.120238 0.946268 0.662478 0.312235
C32   C     C_R   0.881969 0.270004 0.328470 0.315411
C33   C     C_R   0.185111 0.886838 0.669481 0.283222
C34   C     C_R   0.814264 0.276096 0.320373 0.280772
C35   C     C_R   0.217186 0.869486 0.746967 -0.087683
C36   C     C_R   0.783105 0.366030 0.251593 -0.087833
C37   C     C_R   0.178709 0.847999 0.815940 -0.099749
C38   C     C_R   0.819654 0.413608 0.182917 -0.093939
C39   C     C_R   0.285880 0.847588 0.755454 0.004480
C40   C     C_R   0.714665 0.385933 0.245848 0.018223
C41   C     C_R   0.313145 0.749078 0.825512 -0.000326
C42   C     C_R   0.683402 0.378783 0.167788 -0.017613
C43   C     C_R   0.272069 0.694156 0.888496 0.254653
C44   C     C_R   0.718403 0.435187 0.099628 0.245229
C45   C     C_R   0.206354 0.751105 0.885271 0.293680
C46   C     C_R   0.785682 0.469188 0.109345 0.273969
C47   C     C_R   0.328753 0.921706 0.696498 0.169248
C48   C     C_R   0.675982 0.409722 0.314665 0.167354
C49   C     C_R   0.415987 0.736710 0.759385 -0.269431
C50   C     C_R   0.583087 0.307375 0.233171 -0.258692
C51   C     C_R   0.112533 0.910345 0.810225 -0.189471
C52   C     C_R   0.888462 0.398544 0.189523 -0.183707
O11   O     O_R   0.950790 0.256670 0.090520 -0.544514
O12   O     O_R   0.049210 0.756670 0.909480 -0.525991
O13   O     O_R   0.927720 0.590370 0.921470 -0.545801
O14   O     O_R   0.072280 0.090370 0.078530 -0.542959
C53   C     C_R   0.911043 0.423739 0.893474 0.788332
C54   C     C_R   0.089624 0.920731 0.105196 0.804806
O15   O     O_R   0.943270 0.586180 0.090640 -0.523746
O16   O     O_R   0.056730 0.086180 0.909360 -0.551134
O17   O     O_R   0.064850 0.759970 0.079840 -0.532612
O18   O     O_R   0.935150 0.259970 0.920160 -0.515006
C55   C     C_R   0.928526 0.416033 0.117239 0.814110
C56   C     C_R   0.071763 0.917749 0.882647 0.802409
O19   O     O_3   0.039850 0.428050 0.996240 -0.382305
O20   O     O_3   0.960150 0.928050 0.003760 -0.368013
V3    V     V_3+5 0.992610 0.701540 0.000700 1.488290
V4    V     V_3+5 0.007390 0.201540 0.999300 1.480347
O21   O     O_3   0.217416 0.937430 0.066388 -0.634765
H3    H     H_    0.257312 0.865855 0.057189 0.321335
O22   O     O_3   0.815277 0.143821 0.888683 -0.634574
H4    H     H_    0.797013 0.031462 0.861321 0.316681
C57   C     C_3   0.313567 0.102694 0.647456 -0.295674
C58   C     C_3   0.351891 0.269113 0.681768 -0.743653
H5    H     H_    0.340158 0.291892 0.746186 0.225319
H6    H     H_    0.404366 0.244984 0.678939 0.236441
H7    H     H_    0.339160 0.399345 0.645877 0.237683
H8    H     H_    0.323807 0.083224 0.582358 0.200495
H9    H     H_    0.262615 0.146673 0.649775 0.203550
C59   C     C_3   0.700100 0.524741 0.386985 -0.336067
C60   C     C_3   0.680938 0.732371 0.375043 -0.677470
H10   H     H_    0.705394 0.794083 0.322103 0.224516
H11   H     H_    0.628190 0.749391 0.364158 0.234159
H12   H     H_    0.695843 0.811924 0.430235 0.240350
H13   H     H_    0.680443 0.467174 0.443777 0.203043
H14   H     H_    0.753082 0.522007 0.396127 0.206678
O23   O     O_3   0.022732 0.040786 0.722741 -0.658237
H15   H     H_    0.000386 0.040807 0.774423 0.281369
O24   O     O_3   0.985411 0.312959 0.273516 -0.674015
H16   H     H_    0.007353 0.365619 0.226259 0.271847
O25   O     O_3   0.217709 0.834405 0.601656 -0.639046
H17   H     H_    0.187423 0.826333 0.553798 0.355324
O26   O     O_3   0.776920 0.183516 0.376246 -0.654800
H18   H     H_    0.804340 0.114900 0.417801 0.337172
O27   O     O_3   0.093225 0.983036 0.585245 -0.638100
H19   H     H_    0.046942 0.014388 0.587924 0.344022
O28   O     O_3   0.910247 0.196964 0.400269 -0.649123
H20   H     H_    0.957674 0.206814 0.400013 0.341846
O29   O     O_3   0.167620 0.694188 0.946580 -0.628787
H21   H     H_    0.170089 0.554401 0.949840 0.291996
O30   O     O_3   0.818331 0.554658 0.047576 -0.647639
H22   H     H_    0.789959 0.652413 0.020855 0.297626
C61   C     C_3   0.058409 0.906293 0.280561 -0.298149
C62   C     C_3   0.041188 0.721283 0.322974 -0.640530
H23   H     H_    0.061406 0.600801 0.290294 0.221800
H24   H     H_    0.060969 0.716635 0.386785 0.264184
H25   H     H_    0.988032 0.707565 0.324014 0.218393
H26   H     H_    0.052263 0.023923 0.323262 0.244235
H27   H     H_    0.023110 0.931664 0.228920 0.159141
C63   C     C_3   0.912685 0.682311 0.745439 -0.295214
C64   C     C_3   0.934969 0.635859 0.660541 -0.654560
H28   H     H_    0.945921 0.482675 0.656969 0.225959
H29   H     H_    0.897746 0.674960 0.612679 0.257414
H30   H     H_    0.979379 0.715528 0.648130 0.230202
H31   H     H_    0.900538 0.834865 0.748290 0.213378
H32   H     H_    0.955036 0.656706 0.787221 0.163859
O31   O     O_3   0.339152 0.048682 0.119573 -0.661135
H33   H     H_    0.305491 0.144696 0.105142 0.315571
O32   O     O_3   0.684255 0.108330 0.869765 -0.653494
H34   H     H_    0.704223 0.178050 0.915792 0.317863
O33   O     O_3   0.162117 0.919258 0.393705 -0.640601
H35   H     H_    0.196285 0.995118 0.421120 0.320338
O34   O     O_3   0.790511 0.758945 0.674814 -0.647413
H36   H     H_    0.745138 0.802183 0.676384 0.315610
C65   C     C_3   0.443230 0.941403 0.226663 -0.333576
C66   C     C_3   0.473534 0.748352 0.212994 -0.768890
H37   H     H_    0.477277 0.664197 0.270555 0.226526
H38   H     H_    0.443987 0.669718 0.167283 0.234564
H39   H     H_    0.522721 0.766457 0.190343 0.221014
H40   H     H_    0.447597 0.027767 0.170211 0.224616
H41   H     H_    0.471747 0.015405 0.274640 0.162923
C67   C     C_3   0.577135 0.114771 0.760972 -0.295220
C68   C     C_3   0.524196 0.246754 0.788130 -0.792712
H42   H     H_    0.541403 0.324967 0.842703 0.238643
H43   H     H_    0.509772 0.349487 0.738885 0.208530
H44   H     H_    0.481328 0.163191 0.803922 0.222240
H45   H     H_    0.559537 0.032731 0.708004 0.176966
H46   H     H_    0.586016 0.006672 0.809910 0.223178
O35   O     O_3   0.283434 0.761768 0.425772 -0.642980
H47   H     H_    0.244754 0.681133 0.420863 0.322025
O36   O     O_3   0.697239 0.561318 0.590807 -0.651294
H48   H     H_    0.742260 0.556861 0.573364 0.312294
O37   O     O_3   0.296318 0.579219 0.951587 -0.661366
H49   H     H_    0.267759 0.577987 0.998033 0.302681
O38   O     O_3   0.685468 0.473057 0.026290 -0.655529
H50   H     H_    0.715442 0.463802 0.981382 0.295426
C69   C     C_3   0.419769 0.637308 0.904465 -0.312102
C70   C     C_3   0.424704 0.790434 0.968768 -0.659963
H51   H     H_    0.448219 0.917606 0.943430 0.212216
H52   H     H_    0.376673 0.831590 0.989498 0.270168
H53   H     H_    0.454400 0.738053 0.022205 0.209039
H54   H     H_    0.401373 0.502757 0.929189 0.226417
H55   H     H_    0.470016 0.602197 0.889339 0.153051
C71   C     C_3   0.585032 0.247583 0.084793 -0.280231
C72   C     C_3   0.536425 0.389658 0.047245 -0.715287
H56   H     H_    0.560189 0.525155 0.032682 0.260363
H57   H     H_    0.514360 0.331965 0.990343 0.207852
H58   H     H_    0.497511 0.415905 0.089860 0.213362
H59   H     H_    0.620039 0.205607 0.039386 0.218938
H60   H     H_    0.559160 0.115181 0.099444 0.155282

loop_
_geom_bond_atom_site_label_1
_geom_bond_atom_site_label_2
_ccdc_geom_bond_type
C57   C58   S    
C21   C61   S    
O37   H49   S    
C15   C17   A    
C72   H56   S    
C30   C52   A    
C60   H10   S    
O1    C3    A    
C66   H39   S    
C27   C47   A    
C1    C28   S    
C57   H8    S    
O2    C4    A    
C29   C51   A    
C2    O7    A    
C69   C70   S    
C60   H12   S    
C38   C52   A    
O33   H35   S    
C33   C35   A    
O22   H4    S    
C34   C36   A    
C71   H60   S    
O23   H15   S    
C6    C20   A    
O12   V3    S    
C11   C65   S    
C68   H43   S    
C66   H38   S    
C67   C68   S    
C44   O38   S    
O38   H50   S    
C12   C67   S    
C53   O18   A    
C31   O27   S    
C43   C45   A    
C34   O26   S    
C44   C46   A    
O30   H22   S    
C19   O21   S    
C37   C51   A    
C31   C33   A    
O13   C53   A    
C62   H23   S    
C9    O31   S    
C38   C46   A    
C68   H42   S    
C39   C47   A    
C8    C12   A    
C33   O25   S    
C2    C27   S    
O11   C55   A    
C64   H30   S    
C36   C38   A    
O26   H18   S    
C47   C57   S    
C24   O34   S    
C28   C48   A    
C26   C50   A    
C69   H54   S    
C45   O29   S    
O5    V1    S    
C64   H28   S    
O6    V2    S    
C32   O28   S    
C72   H57   S    
C14   O36   S    
C5    C21   A    
O16   V4    S    
C54   O17   A    
C7    C13   A    
O15   V3    S    
C25   C49   A    
C30   O24   S    
C30   C32   A    
C70   H52   S    
C39   C41   A    
C9    C11   A    
O12   C56   A    
C71   H59   S    
C40   C42   A    
C3    C8    S    
C10   O32   S    
C13   O35   S    
C68   H44   S    
C66   H37   S    
O20   V4    S    
O18   V4    S    
O19   V3    S    
C7    C11   A    
O17   V3    S    
C40   C48   A    
C35   C37   A    
C9    C17   A    
C62   H25   S    
O4    V2    S    
O5    C3    A    
C61   H26   S    
C29   O23   S    
C70   H53   S    
C29   C31   A    
C65   H40   S    
O21   H3    S    
C58   H7    S    
C59   H14   S    
O6    C4    A    
C63   H32   S    
O1    V2    S    
C36   C40   A    
O2    V1    S    
C6    C22   A    
C69   H55   S    
C5    C54   S    
C67   H46   S    
O4    C2    A    
C71   C72   S    
C58   H6    S    
C48   C59   S    
O32   H34   S    
C5    C19   A    
C72   H58   S    
C10   C12   A    
C37   C45   A    
C27   C49   A    
C23   O33   S    
O31   H33   S    
C28   C50   A    
O36   H48   S    
O3    V1    S    
C25   C69   S    
O29   H21   S    
O34   H36   S    
C6    C53   S    
C52   C55   S    
C43   O37   S    
C65   H41   S    
C22   C63   S    
C51   C56   S    
C10   C18   A    
O28   H20   S    
O20   V3    S    
O3    C1    A    
O19   V4    S    
C65   C66   S    
C60   H11   S    
C70   H51   S    
H1    C49   S    
O25   H17   S    
C14   C16   A    
H2    C50   S    
C15   C23   A    
C41   C43   A    
C61   H27   S    
C1    O8    A    
C17   C19   A    
O8    V2    S    
C61   C62   S    
C18   C20   A    
C26   C71   S    
C8    C14   A    
C59   H13   S    
C35   C39   A    
C20   O22   S    
C57   H9    S    
C4    C7    S    
C16   C18   A    
C21   C23   A    
C42   C44   A    
C63   H31   S    
C22   C24   A    
O7    V1    S    
C59   C60   S    
O14   V4    S    
C62   H24   S    
O13   V3    S    
C67   H45   S    
C25   C41   A    
C32   C34   A    
C26   C42   A    
C58   H5    S    
C16   C24   A    
O11   V4    S    
O16   C56   A    
O9    V2    S    
O24   H16   S    
C64   H29   S    
O15   C55   A    
O10   V1    S    
C46   O30   S    
O14   C54   A    
O35   H47   S    
O27   H19   S    
C63   C64   S    
C13   C15   A    
