data_mof_unit_28817.cif
_audit_creation_date              2013-03-05T16:44:35-0500
_audit_creation_method            fapswitch 2.2
_symmetry_space_group_name_H-M    P1
_symmetry_Int_Tables_number       1
_space_group_crystal_system       triclinic
_cell_length_a                    27.656822
_cell_length_b                    10.663377
_cell_length_c                    9.892301
_cell_angle_alpha                 89.384941
_cell_angle_beta                  88.894441
_cell_angle_gamma                 91.1766
_cell_volume                      2916.05023599

loop_
_atom_site_label
_atom_site_type_symbol
_atom_site_description
_atom_site_fract_x
_atom_site_fract_y
_atom_site_fract_z
_atom_type_partial_charge
O1    O     O_R   0.500010 0.316790 0.614690 -0.626889
O2    O     O_R   0.500000 0.316760 0.385350 -0.616209
C1    C     C_R   0.502688 0.260044 0.500328 0.875760
O3    O     O_R   0.428760 0.500040 0.614660 -0.629290
O4    O     O_R   0.428750 0.500000 0.385310 -0.574108
C2    C     C_R   0.406261 0.497763 0.501518 0.918524
Zn1   Zn    Zn3+2 0.500000 0.500020 0.653130 0.950043
Zn2   Zn    Zn3+2 0.500000 0.499980 0.346870 0.952820
O5    O     O_R   0.500000 0.683240 0.614650 -0.614284
O6    O     O_R   0.499990 0.683210 0.385310 -0.634035
O7    O     O_R   0.571250 0.500000 0.614690 -0.578397
O8    O     O_R   0.571240 0.499960 0.385340 -0.636104
C3    C     C_R   0.502069 0.740118 0.499163 0.873304
C4    C     C_R   0.593915 0.501522 0.498725 0.894312
C5    C     C_R   0.175399 0.367412 0.545460 0.535322
O9    O     O_2   0.198214 0.269924 0.602126 -0.523032
N1    N     N_R   0.201854 0.469579 0.501313 -0.347761
C6    C     C_R   0.181207 0.570576 0.441204 0.528316
C7    C     C_R   0.277217 0.554480 0.599257 0.257477
C8    C     C_R   0.327621 0.563257 0.593274 -0.312530
C9    C     C_R   0.330105 0.393257 0.431518 0.434556
C10   C     C_R   0.279838 0.388731 0.431505 -0.244327
C11   C     C_R   0.253277 0.469554 0.513281 0.245552
C12   C     C_R   0.102466 0.471059 0.477718 -0.162853
C13   C     C_R   0.125018 0.363818 0.531282 -0.126900
C14   C     C_R   0.096694 0.257087 0.570178 0.538177
C15   C     C_R   0.130497 0.577082 0.432764 -0.019204
C16   C     C_R   0.353911 0.486164 0.506510 -0.195432
H1    H     H_    0.261302 0.321885 0.367910 0.171415
C17   C     C_R   0.646657 0.503230 0.494665 -0.151216
C18   C     C_R   0.973359 0.363350 0.479059 0.052057
C19   C     C_R   0.977864 0.591942 0.458911 -0.004909
C20   C     C_R   0.950154 0.479362 0.469451 0.074023
C21   C     C_R   0.945771 0.252214 0.466387 -0.223886
C22   C     C_R   0.895498 0.254282 0.453705 0.159728
C23   C     C_R   0.871334 0.370335 0.466452 -0.010270
C24   C     C_R   0.899192 0.483129 0.472495 -0.157131
C25   C     C_R   0.876372 0.600046 0.483722 -0.141470
C26   C     C_R   0.825815 0.602815 0.483319 0.524755
N2    N     N_R   0.799250 0.493625 0.480036 -0.345339
C27   C     C_R   0.820510 0.379077 0.473935 0.516170
C28   C     C_R   0.720791 0.446581 0.379383 -0.089901
C29   C     C_R   0.670664 0.446914 0.385704 -0.298484
C30   C     C_R   0.673511 0.561984 0.596810 0.439388
C31   C     C_R   0.723847 0.555644 0.593035 -0.205391
C32   C     C_R   0.747560 0.499020 0.484011 0.241059
O10   O     O_2   0.792137 0.274791 0.478829 -0.571944
C33   C     C_R   0.023801 0.362493 0.498670 -0.004915
C34   C     C_R   0.051585 0.472773 0.471116 0.079836
C35   C     C_R   0.028432 0.585724 0.440460 0.049819
C36   C     C_R   0.046745 0.256892 0.551217 -0.336250
H2    H     H_    0.650661 0.401629 0.306147 0.177590
H3    H     H_    0.738919 0.403597 0.294203 0.160011
H4    H     H_    0.963494 0.163008 0.458756 0.144823
H5    H     H_    0.025912 0.176089 0.587471 0.161746
O11   O     O_2   0.210248 0.663742 0.391321 -0.565430
C37   C     C_R   0.106620 0.684555 0.382285 0.196599
H6    H     H_    0.346406 0.630758 0.655749 0.176069
C38   C     C_R   0.954641 0.706835 0.475752 -0.336456
C39   C     C_R   0.904810 0.710588 0.497243 0.524628
O12   O     O_2   0.803124 0.713698 0.482926 -0.522215
C40   C     C_R   0.056206 0.688626 0.391740 -0.237360
H7    H     H_    0.975031 0.793918 0.484717 0.158412
H8    H     H_    0.744543 0.596684 0.673879 0.162400
H9    H     H_    0.038595 0.771742 0.355345 0.151005
C41   C     C_R   0.519599 0.062932 0.619438 0.145866
C42   C     C_R   0.513184 0.129488 0.499192 -0.134407
C43   C     C_R   0.517873 0.067201 0.375196 -0.220850
H10   H     H_    0.517611 0.117157 0.279273 0.169322
C44   C     C_R   0.517045 0.937408 0.374219 -0.228673
H11   H     H_    0.516446 0.890003 0.277932 0.172909
C45   C     C_R   0.511716 0.871629 0.497225 -0.108249
C46   C     C_R   0.517966 0.934701 0.618147 0.080595
C47   C     C_3   0.490419 0.924202 0.749297 -0.467599
C48   C     C_3   0.493113 0.066625 0.752726 -0.037889
H12   H     H_    0.452974 0.886628 0.736747 0.181268
H13   H     H_    0.511084 0.876327 0.829337 0.210148
H14   H     H_    0.457072 0.110031 0.745494 0.156912
C49   C     C_R   0.459156 0.467973 0.073833 0.139474
N3    N     N_R   0.499670 0.499140 0.142800 -0.112031
C50   C     C_R   0.537984 0.550939 0.067331 0.198693
C51   C     C_R   0.538207 0.546826 0.923855 -0.155314
H15   H     H_    0.569310 0.581135 0.865883 0.209637
N4    N     N_R   0.499670 0.499180 0.857150 -0.145135
C52   C     C_R   0.458638 0.470237 0.931636 0.202998
C53   C     C_3   0.429591 0.350031 0.930546 -0.112239
C54   C     C_3   0.431205 0.347945 0.084316 -0.446262
H16   H     H_    0.449205 0.272495 0.883628 0.188976
H17   H     H_    0.395585 0.360487 0.135177 0.269197
H18   H     H_    0.453025 0.270375 0.125237 0.181002
O13   O     O_3   0.355608 0.306842 0.357328 -0.621844
C55   C     C_3   0.364577 0.202572 0.441862 0.093963
H19   H     H_    0.330365 0.162658 0.487619 0.157110
H20   H     H_    0.389646 0.229460 0.523955 0.121001
C56   C     C_3   0.388069 0.100596 0.358590 -0.808293
H21   H     H_    0.421917 0.137526 0.309791 0.255765
H22   H     H_    0.396822 0.019852 0.424987 0.209952
H23   H     H_    0.363079 0.068135 0.279077 0.259434
C57   C     C_3   0.250438 0.636818 0.696778 -0.837468
H24   H     H_    0.264576 0.622964 0.800076 0.230461
H25   H     H_    0.255979 0.736688 0.666370 0.250941
H26   H     H_    0.211058 0.615097 0.701473 0.235743
C58   C     C_3   0.132870 0.797347 0.319900 -0.811733
H27   H     H_    0.107619 0.870143 0.285183 0.201232
H28   H     H_    0.156686 0.842027 0.395090 0.255471
H29   H     H_    0.154353 0.768443 0.229969 0.272216
O14   O     O_3   0.650974 0.625430 0.700718 -0.614870
C59   C     C_3   0.648417 0.753124 0.662300 0.114247
H30   H     H_    0.624768 0.764330 0.573164 0.130697
H31   H     H_    0.685042 0.793886 0.637734 0.162620
C60   C     C_3   0.627013 0.827230 0.778581 -0.832709
H32   H     H_    0.649824 0.818149 0.869206 0.256203
H33   H     H_    0.625251 0.927830 0.749275 0.218071
H34   H     H_    0.589939 0.791743 0.803494 0.245089
O15   O     O_3   0.884847 0.822008 0.538691 -0.578750
C61   C     C_3   0.885216 0.823263 0.681748 0.118742
H35   H     H_    0.922746 0.815496 0.719782 0.123664
H36   H     H_    0.862376 0.744826 0.725110 0.146614
C62   C     C_3   0.864920 0.945701 0.732893 -0.797387
H37   H     H_    0.827682 0.957843 0.695516 0.275842
H38   H     H_    0.863625 0.944392 0.845168 0.208880
H39   H     H_    0.888494 0.025672 0.698126 0.247216
C63   C     C_3   0.525085 0.117588 0.865495 -0.873811
H40   H     H_    0.560238 0.069002 0.868104 0.251226
H41   H     H_    0.532565 0.219342 0.849238 0.259758
H42   H     H_    0.506192 0.103666 0.964745 0.230647
C64   C     C_3   0.580322 0.614679 0.131765 -0.810709
H43   H     H_    0.568313 0.673332 0.217098 0.261565
H44   H     H_    0.606569 0.543740 0.163620 0.248269
H45   H     H_    0.599631 0.679072 0.058994 0.204824
C65   C     C_3   0.378358 0.364181 0.877110 -0.822128
H46   H     H_    0.354739 0.286438 0.917355 0.247844
H47   H     H_    0.362631 0.454994 0.907529 0.249505
H48   H     H_    0.378871 0.357601 0.765530 0.247931
O16   O     O_3   0.116897 0.158920 0.640957 -0.559303
C66   C     C_3   0.113044 0.045207 0.569010 0.131724
H49   H     H_    0.150203 0.015485 0.542218 0.184914
H50   H     H_    0.092703 0.050946 0.472763 0.101135
C67   C     C_3   0.089309 0.944712 0.660051 -0.846594
H51   H     H_    0.051609 0.970528 0.686144 0.241438
H52   H     H_    0.088611 0.853404 0.607480 0.224161
H53   H     H_    0.110011 0.934521 0.754492 0.274250
C68   C     C_3   0.869837 0.132222 0.420631 -0.721577
H54   H     H_    0.895544 0.055275 0.402268 0.236275
H55   H     H_    0.845514 0.101633 0.505305 0.282871
H56   H     H_    0.848788 0.143989 0.327052 0.247537

loop_
_geom_bond_atom_site_label_1
_geom_bond_atom_site_label_2
_geom_bond_distance
_ccdc_geom_bond_type
C68   H56   1.110347 S    
C10   H1    1.083396 S    
C46   C47   1.493785 S    
C56   H21   1.108049 S    
C12   C15   1.420163 A    
C65   H48   1.106593 S    
C49   C54   1.483216 S    
C50   C51   1.420356 A    
C56   H23   1.110493 S    
O16   C66   1.415765 S    
C31   C32   1.400280 A    
C61   H35   1.115226 S    
Zn1   O7    1.999691 S    
N1    C11   1.429409 S    
C47   H12   1.112387 S    
C48   C63   1.533950 S    
C23   C24   1.417428 A    
C60   H32   1.110660 S    
C66   C67   1.522474 S    
C28   H3    1.083006 S    
O4    C2    1.296197 A    
C67   H53   1.110604 S    
C53   H16   1.100097 S    
C29   H2    1.082871 S    
C63   H41   1.109835 S    
C68   H54   1.110811 S    
C59   H30   1.114792 S    
C68   H55   1.106293 S    
C21   C22   1.399043 A    
C28   C32   1.398946 A    
O5    C3    1.287426 A    
C14   O16   1.386208 S    
C58   H28   1.108024 S    
C33   C36   1.403707 A    
C2    C16   1.450411 S    
C22   C23   1.424095 A    
C59   H31   1.115415 S    
C43   H10   1.083427 S    
C47   H13   1.111275 S    
O14   C59   1.413291 S    
C18   C20   1.408434 A    
C44   H11   1.083354 S    
C58   H29   1.110154 S    
C6    O11   1.347954 S    
C41   C42   1.394727 A    
C38   C39   1.391882 A    
C9    C10   1.390083 A    
C50   C64   1.498232 S    
C17   C30   1.410160 A    
C23   C27   1.411218 A    
C4    C17   1.458205 S    
O3    Zn1   2.013888 S    
C26   O12   1.349940 S    
C62   H38   1.110470 S    
C37   C58   1.511763 S    
O2    Zn2   1.986466 S    
C47   C48   1.519785 S    
C42   C43   1.406207 A    
C61   C62   1.519538 S    
C63   H40   1.111605 S    
C12   C13   1.416512 A    
C66   H50   1.116947 S    
C15   C37   1.424900 A    
O13   C55   1.412951 S    
C7    C57   1.505792 S    
C53   C54   1.522593 S    
C45   C46   1.390531 A    
C63   H42   1.110362 S    
C8    C16   1.398856 A    
C37   C40   1.397227 A    
C13   C14   1.413982 A    
C52   C53   1.498942 S    
C41   C46   1.367398 A    
C51   H15   1.079926 S    
C55   C56   1.520109 S    
C20   C24   1.410591 A    
O1    C1    1.290270 A    
C7    C11   1.412607 A    
C64   H44   1.106683 S    
C24   C25   1.413355 A    
C57   H24   1.110604 S    
Zn2   O8    2.013888 S    
C55   H20   1.113980 S    
N1    C6    1.365323 A    
C27   O10   1.347693 S    
C18   C21   1.404291 A    
C60   H33   1.110487 S    
O7    C4    1.296373 A    
N4    C52   1.369117 A    
C62   H37   1.110525 S    
C19   C35   1.409897 A    
C25   C39   1.412544 A    
O3    C2    1.291244 A    
N2    C27   1.367853 A    
C57   H25   1.110284 S    
C9    C16   1.404682 A    
O8    C4    1.295664 A    
C21   H4    1.081700 S    
C51   N4    1.357050 A    
C18   C33   1.412393 A    
C54   H17   1.108701 S    
C35   C40   1.402170 A    
C17   C29   1.402111 A    
C28   C29   1.386645 A    
N2    C32   1.431723 S    
C8    H6    1.084685 S    
C64   H43   1.105936 S    
C49   C52   1.406955 A    
C30   C31   1.394969 A    
C9    O13   1.380747 S    
C30   O14   1.382140 S    
C12   C34   1.410475 A    
C5    N1    1.362952 A    
C33   C34   1.412647 A    
C40   H9    1.081673 S    
O1    Zn1   1.994518 S    
Zn2   O6    1.994517 S    
C1    C42   1.428057 S    
C6    C15   1.409649 A    
N3    C50   1.386321 A    
C65   H47   1.111753 S    
O6    C3    1.286770 A    
O4    Zn2   1.999693 S    
C67   H51   1.110173 S    
C56   H22   1.110804 S    
C3    C45   1.421961 S    
C31   H8    1.083323 S    
C38   H7    1.081827 S    
C59   C60   1.520041 S    
C19   C20   1.412730 A    
C7    C8    1.395300 A    
O2    C1    1.286584 A    
C64   H45   1.111029 S    
C14   C36   1.397651 A    
C67   H52   1.108744 S    
O15   C61   1.415593 S    
C25   C26   1.399264 A    
C41   C48   1.497228 S    
C55   H19   1.115400 S    
C62   H39   1.110314 S    
C61   H36   1.114771 S    
Zn1   N4    2.017995 S    
C60   H34   1.107959 S    
C36   H5    1.080748 S    
C65   H46   1.110457 S    
C53   C65   1.531610 S    
C48   H14   1.110797 S    
C5    C13   1.402902 A    
C49   N3    1.360330 A    
C26   N2    1.364950 A    
Zn1   O5    1.986465 S    
C57   H26   1.108809 S    
C43   C44   1.383886 A    
C34   C35   1.408544 A    
C54   H18   1.111295 S    
C58   H27   1.110873 S    
Zn2   N3    2.019034 S    
C10   C11   1.398147 A    
C66   H49   1.109744 S    
C39   O15   1.383187 S    
C44   C45   1.401741 A    
C19   C38   1.404933 A    
C5    O9    1.349495 S    
C22   C68   1.511619 S    
