data_mof_unit_24154.cif
_audit_creation_date              2012-12-11T14:56:48-0500
_audit_creation_method            fapswitch 2.2
_symmetry_space_group_name_H-M    P1
_symmetry_Int_Tables_number       1
_space_group_crystal_system       triclinic
_cell_length_a                    10.513699
_cell_length_b                    10.746654
_cell_length_c                    17.085793
_cell_angle_alpha                 79.816668
_cell_angle_beta                  90.21531
_cell_angle_gamma                 119.65613
_cell_volume                      1643.24628275

loop_
_atom_site_label
_atom_site_type_symbol
_atom_type_description
_atom_site_fract_x
_atom_site_fract_y
_atom_site_fract_z
_atom_type_partial_charge
C1    C     C_R   0.222634 0.854021 0.128711 0.549684
C2    C     C_1   0.633831 0.308399 0.705026 -0.010532
C3    C     C_R   0.637880 0.714825 0.808907 -0.065074
C4    C     C_R   0.633809 0.270384 0.090725 0.550386
C5    C     C_R   0.619502 0.693423 0.731697 0.223584
C6    C     C_R   0.670663 0.816061 0.667901 0.028258
C7    C     C_R   0.743017 0.957699 0.683074 -0.179562
C8    C     C_R   0.754106 0.977323 0.761219 -0.150988
C9    C     C_R   0.694674 0.854865 0.824054 -0.015024
C10   C     C_R   0.237305 0.961929 0.760654 -0.176543
C11   C     C_R   0.227669 0.949259 0.682328 -0.189407
C12   C     C_R   0.706035 0.249022 0.303823 0.207251
C13   C     C_R   0.157983 0.811285 0.663329 0.001936
C14   C     C_R   0.111320 0.683936 0.723877 0.177010
C15   C     C_R   0.117600 0.696529 0.803953 0.236997
C16   C     C_R   0.643938 0.855776 0.124242 0.545569
C17   C     C_R   0.180637 0.837007 0.821823 0.005121
C18   C     C_R   0.711815 0.772411 0.353674 0.575616
C19   C     C_R   0.679490 0.382917 0.399828 0.523444
C20   C     C_R   0.103988 0.810864 0.359273 0.536853
C21   C     C_R   0.678621 0.796703 0.587158 0.566505
C22   C     C_R   0.674882 0.375213 0.623287 0.561988
C23   C     C_R   0.716505 0.249765 0.223369 -0.073223
C24   C     C_R   0.099952 0.800998 0.586268 0.557207
C25   C     C_R   0.221236 0.862562 0.900287 0.522740
C26   C     C_R   0.612936 0.220481 0.859204 0.556156
C27   C     C_R   0.648661 0.867511 0.899913 0.533275
C28   C     C_R   0.541119 0.333495 0.201287 -0.121006
C29   C     C_R   0.531393 0.337811 0.282530 0.104702
C30   C     C_R   0.627720 0.310305 0.331861 0.007619
C31   C     C_3   0.158320 0.504327 0.685595 -0.272875
C32   C     C_3   0.336145 0.406413 0.265003 -0.279535
C33   C     C_R   0.638603 0.296620 0.171306 -0.054247
C34   C     C_1   0.685794 0.831671 0.201754 -0.041836
C35   C     C_1   0.704169 0.807209 0.270531 -0.019245
C36   C     C_1   0.181119 0.825698 0.211433 -0.033288
C37   C     C_1   0.152021 0.820883 0.279886 -0.029302
C38   C     C_1   0.619872 0.264797 0.775508 -0.033147
Cr1   Cr    Cr6+3 0.402240 0.783890 0.019450 1.029408
Cr2   Cr    Cr6+3 0.382360 0.097900 0.991800 1.032950
Cr3   Cr    Cr6+3 0.715380 0.118170 0.988700 1.041787
Cr4   Cr    Cr6+3 0.936650 0.882420 0.465510 1.044513
Cr5   Cr    Cr6+3 0.605770 0.565620 0.493360 1.025381
Cr6   Cr    Cr6+3 0.921340 0.550490 0.496380 1.037414
H1    H     H_    0.472284 0.356208 0.160968 0.135996
H2    H     H_    0.239785 0.588230 0.636004 0.148283
H3    H     H_    0.102899 0.397658 0.666319 0.136296
H4    H     H_    0.037318 0.590203 0.912990 0.333891
H5    H     H_    0.373987 0.302742 0.370343 0.262729
H6    H     H_    0.258662 0.311617 0.239024 0.147972
H7    H     H_    0.405444 0.502548 0.217003 0.175369
H8    H     H_    0.271166 0.436034 0.300969 0.161541
H9    H     H_    0.729365 0.161064 0.407909 0.331107
H10   H     H_    0.462822 0.531958 0.695977 0.328778
H11   H     H_    0.267101 0.047653 0.636648 0.142246
H12   H     H_    0.781035 0.206610 0.202407 0.172250
H13   H     H_    0.593492 0.620237 0.857571 0.158812
H14   H     H_    0.788012 0.052395 0.634554 0.129477
H15   H     H_    0.798591 0.086898 0.772287 0.142541
H16   H     H_    0.292336 0.071242 0.773085 0.156080
H17   H     H_    0.964389 0.459960 0.744791 0.296425
H18   H     H_    0.216070 0.494798 0.738976 0.157046
N1    N     N_2   0.050000 0.542631 0.704867 -0.451870
N2    N     N_2   0.427657 0.368933 0.315825 -0.486856
O1    O     O_R   0.521780 0.757110 0.108900 -0.522668
O2    O     O_R   0.805020 0.410040 0.421340 -0.494714
O3    O     O_R   0.049240 0.685450 0.403290 -0.496295
O4    O     O_R   0.275160 0.783810 0.101120 -0.493704
O5    O     O_R   0.077520 0.903010 0.551800 -0.523242
O6    O     O_R   0.802980 0.872780 0.546830 -0.490578
O7    O     O_R   0.578090 0.681300 0.569920 -0.517780
O8    O     O_R   0.608530 0.436370 0.586530 -0.476366
O9    O     O_R   0.798770 0.401880 0.597100 -0.514021
O10   O     O_R   0.043450 0.677890 0.566230 -0.466851
O11   O     O_3   0.821250 0.666180 0.485090 -0.277020
O12   O     O_R   0.513330 0.228330 0.898660 -0.482515
O13   O     O_R   0.237900 0.972600 0.090980 -0.509513
O14   O     O_R   0.511190 0.220540 0.061620 -0.495980
O15   O     O_R   0.736920 0.257720 0.063840 -0.513579
O16   O     O_R   0.710450 0.984050 0.081720 -0.496922
O17   O     O_R   0.524090 0.765520 0.933110 -0.510942
O18   O     O_R   0.277300 0.791600 0.938160 -0.484906
O19   O     O_R   0.240210 0.981010 0.915190 -0.526645
O20   O     O_3   0.062055 0.570636 0.862356 -0.686424
O21   O     O_3   0.777619 0.192253 0.352695 -0.675435
O22   O     O_3   0.554791 0.551987 0.720573 -0.685719
O23   O     O_R   0.739230 0.266130 0.888050 -0.482544
O24   O     O_R   0.712580 0.991850 0.918770 -0.518159
O25   O     O_3   0.499990 0.999980 0.999980 -0.279582
O26   O     O_R   0.083770 0.911170 0.376030 -0.518328
O27   O     O_R   0.808770 0.880340 0.383890 -0.469458
O28   O     O_R   0.584340 0.689460 0.394160 -0.496190
O29   O     O_R   0.614320 0.443940 0.423590 -0.510551

loop_
_geom_bond_atom_site_label_1
_geom_bond_atom_site_label_2
_ccdc_geom_bond_type
Cr3   O25   S    
Cr5   O8    S    
C1    O13   A    
Cr1   O4    S    
C20   O3    A    
Cr6   O2    S    
C31   H18   S    
Cr3   O16   S    
C7    C8    A    
C12   C23   A    
Cr4   O11   S    
C12   O21   S    
C21   O7    A    
C18   O27   A    
C36   C37   T    
Cr4   O27   S    
C8    H15   S    
C5    C6    A    
C10   C17   A    
Cr4   O6    S    
C1    O4    A    
C19   O2    A    
C34   C35   T    
C26   O23   A    
C23   H12   S    
H17   N1    S    
C32   H8    S    
C16   C34   S    
C8    C9    A    
C23   C33   A    
C31   H2    S    
C2    C22   S    
C26   O12   A    
Cr2   O25   S    
C18   C35   S    
C7    H14   S    
C19   O29   A    
C32   N2    S    
C29   N2    S    
H5    N2    S    
C31   H3    S    
C13   C14   A    
Cr1   O1    S    
Cr2   O19   S    
C27   O24   A    
C22   O8    A    
C24   O5    A    
Cr5   O11   S    
Cr3   O23   S    
C28   H1    S    
C31   N1    S    
C27   O17   A    
Cr1   O17   S    
C4    O15   A    
H10   O22   S    
C26   C38   S    
C6    C21   S    
C20   O26   A    
Cr4   O5    S    
H4    O20   S    
C13   C24   S    
Cr4   O26   S    
Cr6   O11   S    
C10   H16   S    
C32   H7    S    
C4    O14   A    
C29   C30   A    
C3    C9    A    
C2    C38   T    
Cr6   O10   S    
C32   H6    S    
C15   O20   S    
C5    O22   S    
C3    H13   S    
C28   C33   A    
C25   O18   A    
Cr2   O14   S    
C11   H11   S    
C9    C27   S    
C15   C17   A    
Cr3   O24   S    
C4    C33   S    
C28   C29   A    
Cr5   O7    S    
C12   C30   A    
C14   C15   A    
Cr1   O18   S    
C3    C5    A    
Cr3   O15   S    
C6    C7    A    
Cr5   O28   S    
C21   O6    A    
C17   C25   S    
C18   O28   A    
C20   C37   S    
C11   C13   A    
C24   O10   A    
C14   N1    S    
Cr5   O29   S    
Cr6   O9    S    
C10   C11   A    
Cr2   O12   S    
C25   O19   A    
Cr2   O13   S    
Cr6   O3    S    
H9    O21   S    
C16   O1    A    
C22   O9    A    
C16   O16   A    
C19   C30   S    
Cr1   O25   S    
C1    C36   S    
