data_mof_unit_40732.cif
_audit_creation_date              2012-12-11T15:09:34-0500
_audit_creation_method            fapswitch 2.2
_symmetry_space_group_name_H-M    P1
_symmetry_Int_Tables_number       1
_space_group_crystal_system       triclinic
_cell_length_a                    20.982089
_cell_length_b                    7.129295
_cell_length_c                    14.019583
_cell_angle_alpha                 90.386207
_cell_angle_beta                  98.326425
_cell_angle_gamma                 89.509766
_cell_volume                      2074.94048968

loop_
_atom_site_label
_atom_site_type_symbol
_atom_type_description
_atom_site_fract_x
_atom_site_fract_y
_atom_site_fract_z
_atom_type_partial_charge
O1    O     O_R   0.447130 0.507140 0.597350 -0.537085
O2    O     O_R   0.552870 0.007140 0.402650 -0.538210
O3    O     O_R   0.578910 0.181280 0.586990 -0.539442
O4    O     O_R   0.421090 0.681280 0.413010 -0.538665
C1    C     C_R   0.604475 0.344224 0.607435 0.725592
C2    C     C_R   0.395532 0.844728 0.392533 0.726099
O5    O     O_R   0.449230 0.177860 0.608640 -0.541555
O6    O     O_R   0.550770 0.677860 0.391360 -0.540767
O7    O     O_R   0.422260 0.000770 0.424450 -0.535409
O8    O     O_R   0.577740 0.500770 0.575550 -0.534520
C3    C     C_R   0.433216 0.347412 0.634826 0.687836
C4    C     C_R   0.566765 0.845186 0.365073 0.688175
O9    O     O_3   0.491310 0.336980 0.439550 -0.374757
O10   O     O_3   0.508690 0.836980 0.560450 -0.374845
V1    V     V_3+5 0.501610 0.064760 0.511210 1.422710
V2    V     V_3+5 0.498390 0.564760 0.488790 1.426052
C5    C     C_R   0.617972 0.780020 0.122592 -0.133486
C6    C     C_R   0.381348 0.453501 0.873687 -0.133092
H1    H     H_    0.527761 0.773630 0.177121 0.100940
H2    H     H_    0.471615 0.451451 0.819044 0.101131
H3    H     H_    0.700056 0.738552 0.000239 0.136293
H4    H     H_    0.299028 0.507528 0.995087 0.137325
H5    H     H_    0.595919 0.743065 0.050232 0.110211
H6    H     H_    0.403212 0.500719 0.944482 0.110268
C7    C     C_R   0.606157 0.847563 0.287722 -0.031257
C8    C     C_R   0.393525 0.361789 0.711604 -0.030979
C9    C     C_R   0.917243 0.900173 0.301004 -0.184143
C10   C     C_R   0.082647 0.306258 0.700654 -0.186088
C11   C     C_R   0.880264 0.913551 0.374869 -0.111627
C12   C     C_R   0.119734 0.281100 0.627548 -0.110503
C13   C     C_R   0.813762 0.896790 0.355455 -0.126914
C14   C     C_R   0.186175 0.300688 0.646192 -0.127048
C15   C     C_R   0.782052 0.864334 0.260462 0.022525
C16   C     C_R   0.217737 0.347176 0.739658 0.022550
C17   C     C_R   0.820324 0.843619 0.184249 -0.025898
C18   C     C_R   0.179393 0.378062 0.814997 -0.026084
C19   C     C_R   0.713610 0.849904 0.239481 0.067299
C20   C     C_R   0.286078 0.365863 0.759896 0.067158
C21   C     C_R   0.684828 0.804285 0.144421 0.075695
C22   C     C_R   0.314630 0.425086 0.853014 0.074913
C23   C     C_R   0.722626 0.779734 0.071673 -0.278121
C24   C     C_R   0.276746 0.457789 0.924993 -0.277478
C25   C     C_R   0.789305 0.804846 0.088910 0.401758
C26   C     C_R   0.210286 0.428715 0.908828 0.401118
C27   C     C_R   0.672429 0.875751 0.310085 -0.193505
C28   C     C_R   0.327371 0.330570 0.690367 -0.193076
C29   C     C_R   0.579010 0.798850 0.194246 -0.169309
C30   C     C_R   0.420439 0.424364 0.802891 -0.170118
C31   C     C_R   0.888459 0.865486 0.206388 -0.069805
C32   C     C_R   0.111319 0.354634 0.793641 -0.070505
H7    H     H_    0.690051 0.912632 0.383739 0.094017
H8    H     H_    0.309957 0.282416 0.618416 0.093632
H9    H     H_    0.968930 0.918026 0.317658 0.097479
H10   H     H_    0.030980 0.287312 0.684680 0.096857
H11   H     H_    0.788845 0.908327 0.417133 0.103599
H12   H     H_    0.211152 0.280110 0.585086 0.103670
H13   H     H_    0.903310 0.939050 0.447970 0.114044
H14   H     H_    0.096799 0.244963 0.555630 0.114070
C33   C     C_1   0.166667 0.856446 0.168088 -0.187622
C34   C     C_1   0.833396 0.358091 0.831730 -0.194505
C35   C     C_1   0.219091 0.854454 0.219106 -0.008479
C36   C     C_1   0.780973 0.355507 0.780707 -0.008060
C37   C     C_1   0.280826 0.853620 0.279154 -0.006057
C38   C     C_1   0.719213 0.353281 0.720718 -0.005159
C39   C     C_1   0.333161 0.851640 0.330462 -0.201140
C40   C     C_1   0.666861 0.350512 0.669474 -0.201251
O11   O     O_R   0.922300 0.202240 0.924350 -0.548115
O12   O     O_R   0.077700 0.702240 0.075650 -0.513805
O13   O     O_R   0.050780 0.535130 0.891350 -0.527159
O14   O     O_R   0.949220 0.035130 0.108650 -0.550207
C41   C     C_R   0.068645 0.367257 0.867111 0.775268
C42   C     C_R   0.930974 0.869324 0.132504 0.772706
O15   O     O_R   0.921100 0.531560 0.912990 -0.521425
O16   O     O_R   0.078900 0.031560 0.087010 -0.554842
O17   O     O_R   0.947120 0.708470 0.097370 -0.520105
O18   O     O_R   0.052880 0.208470 0.902630 -0.546396
C43   C     C_R   0.895880 0.363895 0.893456 0.723943
C44   C     C_R   0.104143 0.863298 0.106483 0.721988
O19   O     O_3   0.008710 0.375800 0.060400 -0.378728
O20   O     O_3   0.991290 0.875800 0.939600 -0.379855
V3    V     V_3+5 0.998380 0.648080 0.988790 1.496097
V4    V     V_3+5 0.001620 0.148080 0.011210 1.411073
O21   O     O_3   0.824605 0.770861 0.014282 -0.554028
C45   C     C_3   0.808071 0.903386 0.940253 -0.195187
H15   H     H_    0.807028 0.049243 0.969073 0.122182
H16   H     H_    0.761312 0.868838 0.896087 0.122458
H17   H     H_    0.845139 0.897320 0.891391 0.170942
O22   O     O_3   0.175098 0.468101 0.982936 -0.554962
C46   C     C_3   0.190911 0.337200 0.057946 -0.192227
H18   H     H_    0.238647 0.367795 0.100331 0.120973
H19   H     H_    0.189600 0.190137 0.030350 0.122167
H20   H     H_    0.154739 0.349821 0.108038 0.170796

loop_
_geom_bond_atom_site_label_1
_geom_bond_atom_site_label_2
_ccdc_geom_bond_type
C20   C22   A    
C37   C39   T    
C9    C11   A    
C25   O21   S    
O11   C43   A    
C45   H17   S    
O2    C4    A    
C2    O7    A    
C18   C32   A    
C21   C23   A    
O5    C3    A    
C5    H5    S    
C6    H6    S    
O12   V3    S    
C45   H16   S    
C41   O18   A    
O20   V3    S    
H1    C29   S    
C27   H7    S    
C28   H8    S    
C34   C36   T    
C5    C21   A    
C35   C37   S    
C6    C22   A    
C36   C38   S    
C10   C32   A    
C2    C39   S    
C31   C42   S    
O1    C3    A    
C17   C31   A    
C13   C15   A    
C46   H19   S    
C17   C25   A    
C7    C29   A    
C8    C30   A    
O5    V1    S    
O6    V2    S    
C23   C25   A    
C24   C26   A    
O16   V4    S    
C42   O17   A    
C33   C44   S    
O15   V3    S    
O12   C44   A    
C34   C43   S    
C33   C35   T    
O13   C41   A    
C45   H15   S    
O20   V4    S    
O18   V4    S    
O19   V3    S    
C10   H10   S    
O17   V3    S    
C3    C8    S    
C15   C19   A    
C14   C16   A    
O4    V2    S    
C32   C41   S    
O21   C45   S    
O6    C4    A    
O1    V2    S    
C46   H20   S    
O2    V1    S    
H2    C30   S    
H3    C23   S    
O4    C2    A    
C11   H13   S    
C18   C26   A    
C19   C27   A    
C7    C27   A    
O3    V1    S    
C16   C20   A    
C5    C29   A    
C1    C40   S    
O3    C1    A    
C6    C30   A    
O19   V4    S    
C9    H9    S    
C4    C7    S    
C10   C12   A    
O7    V1    S    
C1    O8    A    
C11   C13   A    
O8    V2    S    
C12   C14   A    
H4    C24   S    
C12   H14   S    
C22   C24   A    
C15   C17   A    
C16   C18   A    
O14   V4    S    
C20   C28   A    
O13   V3    S    
C8    C28   A    
O22   C46   S    
O11   V4    S    
C19   C21   A    
O16   C44   A    
O9    V2    S    
O15   C43   A    
O10   V1    S    
O14   C42   A    
C13   H11   S    
C46   H18   S    
C26   O22   S    
C14   H12   S    
C9    C31   A    
C38   C40   T    
