data_mof_unit_37686.cif
_audit_creation_date              2012-12-10T20:47:09-0500
_audit_creation_method            fapswitch 2.2
_symmetry_space_group_name_H-M    P1
_symmetry_Int_Tables_number       1
_space_group_crystal_system       triclinic
_cell_length_a                    10.666392
_cell_length_b                    8.925709
_cell_length_c                    8.125844
_cell_angle_alpha                 89.981903
_cell_angle_beta                  90.000081
_cell_angle_gamma                 90.000014
_cell_volume                      773.621841983

loop_
_atom_site_label
_atom_site_type_symbol
_atom_type_description
_atom_site_fract_x
_atom_site_fract_y
_atom_site_fract_z
_atom_type_partial_charge
C1    C     C_R   0.500000 0.218086 0.499990 0.956298
C2    C     C_R   0.065546 0.634918 0.558908 0.049504
C3    C     C_R   0.128008 0.506683 0.499687 -0.125175
C4    C     C_R   0.871992 0.506683 0.499688 -0.125176
C5    C     C_R   0.064971 0.381086 0.438361 0.037995
C6    C     C_R   0.935029 0.381087 0.438361 0.037996
C7    C     C_1   0.500000 0.065218 0.500005 -0.191419
C8    C     C_1   0.500000 0.934770 0.499955 -0.196951
C9    C     C_R   0.500000 0.781913 0.499948 0.895651
C10   C     C_R   0.260070 0.501858 0.499999 0.912993
C11   C     C_R   0.739930 0.501858 0.499999 0.912992
C12   C     C_R   0.130496 0.763769 0.614689 -0.148111
C13   C     C_R   0.869504 0.763769 0.614690 -0.148111
C14   C     C_R   0.065176 0.889061 0.670718 -0.147847
C15   C     C_R   0.934824 0.889061 0.670719 -0.147848
C16   C     C_R   0.934454 0.634918 0.558908 0.049504
H1    H     H_    0.231721 0.769591 0.614378 0.135262
H2    H     H_    0.768279 0.769591 0.614378 0.135262
H3    H     H_    0.115873 0.986729 0.713252 0.139200
H4    H     H_    0.884127 0.986729 0.713253 0.139200
H5    H     H_    0.109926 0.159900 0.448876 0.178994
H6    H     H_    0.110545 0.234610 0.256456 0.195642
H7    H     H_    0.889456 0.234610 0.256456 0.195641
H8    H     H_    0.890073 0.159900 0.448877 0.178994
N1    N     N_1   0.500000 0.500000 0.073640 -0.030476
N2    N     N_1   0.500000 0.500000 0.926360 -0.030775
N3    N     N_3   0.134458 0.253910 0.379352 -0.454998
N4    N     N_3   0.865542 0.253910 0.379352 -0.454997
O1    O     O_R   0.500000 0.285350 0.636850 -0.618070
O2    O     O_R   0.500000 0.714650 0.636850 -0.627894
O3    O     O_R   0.500000 0.285360 0.363100 -0.607107
O4    O     O_R   0.500000 0.714640 0.363100 -0.614414
O5    O     O_R   0.316770 0.500000 0.636900 -0.627816
O6    O     O_R   0.683230 0.500000 0.636900 -0.627816
O7    O     O_R   0.316780 0.500000 0.363150 -0.606023
O8    O     O_R   0.683220 0.500000 0.363150 -0.606022
Zn1   Zn    Zn3+2 0.500000 0.500000 0.682780 0.984613
Zn2   Zn    Zn3+2 0.500000 0.500000 0.317220 1.001307

loop_
_geom_bond_atom_site_label_1
_geom_bond_atom_site_label_2
_ccdc_geom_bond_type
C12   H1    S    
C4    C16   A    
N2    Zn1   S    
C10   O7    A    
O4    Zn2   S    
N1    Zn2   S    
O6    Zn1   S    
C2    C16   A    
O3    Zn2   S    
C2    C12   A    
C1    O1    A    
C2    C3    A    
H5    N3    S    
C7    C8    T    
C3    C10   S    
C5    N3    S    
H7    N4    S    
C4    C11   S    
C5    C6    A    
C13   H2    S    
C9    O2    A    
O8    Zn2   S    
C11   O8    A    
C12   C14   A    
C10   O5    A    
H6    N3    S    
C13   C15   A    
C15   H4    S    
C6    N4    S    
C1    O3    A    
O7    Zn2   S    
C4    C6    A    
C13   C16   A    
O1    Zn1   S    
C14   C15   A    
C9    O4    A    
N1    N2    T    
C1    C7    S    
C14   H3    S    
C11   O6    A    
O5    Zn1   S    
H8    N4    S    
O2    Zn1   S    
C8    C9    S    
C3    C5    A    
