data_mof_unit_15436.cif
_audit_creation_date              2012-12-10T17:05:10-0500
_audit_creation_method            fapswitch 2.2
_symmetry_space_group_name_H-M    P1
_symmetry_Int_Tables_number       1
_space_group_crystal_system       triclinic
_cell_length_a                    10.803126
_cell_length_b                    11.005926
_cell_length_c                    9.876237
_cell_angle_alpha                 110.650752
_cell_angle_beta                  98.585828
_cell_angle_gamma                 91.662302
_cell_volume                      1082.26538913

loop_
_atom_site_label
_atom_site_type_symbol
_atom_type_description
_atom_site_fract_x
_atom_site_fract_y
_atom_site_fract_z
_atom_type_partial_charge
C1    C     C_R   0.489876 0.254306 0.441007 0.946048
C2    C     C_3   0.877496 0.493564 0.497239 -0.078759
C3    C     C_3   0.926979 0.615490 0.464806 -0.243875
C4    C     C_3   0.909824 0.366044 0.376013 -0.205404
C5    C     C_2   0.486343 0.114898 0.407598 -0.248864
C6    C     C_2   0.520056 0.069256 0.514345 -0.158372
C7    C     C_2   0.522818 0.885010 0.591341 -0.326807
C8    C     C_2   0.511027 0.930164 0.482023 -0.166254
C9    C     C_2   0.512670 0.510141 0.082203 -0.092840
C10   C     C_2   0.501129 0.479289 0.918907 0.085426
C11   C     C_R   0.260306 0.498191 0.500101 0.825594
C12   C     C_R   0.511205 0.745679 0.558899 0.860347
C13   C     C_R   0.739657 0.497227 0.498881 0.776540
C14   C     C_3   0.094067 0.519937 0.655636 -0.403541
C15   C     C_3   0.951376 0.509249 0.654238 -0.199777
C16   C     C_3   0.066977 0.605126 0.444472 -0.171629
C17   C     C_3   0.055017 0.359728 0.395606 -0.236620
C18   C     C_3   0.122410 0.496981 0.498753 -0.094834
Cu1   Cu    Cu3+1 0.522160 0.521810 0.644910 1.020970
Cu2   Cu    Cu3+1 0.477840 0.478190 0.355090 1.013394
H1    H     H_    0.136442 0.616909 0.734334 0.222406
H2    H     H_    0.877751 0.376264 0.268630 0.176653
H3    H     H_    0.071883 0.572926 0.325459 0.179391
H4    H     H_    0.491010 0.864475 0.367850 0.193478
H5    H     H_    0.552466 0.134597 0.626803 0.174508
H6    H     H_    0.541137 0.951176 0.705285 0.163545
H7    H     H_    0.455962 0.049049 0.294716 0.166156
H8    H     H_    0.581290 0.587826 0.156263 0.173036
H9    H     H_    0.603334 0.640214 0.936408 0.203851
H10   H     H_    0.139441 0.448292 0.697860 0.246615
H11   H     H_    0.377307 0.373453 0.068107 0.211796
H12   H     H_    0.930319 0.604281 0.733198 0.163832
H13   H     H_    0.920938 0.703203 0.563240 0.132224
H14   H     H_    0.083167 0.291196 0.452542 0.256743
N1    N     N_2   0.444530 0.445420 0.137360 -0.286284
N2    N     N_2   0.555520 0.554510 0.862630 -0.280176
O1    O     O_R   0.511820 0.332340 0.577400 -0.581759
O2    O     O_R   0.474400 0.295500 0.332650 -0.535183
O3    O     O_R   0.336400 0.518400 0.622370 -0.537319
O4    O     O_R   0.298980 0.481560 0.377620 -0.583987
O5    O     O_R   0.525600 0.704500 0.667350 -0.578301
O6    O     O_R   0.488180 0.667660 0.422600 -0.580976
O7    O     O_R   0.701020 0.518440 0.622380 -0.570331
O8    O     O_R   0.663600 0.481600 0.377630 -0.551961
C19   C     C_2   0.848738 0.641741 0.338465 0.382135
H15   H     H_    0.787819 0.720700 0.362222 0.058396
O9    O     O_2   0.850466 0.574553 0.210576 -0.532954
C20   C     C_2   0.432989 0.352444 0.825222 0.472746
H16   H     H_    0.469086 0.264042 0.833755 0.025964
O10   O     O_2   0.331641 0.345360 0.748814 -0.549428
C21   C     C_2   0.914823 0.406436 0.715010 0.875791
O11   O     O_2   0.854814 0.435576 0.815979 -0.554698
O12   O     O_R   0.955743 0.281678 0.663209 -0.736698
H17   H     H_    0.926462 0.223704 0.714500 0.343683
C22   C     C_2   0.141884 0.737386 0.514189 0.823602
O13   O     O_2   0.153034 0.798566 0.646111 -0.590755
O14   O     O_R   0.196701 0.790152 0.425293 -0.736212
H18   H     H_    0.241489 0.879956 0.482623 0.352007
C23   C     C_2   0.093867 0.305605 0.245775 0.401612
H19   H     H_    0.075350 0.355625 0.168788 0.101539
O15   O     O_2   0.145954 0.204830 0.209912 -0.505180
C24   C     C_2   0.840094 0.238109 0.360087 0.866043
O16   O     O_2   0.726069 0.222718 0.324180 -0.616321
O17   O     O_R   0.905175 0.133387 0.372646 -0.697780
H20   H     H_    0.847038 0.053620 0.356153 0.337806

loop_
_geom_bond_atom_site_label_1
_geom_bond_atom_site_label_2
_ccdc_geom_bond_type
C2    C4    S    
C22   O13   D    
C11   C18   S    
C12   O5    A    
C15   C21   S    
C4    H2    S    
C9    C10   S    
C14   C18   S    
Cu2   O6    S    
Cu1   Cu2   S    
C1    O1    A    
O17   H20   S    
C24   O16   D    
C20   O10   D    
C2    C3    S    
C16   C22   S    
C23   H19   S    
C5    H7    S    
O12   H17   S    
C11   O3    A    
C2    C15   S    
H9    N2    S    
O14   H18   S    
C7    C12   S    
C7    H6    S    
Cu1   O3    S    
C1    O2    A    
C17   C23   S    
C1    C5    S    
C4    C17   S    
C14   H1    S    
C20   H16   S    
C8    H4    S    
C14   H10   S    
C17   C18   S    
C16   H3    S    
Cu1   N2    S    
C22   O14   S    
C10   C20   S    
C11   O4    A    
Cu2   O4    S    
H11   N1    S    
C23   O15   D    
C6    H5    S    
C7    C8    D    
C17   H14   S    
C3    H13   S    
C21   O12   S    
C12   O6    A    
C21   O11   D    
C4    C24   S    
C13   O7    A    
Cu2   O2    S    
C16   C18   S    
C19   O9    D    
C24   O17   S    
C5    C6    D    
C2    C13   S    
C14   C15   S    
C9    N1    D    
C6    C8    S    
Cu1   O1    S    
Cu2   O8    S    
C19   H15   S    
Cu2   N1    S    
C3    C19   S    
C13   O8    A    
C3    C16   S    
Cu1   O5    S    
C9    H8    S    
Cu1   O7    S    
C10   N2    D    
C15   H12   S    
