data_mof_unit_40765.cif
_audit_creation_date              2012-12-10T19:09:33-0500
_audit_creation_method            fapswitch 2.2
_symmetry_space_group_name_H-M    P1
_symmetry_Int_Tables_number       1
_space_group_crystal_system       triclinic
_cell_length_a                    9.549921
_cell_length_b                    10.838897
_cell_length_c                    17.111032
_cell_angle_alpha                 89.425076
_cell_angle_beta                  93.810298
_cell_angle_gamma                 90.576594
_cell_volume                      1767.09091376

loop_
_atom_site_label
_atom_site_type_symbol
_atom_type_description
_atom_site_fract_x
_atom_site_fract_y
_atom_site_fract_z
_atom_type_partial_charge
C1    C     C_R   0.499414 0.262496 0.501816 0.793737
C2    C     C_R   0.657601 0.488837 0.778986 -0.233124
C3    C     C_R   0.588655 0.484178 0.141623 -0.234208
C4    C     C_R   0.596217 0.488479 0.222899 -0.217231
C5    C     C_R   0.457118 0.485736 0.098912 0.279684
C6    C     C_R   0.473386 0.494942 0.263218 -0.116652
C7    C     C_R   0.342434 0.494585 0.220814 -0.294297
C8    C     C_R   0.334581 0.490345 0.139270 0.608813
C9    C     C_R   0.616407 0.064560 0.534913 -0.035132
C10   C     C_R   0.496666 0.129523 0.508730 -0.062585
C11   C     C_R   0.371601 0.063663 0.490415 -0.207715
C12   C     C_R   0.517310 0.496978 0.650848 0.787157
C13   C     C_R   0.372320 0.935193 0.488966 -0.195304
C14   C     C_R   0.498962 0.871282 0.503893 -0.027648
C15   C     C_R   0.618491 0.937768 0.530270 0.003075
C16   C     C_3   0.764667 0.939512 0.503848 0.401923
C17   C     C_3   0.765319 0.079190 0.513905 -0.225594
C18   C     C_R   0.066095 0.523049 0.432581 0.254386
C19   C     C_R   0.081525 0.466644 0.564939 -0.060998
C20   C     C_R   0.933072 0.467185 0.565027 -0.057492
C21   C     C_R   0.918549 0.522285 0.432442 0.223449
C22   C     C_3   0.908725 0.637397 0.384331 -0.435206
C23   C     C_R   0.500287 0.737804 0.499694 0.816990
C24   C     C_3   0.067347 0.638485 0.384673 -0.487219
C25   C     C_R   0.482671 0.499758 0.349115 0.849213
C26   C     C_R   0.526549 0.491752 0.736692 -0.022663
C27   C     C_R   0.403436 0.488497 0.777087 -0.244997
C28   C     C_R   0.410979 0.483944 0.858402 -0.147546
C29   C     C_R   0.542662 0.482555 0.900998 0.383574
C30   C     C_R   0.665158 0.484243 0.860555 -0.185753
Cu1   Cu    Cu3+1 0.640670 0.499980 0.500000 0.956449
Cu2   Cu    Cu3+1 0.359330 0.500020 0.500000 0.944773
H1    H     H_    0.698534 0.486084 0.254019 0.174637
H2    H     H_    0.275424 0.886849 0.472091 0.155095
H3    H     H_    0.840390 0.887206 0.543356 0.074350
H4    H     H_    0.775820 0.131263 0.458182 0.204014
H5    H     H_    0.142224 0.440799 0.617940 0.141877
H6    H     H_    0.884338 0.442644 0.618184 0.147130
H7    H     H_    0.856335 0.622367 0.325297 0.200516
H8    H     H_    0.867241 0.714378 0.417361 0.274848
H9    H     H_    0.105926 0.623470 0.325793 0.202667
H10   H     H_    0.685839 0.479858 0.112638 0.194964
H11   H     H_    0.117135 0.717456 0.417207 0.213186
H12   H     H_    0.766920 0.482892 0.892520 0.154803
H13   H     H_    0.754197 0.490510 0.749211 0.151218
H14   H     H_    0.246062 0.497192 0.250528 0.177054
H15   H     H_    0.313714 0.482149 0.887503 0.173303
H16   H     H_    0.300899 0.489803 0.745999 0.152652
H17   H     H_    0.275295 0.111164 0.472868 0.160723
N1    N     N_2   0.556851 0.481498 0.984020 -0.256253
N2    N     N_2   0.443263 0.484175 0.015890 -0.201322
N3    N     N_R   0.147870 0.500930 0.499500 -0.188826
N4    N     N_R   0.851960 0.500890 0.499500 -0.191536
O1    O     O_R   0.618810 0.319640 0.500000 -0.579737
O2    O     O_R   0.381230 0.319680 0.499990 -0.586239
O3    O     O_R   0.631790 0.498830 0.613930 -0.598845
O4    O     O_R   0.394210 0.498870 0.613920 -0.593917
O5    O     O_R   0.618770 0.680320 0.500010 -0.562357
O6    O     O_R   0.381190 0.680360 0.500000 -0.591693
O7    O     O_R   0.605790 0.501130 0.386080 -0.581250
O8    O     O_R   0.368210 0.501170 0.386070 -0.585471
F1    F     F_    0.766288 0.909348 0.425545 -0.670699
C31   C     C_R   0.866853 0.123172 0.580079 0.083771
C32   C     C_R   0.011567 0.111116 0.572304 -0.151987
C33   C     C_R   0.108775 0.151577 0.631504 -0.120728
C34   C     C_R   0.062515 0.204961 0.698993 -0.134354
C35   C     C_R   0.918996 0.218393 0.707298 -0.170860
C36   C     C_R   0.821369 0.178534 0.648139 -0.094514
H18   H     H_    0.048642 0.069618 0.520350 0.130418
H19   H     H_    0.220051 0.141816 0.625081 0.140969
H20   H     H_    0.137923 0.236677 0.744609 0.134761
H21   H     H_    0.883293 0.260767 0.759332 0.138686
H22   H     H_    0.710994 0.191870 0.655767 0.125114
F2    F     F_    0.207027 0.491109 0.099248 -0.658032

loop_
_geom_bond_atom_site_label_1
_geom_bond_atom_site_label_2
_ccdc_geom_bond_type
C27   H16   S    
Cu1   O7    S    
C23   O5    A    
C3    H10   S    
C18   C21   A    
C19   C20   A    
C18   N3    A    
C7    C8    A    
C28   H15   S    
C23   O6    A    
C26   C27   A    
C18   C24   S    
Cu1   O5    S    
C28   C29   A    
Cu2   O8    S    
C16   H3    S    
C6    C25   S    
C33   H19   S    
C35   H21   S    
Cu2   N3    S    
C19   H5    S    
C31   C36   A    
C19   N3    A    
Cu1   Cu2   S    
C16   C17   S    
C25   O7    A    
Cu1   O3    S    
C9    C10   A    
Cu2   O2    S    
C34   C35   A    
C13   C14   A    
C24   H9    S    
C30   H12   S    
C16   F1    S    
Cu2   O4    S    
C29   N1    S    
C2    H13   S    
C35   C36   A    
C7    H14   S    
C4    C6    A    
C36   H22   S    
C12   C26   S    
C14   C23   S    
C1    O1    A    
C29   C30   A    
C11   H17   S    
C20   H6    S    
C34   H20   S    
C22   H8    S    
C8    F2    S    
N1    N2    D    
C2    C26   A    
C25   O8    A    
C32   H18   S    
Cu1   N4    S    
C12   O3    A    
C12   O4    A    
C9    C17   S    
C17   H4    S    
C22   C24   S    
C3    C4    A    
C4    H1    S    
C1    C10   S    
C20   N4    A    
C3    C5    A    
C5    C8    A    
C6    C7    A    
C2    C30   A    
C32   C33   A    
C1    O2    A    
C13   H2    S    
C17   C31   S    
C21   N4    A    
C11   C13   A    
C22   H7    S    
Cu1   O1    S    
C9    C15   A    
C10   C11   A    
C31   C32   A    
C33   C34   A    
C27   C28   A    
C24   H11   S    
C14   C15   A    
C5    N2    S    
Cu2   O6    S    
C21   C22   S    
C15   C16   S    
