data_mof_unit_66627.cif
_audit_creation_date              2012-12-10T16:54:54-0500
_audit_creation_method            fapswitch 2.2
_symmetry_space_group_name_H-M    P1
_symmetry_Int_Tables_number       1
_space_group_crystal_system       triclinic
_cell_length_a                    8.085513
_cell_length_b                    8.656508
_cell_length_c                    15.657364
_cell_angle_alpha                 93.221436
_cell_angle_beta                  84.559505
_cell_angle_gamma                 93.437114
_cell_volume                      1087.58807777

loop_
_atom_site_label
_atom_site_type_symbol
_atom_type_description
_atom_site_fract_x
_atom_site_fract_y
_atom_site_fract_z
_atom_type_partial_charge
C1    C     C_R   0.543683 0.793097 0.498673 0.880971
C2    C     C_3   0.364801 0.621603 0.057541 0.520614
C3    C     C_3   0.498370 0.511266 0.083949 -0.482726
C4    C     C_3   0.448529 0.332571 0.053854 0.509196
C5    C     C_3   0.442161 0.318414 0.951932 0.462244
C6    C     C_1   0.501024 0.517603 0.176007 0.304364
C7    C     C_1   0.494482 0.480592 0.824121 0.305464
C8    C     C_1   0.496957 0.486271 0.748807 0.058797
C9    C     C_2   0.561022 0.956509 0.511002 0.133071
C10   C     C_2   0.439008 0.043484 0.488943 0.133455
C11   C     C_R   0.499197 0.496805 0.660442 0.852650
C12   C     C_R   0.456319 0.206898 0.501307 0.880688
C13   C     C_R   0.500746 0.503245 0.339558 0.850432
C14   C     C_3   0.370395 0.614218 0.955771 0.542504
C15   C     C_3   0.675051 0.533987 0.940581 0.086054
C16   C     C_3   0.677024 0.566361 0.039931 0.524578
C17   C     C_1   0.501947 0.512923 0.251181 0.061869
C18   C     C_3   0.492092 0.485842 0.916460 -0.448742
H1    H     H_    0.754287 0.435793 0.922132 0.222918
N1    N     N_2   0.950340 0.457950 0.477370 0.099234
N2    N     N_2   0.049660 0.542050 0.522630 0.100532
O1    O     O_R   0.389240 0.738570 0.505550 -0.575880
O2    O     O_R   0.678400 0.711630 0.491050 -0.561536
O3    O     O_R   0.355360 0.513470 0.630110 -0.569449
O4    O     O_R   0.644510 0.486530 0.615610 -0.558086
O5    O     O_R   0.321600 0.288370 0.508950 -0.561325
O6    O     O_R   0.610760 0.261430 0.494450 -0.575983
O7    O     O_R   0.355490 0.513470 0.384390 -0.556961
O8    O     O_R   0.644640 0.486530 0.369890 -0.570777
Zn1   Zn    Zn3+2 0.306930 0.517990 0.509680 1.206797
Zn2   Zn    Zn3+2 0.693070 0.482010 0.490320 1.205707
Cl1   Cl    Cl    0.376607 0.815721 0.105099 -0.289882
Cl2   Cl    Cl    0.169587 0.590283 0.916067 -0.336169
Cl3   Cl    Cl    0.168355 0.572312 0.111006 -0.290137
Cl4   Cl    Cl    0.582164 0.195702 0.090819 -0.322581
Cl5   Cl    Cl    0.724162 0.026606 0.574121 -0.401625
Cl6   Cl    Cl    0.275972 0.973371 0.425757 -0.398011
S1    S     S_3+6 0.017081 0.383965 0.376011 0.230313
O9    O     O_2   0.067790 0.514979 0.318310 -0.219863
O10   O     O_2   0.156572 0.278573 0.377666 -0.214523
O11   O     O_3   0.860166 0.276665 0.335267 -0.474278
H2    H     H_    0.897332 0.257362 0.273653 0.417988
S2    S     S_3+6 0.983059 0.616133 0.623989 0.228917
O12   O     O_2   0.843410 0.721356 0.622355 -0.211135
O13   O     O_2   0.932718 0.485279 0.681894 -0.239039
O14   O     O_3   0.140092 0.723744 0.664431 -0.473336
H3    H     H_    0.102230 0.745158 0.725773 0.420852
Cl7   Cl    Cl    0.436902 0.796227 0.910904 -0.296851
Cl8   Cl    Cl    0.788958 0.675776 0.873537 -0.319063
S3    S     S_3+6 0.756663 0.763902 0.069777 0.221088
O15   O     O_2   0.686530 0.885660 0.021682 -0.113164
O16   O     O_2   0.721597 0.798419 0.164740 -0.233415
O17   O     O_3   0.962926 0.782870 0.045576 -0.361218
H4    H     H_    0.995648 0.889936 0.065691 0.426307
Cl9   Cl    Cl    0.828750 0.453483 0.077242 -0.370253
S4    S     S_3+6 0.246942 0.226568 0.917166 0.189776
O18   O     O_2   0.240762 0.238408 0.822128 -0.246768
O19   O     O_2   0.239623 0.058230 0.935745 -0.122121
O20   O     O_3   0.074155 0.296951 0.968024 -0.410448
H5    H     H_    0.981576 0.232421 0.944902 0.421839
Cl10  Cl    Cl    0.590847 0.184218 0.900735 -0.381896
Cl11  Cl    Cl    0.262540 0.252452 0.112767 -0.311979

loop_
_geom_bond_atom_site_label_1
_geom_bond_atom_site_label_2
_ccdc_geom_bond_type
O4    Zn2   S    
C15   C18   S    
S3    O16   D    
S2    O12   D    
O11   H2    S    
C13   O7    A    
C1    O2    A    
C9    Cl5   S    
N1    S1    S    
N2    Zn1   S    
C14   C18   S    
C5    S4    S    
C1    O1    A    
S4    O20   S    
C13   C17   S    
C3    C6    S    
C7    C18   S    
C14   Cl2   S    
O7    Zn1   S    
C2    C3    S    
C16   Cl9   S    
C5    Cl10  S    
C7    C8    T    
O8    Zn2   S    
N2    S2    S    
O17   H4    S    
S4    O18   D    
C15   Cl8   S    
S1    O10   D    
S2    O13   D    
C2    Cl3   S    
C10   C12   S    
C8    C11   S    
C13   O8    A    
S4    O19   D    
O5    Zn1   S    
C10   Cl6   S    
S1    O9    D    
C2    C14   S    
S2    O14   S    
O3    Zn1   S    
C4    Cl4   S    
S3    O17   S    
C11   O4    A    
C12   O6    A    
O6    Zn2   S    
C3    C4    S    
C4    Cl11  S    
C11   O3    A    
O20   H5    S    
C1    C9    S    
N1    N2    D    
S1    O11   S    
C2    Cl1   S    
C9    C10   D    
C12   O5    A    
C6    C17   T    
O14   H3    S    
C14   Cl7   S    
C5    C18   S    
O1    Zn1   S    
S3    O15   D    
C15   H1    S    
C3    C16   S    
C15   C16   S    
C16   S3    S    
C4    C5    S    
N1    Zn2   S    
O2    Zn2   S    
