data_mof_unit_48266.cif
_audit_creation_date              2012-12-11T15:56:59-0500
_audit_creation_method            fapswitch 2.2
_symmetry_space_group_name_H-M    P1
_symmetry_Int_Tables_number       1
_space_group_crystal_system       triclinic
_cell_length_a                    17.447085
_cell_length_b                    24.333659
_cell_length_c                    15.080934
_cell_angle_alpha                 89.969466
_cell_angle_beta                  126.304662
_cell_angle_gamma                 89.968693
_cell_volume                      5159.75000879

loop_
_atom_site_label
_atom_site_type_symbol
_atom_type_description
_atom_site_fract_x
_atom_site_fract_y
_atom_site_fract_z
_atom_type_partial_charge
C1    C     C_R   0.308385 0.124306 0.906694 -0.135188
C2    C     C_R   0.556297 0.152696 0.909150 -0.155313
C3    C     C_R   0.811852 0.362476 0.998737 -0.006208
C4    C     C_R   0.556093 0.000715 0.362106 0.000926
C5    C     C_R   0.056091 0.499179 0.362096 0.001059
C6    C     C_R   0.190646 0.000483 0.637848 0.038258
C7    C     C_R   0.690541 0.500450 0.637942 0.038249
C8    C     C_R   0.520769 0.046443 0.754757 -0.143071
C9    C     C_R   0.520458 0.954328 0.752891 -0.144007
C10   C     C_R   0.020404 0.545640 0.752801 -0.143846
C11   C     C_R   0.020750 0.453524 0.754761 -0.143357
C12   C     C_R   0.769220 0.953576 0.247909 -0.123290
C13   C     C_R   0.056142 0.347264 0.909267 -0.155054
C14   C     C_R   0.769394 0.045937 0.247091 -0.143728
C15   C     C_R   0.269217 0.453597 0.247814 -0.131661
C16   C     C_R   0.269376 0.545951 0.247058 -0.136056
C17   C     C_1   0.446870 0.083645 0.393687 0.042234
C18   C     C_1   0.689251 0.928169 0.551685 0.029598
C19   C     C_1   0.189375 0.571473 0.551621 0.027777
C20   C     C_1   0.946761 0.416401 0.393644 0.041643
C21   C     C_R   0.056982 0.652414 0.908902 -0.150931
C22   C     C_R   0.545718 0.000840 0.722372 0.022434
C23   C     C_R   0.045658 0.499108 0.722305 0.022558
C24   C     C_R   0.824370 0.999553 0.271544 0.024075
C25   C     C_R   0.324349 0.499583 0.271403 0.023988
C26   C     C_R   0.617174 0.184163 0.000690 -0.005038
C27   C     C_R   0.617537 0.815917 0.000629 -0.006885
C28   C     C_R   0.117815 0.683961 0.000452 -0.007218
C29   C     C_R   0.308160 0.876165 0.906693 -0.135525
C30   C     C_R   0.116900 0.315723 0.000849 -0.004759
C31   C     C_3   0.021041 0.963309 0.515789 -0.152032
C32   C     C_3   0.032687 0.050653 0.487987 -0.169694
C33   C     C_3   0.521128 0.462838 0.515220 -0.157204
C34   C     C_3   0.532252 0.550468 0.488783 -0.165831
C35   C     C_3   0.954354 0.013126 0.471011 -0.133024
C36   C     C_3   0.454121 0.512507 0.471137 -0.133935
C37   C     C_3   0.925593 0.999342 0.355728 0.188242
C38   C     C_3   0.425548 0.499385 0.355688 0.188480
C39   C     C_3   0.991826 0.949344 0.399923 -0.168239
C40   C     C_R   0.808145 0.623902 0.906769 -0.135112
C41   C     C_3   0.003003 0.036943 0.371515 -0.159164
C42   C     C_3   0.492081 0.449537 0.399167 -0.166736
C43   C     C_3   0.502761 0.537426 0.372157 -0.161715
C44   C     C_3   0.071842 0.986828 0.418155 -0.148634
C45   C     C_3   0.571905 0.487464 0.418077 -0.148640
C46   C     C_R   0.401600 0.876018 0.091520 -0.137422
C47   C     C_R   0.401808 0.124188 0.091584 -0.137223
C48   C     C_R   0.901807 0.375766 0.091562 -0.137150
C49   C     C_R   0.901609 0.623929 0.091556 -0.137405
C50   C     C_3   0.098971 0.000726 0.532465 0.188185
C51   C     C_R   0.808401 0.375761 0.906638 -0.135477
C52   C     C_3   0.598856 0.500693 0.532556 0.189121
C53   C     C_3   0.254528 0.820562 0.102230 -0.400896
C54   C     C_3   0.257119 0.180485 0.103785 -0.386694
C55   C     C_3   0.756986 0.319408 0.103530 -0.386802
C56   C     C_3   0.754714 0.679328 0.102577 -0.400753
C57   C     C_3   0.701031 0.270499 0.102981 -0.414521
C58   C     C_3   0.700802 0.729233 0.103101 -0.407834
C59   C     C_3   0.200753 0.770619 0.102758 -0.407596
C60   C     C_3   0.200988 0.229334 0.103217 -0.414772
C61   C     C_3   0.799838 0.263688 0.996733 -0.398826
C62   C     C_R   0.648699 0.152231 0.091994 -0.150610
C63   C     C_3   0.801138 0.735703 0.999626 -0.395737
C64   C     C_3   0.301505 0.764231 0.999828 -0.395287
C65   C     C_3   0.299483 0.236260 0.996531 -0.399295
C66   C     C_3   0.149328 0.820176 0.895827 -0.401953
C67   C     C_3   0.148804 0.179236 0.897422 -0.400318
C68   C     C_3   0.648950 0.320716 0.897154 -0.401384
C69   C     C_3   0.649172 0.679746 0.896170 -0.400718
C70   C     C_3   0.254547 0.818567 0.999085 0.400003
C71   C     C_3   0.254630 0.181800 0.998993 0.390910
C72   C     C_3   0.754730 0.318143 0.998902 0.391554
C73   C     C_R   0.648771 0.847700 0.091963 -0.151819
C74   C     C_3   0.754458 0.681362 0.999228 0.399290
C75   C     C_3   0.663540 0.234262 0.000249 0.407110
C76   C     C_3   0.663679 0.765601 0.000414 0.404287
C77   C     C_3   0.163890 0.734285 0.000204 0.404340
C78   C     C_3   0.163325 0.265636 0.000420 0.407076
C79   C     C_3   0.748021 0.214637 0.000595 -0.394830
C80   C     C_3   0.748418 0.784937 0.001182 -0.395461
C81   C     C_3   0.248806 0.714971 0.001250 -0.395992
C82   C     C_3   0.247686 0.285284 0.000597 -0.394290
C83   C     C_3   0.595575 0.270157 0.896282 -0.407327
C84   C     C_R   0.148915 0.652203 0.091872 -0.151242
C85   C     C_3   0.595627 0.729944 0.896297 -0.404125
C86   C     C_3   0.095854 0.769977 0.895956 -0.403373
C87   C     C_3   0.095370 0.229808 0.896523 -0.408058
C88   C     C_3   0.547904 0.061447 0.590684 -0.477257
C89   C     C_3   0.648600 0.975929 0.664107 -0.460594
C90   C     C_3   0.148591 0.523815 0.664043 -0.460386
C91   C     C_3   0.047710 0.438482 0.590630 -0.477295
C92   C     C_R   0.547612 0.045990 0.302532 -0.132049
C93   C     C_R   0.544471 0.954612 0.302203 -0.132388
C94   C     C_R   0.044524 0.545318 0.302213 -0.133266
C95   C     C_R   0.148559 0.347672 0.092076 -0.151095
C96   C     C_R   0.047565 0.453934 0.302519 -0.131230
C97   C     C_3   0.540855 0.061262 0.484964 -0.079478
C98   C     C_3   0.656153 0.980813 0.566772 -0.085644
C99   C     C_3   0.156155 0.518900 0.566732 -0.085014
C100  C     C_3   0.040733 0.438657 0.484955 -0.079521
C101  C     C_3   0.468707 0.968325 0.533624 -0.394926
C102  C     C_3   0.968716 0.531752 0.533541 -0.394478
C103  C     C_3   0.553824 0.001612 0.630614 0.362443
C104  C     C_3   0.053762 0.498314 0.630547 0.361932
C105  C     C_3   0.558537 0.001407 0.461397 0.257434
C106  C     C_R   0.556828 0.847538 0.909029 -0.150683
C107  C     C_3   0.058509 0.498477 0.461359 0.257371
C108  C     C_3   0.477398 0.963531 0.439493 -0.397398
C109  C     C_3   0.977410 0.536494 0.439402 -0.397148
C110  C     C_R   0.239852 0.954303 0.696445 -0.156571
C111  C     C_R   0.239633 0.046272 0.697477 -0.144017
C112  C     C_R   0.739780 0.454278 0.696546 -0.154966
C113  C     C_R   0.739596 0.546249 0.697474 -0.145504
C114  C     C_R   0.311825 0.137500 0.998798 -0.005796
C115  C     C_R   0.311487 0.862992 0.998781 -0.009705
C116  C     C_R   0.811466 0.636974 0.998870 -0.009256
H1    H     H_    0.252079 0.132789 0.821601 0.088043
H2    H     H_    0.992779 0.066761 0.309603 0.106822
H3    H     H_    0.793078 0.088154 0.263190 0.098318
H4    H     H_    0.292277 0.411251 0.264196 0.092808
H5    H     H_    0.293049 0.588171 0.263208 0.098404
H6    H     H_    0.691538 0.165007 0.177041 0.083871
H7    H     H_    0.691421 0.834705 0.176937 0.086291
H8    H     H_    0.191646 0.665130 0.176837 0.086437
H9    H     H_    0.191323 0.334825 0.177129 0.083724
H10   H     H_    0.513758 0.834928 0.823895 0.084676
H11   H     H_    0.512668 0.165689 0.824182 0.084273
H12   H     H_    0.012453 0.334319 0.824326 0.084166
H13   H     H_    0.473683 0.408358 0.360023 0.102501
H14   H     H_    0.013963 0.665069 0.823741 0.084790
H15   H     H_    0.904655 0.023831 0.491593 0.111135
H16   H     H_    0.404285 0.522708 0.491770 0.115119
H17   H     H_    0.492401 0.567639 0.310739 0.106739
H18   H     H_    0.123205 0.976184 0.400141 0.106860
H19   H     H_    0.623386 0.477334 0.399981 0.107737
H20   H     H_    0.327878 0.819406 0.179559 0.144952
H21   H     H_    0.331124 0.183876 0.179369 0.155571
H22   H     H_    0.830958 0.316076 0.179242 0.155517
H23   H     H_    0.828119 0.680518 0.179791 0.144985
H24   H     H_    0.220672 0.859277 0.102451 0.154139
H25   H     H_    0.251680 0.868117 0.821499 0.089433
H26   H     H_    0.226769 0.141184 0.107864 0.162547
H27   H     H_    0.726358 0.358677 0.107342 0.162447
H28   H     H_    0.721115 0.640590 0.103084 0.154178
H29   H     H_    0.140190 0.784618 0.103082 0.152895
H30   H     H_    0.140630 0.214234 0.102895 0.155035
H31   H     H_    0.640597 0.285543 0.102609 0.154990
H32   H     H_    0.640359 0.715198 0.103585 0.152905
H33   H     H_    0.749361 0.246865 0.180202 0.146670
H34   H     H_    0.750397 0.752610 0.180221 0.145665
H35   H     H_    0.250381 0.747222 0.179965 0.145894
H36   H     H_    0.751671 0.632169 0.821657 0.089388
H37   H     H_    0.249234 0.252925 0.180399 0.146451
H38   H     H_    0.876310 0.261471 0.068129 0.152972
H39   H     H_    0.876869 0.737573 0.072988 0.153908
H40   H     H_    0.377167 0.762341 0.073372 0.153738
H41   H     H_    0.376020 0.238442 0.067726 0.153129
H42   H     H_    0.798646 0.190039 0.076043 0.154024
H43   H     H_    0.798435 0.810055 0.075905 0.153986
H44   H     H_    0.298788 0.689790 0.076027 0.153823
H45   H     H_    0.298353 0.309774 0.076058 0.154169
H46   H     H_    0.144038 0.819147 0.818781 0.144851
H47   H     H_    0.752090 0.367478 0.821471 0.088088
H48   H     H_    0.141740 0.178953 0.819278 0.143733
H49   H     H_    0.642065 0.320985 0.819115 0.143442
H50   H     H_    0.643668 0.680767 0.818990 0.145060
H51   H     H_    0.431491 0.867804 0.176381 0.087301
H52   H     H_    0.431726 0.132012 0.176583 0.098713
H53   H     H_    0.931692 0.367901 0.176567 0.098674
H54   H     H_    0.931543 0.632103 0.176410 0.087352
H55   H     H_    0.114588 0.858720 0.895053 0.155969
H56   H     H_    0.115314 0.140946 0.899975 0.155302
H57   H     H_    0.615276 0.359016 0.899425 0.154931
H58   H     H_    0.029928 0.933369 0.576876 0.108461
H59   H     H_    0.614641 0.641204 0.895701 0.156442
H60   H     H_    0.033787 0.783661 0.893570 0.153842
H61   H     H_    0.032989 0.216521 0.893802 0.150671
H62   H     H_    0.533142 0.283465 0.893479 0.150653
H63   H     H_    0.533674 0.716265 0.894103 0.153893
H64   H     H_    0.568566 0.246612 0.819948 0.146215
H65   H     H_    0.567838 0.753701 0.819925 0.146220
H66   H     H_    0.068241 0.746236 0.819688 0.146170
H67   H     H_    0.068280 0.253388 0.820129 0.146290
H68   H     H_    0.796349 0.261314 0.920650 0.153887
H69   H     H_    0.050232 0.092184 0.525602 0.101724
H70   H     H_    0.800436 0.738217 0.925387 0.154472
H71   H     H_    0.301071 0.761762 0.925770 0.154512
H72   H     H_    0.295712 0.238699 0.920267 0.153878
H73   H     H_    0.722603 0.187678 0.928400 0.152942
H74   H     H_    0.723084 0.811322 0.928200 0.154892
H75   H     H_    0.223649 0.688651 0.928324 0.154827
H76   H     H_    0.222160 0.312349 0.928420 0.153061
H77   H     H_    0.485108 0.083263 0.575863 0.162077
H78   H     H_    0.651609 0.932271 0.688406 0.163752
H79   H     H_    0.151678 0.567471 0.688304 0.163824
H80   H     H_    0.530160 0.432503 0.575816 0.106083
H81   H     H_    0.984832 0.416806 0.575761 0.161852
H82   H     H_    0.612274 0.084787 0.655595 0.142914
H83   H     H_    0.709663 0.997548 0.737294 0.147012
H84   H     H_    0.209610 0.502087 0.737259 0.147006
H85   H     H_    0.112007 0.415009 0.655573 0.143013
H86   H     H_    0.596728 0.089463 0.497656 0.081770
H87   H     H_    0.711522 0.011873 0.588436 0.097224
H88   H     H_    0.211473 0.487734 0.588444 0.097451
H89   H     H_    0.096608 0.410374 0.497734 0.082034
H90   H     H_    0.400486 0.989023 0.504167 0.166649
H91   H     H_    0.549530 0.591833 0.527062 0.103152
H92   H     H_    0.465382 0.925924 0.558511 0.145774
H93   H     H_    0.965491 0.574166 0.558400 0.146028
H94   H     H_    0.900449 0.511193 0.504108 0.166581
H95   H     H_    0.564084 0.088306 0.328948 0.081810
H96   H     H_    0.555684 0.912274 0.328708 0.097999
H97   H     H_    0.055808 0.587628 0.328737 0.098164
H98   H     H_    0.063972 0.411585 0.328930 0.081954
H99   H     H_    0.408164 0.974328 0.360682 0.167477
H100  H     H_    0.492357 0.919934 0.432308 0.155009
H101  H     H_    0.992413 0.580063 0.432147 0.155109
H102  H     H_    0.973199 0.907997 0.361453 0.103011
H103  H     H_    0.908161 0.525799 0.360610 0.167520
H104  H     H_    0.225281 0.912420 0.666740 0.091624
H105  H     H_    0.225721 0.088318 0.668635 0.085002
H106  H     H_    0.725190 0.412386 0.666889 0.090669
H107  H     H_    0.725673 0.588282 0.668547 0.085804
H108  H     H_    0.530280 0.089300 0.745566 0.094464
H109  H     H_    0.528374 0.911878 0.738804 0.089626
H110  H     H_    0.028295 0.588087 0.738650 0.089666
H111  H     H_    0.030261 0.410658 0.745613 0.094476
H112  H     H_    0.792244 0.911224 0.264302 0.092689
N1    N     N_R   0.392450 0.103580 0.942190 -0.035720
N2    N     N_R   0.525490 0.971610 0.207550 -0.035939
N3    N     N_R   0.025490 0.528390 0.207550 -0.035828
N4    N     N_R   0.025490 0.471610 0.207550 -0.034814
N5    N     N_R   0.317450 0.971190 0.792000 -0.034249
N6    N     N_R   0.317450 0.028810 0.792000 -0.034698
N7    N     N_R   0.817450 0.471190 0.792000 -0.034186
N8    N     N_R   0.817450 0.528810 0.792000 -0.034743
N9    N     N_R   0.473900 0.028390 0.792280 -0.037527
N10   N     N_R   0.473900 0.971610 0.792280 -0.036787
N11   N     N_R   0.973900 0.528390 0.792280 -0.036917
N12   N     N_R   0.392450 0.896420 0.942190 -0.035636
N13   N     N_R   0.973900 0.471610 0.792280 -0.037439
N14   N     N_R   0.682310 0.971180 0.208170 -0.039519
N15   N     N_R   0.682310 0.028820 0.208170 -0.040576
N16   N     N_R   0.182310 0.471180 0.208170 -0.040797
N17   N     N_R   0.182310 0.528820 0.208170 -0.039247
N18   N     N_R   0.606470 0.103570 0.057210 -0.031619
N19   N     N_R   0.606470 0.896430 0.057210 -0.032536
N20   N     N_R   0.106470 0.603570 0.057210 -0.032123
N21   N     N_R   0.106470 0.396430 0.057210 -0.031971
N22   N     N_R   0.549740 0.896000 0.943240 -0.031875
N23   N     N_R   0.892450 0.603580 0.942190 -0.036006
N24   N     N_R   0.549740 0.104000 0.943240 -0.031842
N25   N     N_R   0.049740 0.396000 0.943240 -0.031788
N26   N     N_R   0.049740 0.604000 0.943240 -0.031911
N27   N     N_1   0.373303 0.100799 0.322929 -0.119149
N28   N     N_1   0.715578 0.886915 0.540427 -0.111762
N29   N     N_1   0.215804 0.612668 0.540344 -0.112465
N30   N     N_1   0.873219 0.399335 0.322847 -0.119354
N31   N     N_R   0.892450 0.396420 0.942190 -0.035376
N32   N     N_R   0.450490 0.896000 0.057360 -0.036051
N33   N     N_R   0.450490 0.104000 0.057360 -0.037160
N34   N     N_R   0.950490 0.396000 0.057360 -0.037179
N35   N     N_R   0.950490 0.604000 0.057360 -0.036049
N36   N     N_R   0.525490 0.028390 0.207550 -0.034677
Ni1   Ni    Ni4+2 0.433780 0.065390 0.868430 0.206380
Ni2   Ni    Ni4+2 0.433780 0.934610 0.868430 0.206997
Ni3   Ni    Ni4+2 0.933780 0.565390 0.868430 0.207205
Ni4   Ni    Ni4+2 0.933780 0.434610 0.868430 0.206171
Ni5   Ni    Ni4+2 0.565800 0.934190 0.131570 0.210973
Ni6   Ni    Ni4+2 0.565800 0.065810 0.131570 0.204646
Ni7   Ni    Ni4+2 0.065800 0.434190 0.131570 0.205195
Ni8   Ni    Ni4+2 0.065800 0.565810 0.131570 0.210458

loop_
_geom_bond_atom_site_label_1
_geom_bond_atom_site_label_2
_ccdc_geom_bond_type
C78   C87   S    
C93   N2    A    
C47   C114  A    
N21   N25   A    
C16   C25   A    
C67   H56   S    
C35   H15   S    
C99   H88   S    
C113  N8    A    
N16   Ni7   S    
C6    C110  A    
C6    C111  A    
N21   Ni7   S    
C39   H102  S    
C97   H86   S    
N31   N34   A    
C61   H38   S    
C59   C77   S    
C79   H42   S    
C5    C94   A    
C53   C59   S    
C58   C76   S    
C54   C60   S    
C8    N9    A    
C47   N33   A    
C33   C52   S    
C66   H46   S    
C98   C105  S    
C83   H64   S    
C66   C70   S    
C37   C41   S    
C33   C42   S    
C5    C96   A    
C35   C37   S    
C7    C52   S    
C38   C42   S    
C36   H16   S    
C48   N34   A    
C87   H67   S    
C49   H54   S    
N19   Ni5   S    
C58   H32   S    
C9    C22   A    
C62   N18   A    
C54   H21   S    
C28   C84   A    
C13   N25   A    
C14   C24   A    
C53   H24   S    
C3    C48   A    
C60   C78   S    
C33   C36   S    
C96   H98   S    
C7    C112  A    
C40   H36   S    
C11   C23   A    
N9    Ni1   S    
C111  H105  S    
C88   H82   S    
N32   Ni5   S    
C43   H17   S    
C78   C82   S    
C69   H50   S    
C113  H107  S    
C51   N31   A    
N31   Ni4   S    
N1    Ni1   S    
N5    Ni2   S    
C60   H37   S    
C13   H12   S    
C67   H48   S    
C81   H75   S    
C54   C71   S    
C33   H80   S    
C56   C58   S    
C73   H7    S    
C57   H33   S    
N8    Ni3   S    
C8    C22   A    
N7    N8    A    
C48   H53   S    
C51   H47   S    
C57   C75   S    
C32   C41   S    
C64   C70   S    
C91   C100  S    
C61   H68   S    
C41   H2    S    
C110  H104  S    
N16   N17   A    
C91   C104  S    
C29   N12   A    
C67   C71   S    
C55   C72   S    
C8    H108  S    
C110  N5    A    
C85   H63   S    
C97   C105  S    
C68   H49   S    
C101  C108  S    
N34   Ni7   S    
C65   H72   S    
C74   C116  S    
C10   N11   A    
C101  C103  S    
C81   H44   S    
N9    N10   A    
C89   C103  S    
C44   H18   S    
C107  C109  S    
C95   N21   A    
C53   H20   S    
C60   H30   S    
C21   H14   S    
C53   C70   S    
C80   H74   S    
C94   N3    A    
C26   C75   S    
N3    N4    A    
C63   C80   S    
N25   Ni4   S    
C46   N32   A    
C89   H83   S    
C105  C108  S    
N2    N36   A    
N26   Ni3   S    
C45   H19   S    
C56   C74   S    
C46   H51   S    
C90   H79   S    
C108  H99   S    
N14   Ni5   S    
N12   Ni2   S    
C66   H55   S    
N10   Ni2   S    
N17   Ni8   S    
C55   H27   S    
C102  C109  S    
N22   Ni2   S    
C65   H41   S    
N5    N6    A    
C111  N6    A    
C40   N23   A    
C3    C51   A    
C102  H94   S    
N6    Ni1   S    
N18   N24   A    
C45   C52   S    
C18   N28   T    
C16   N17   A    
N12   N32   A    
C22   C103  S    
C14   N15   A    
C71   C114  S    
C67   C87   S    
C91   H85   S    
C42   C45   S    
C30   C78   S    
C16   H5    S    
C32   C35   S    
C19   N29   T    
C30   C95   A    
C109  H103  S    
C101  H92   S    
C2    N24   A    
C25   C38   S    
C87   H61   S    
C15   H4    S    
C95   H9    S    
C23   C104  S    
N20   Ni8   S    
C77   C81   S    
C68   C72   S    
C63   H70   S    
C29   H25   S    
N3    Ni8   S    
C94   H97   S    
C93   H96   S    
C19   C99   S    
N14   N15   A    
N13   Ni4   S    
N11   Ni3   S    
C69   C74   S    
N11   N13   A    
C108  H100  S    
C6    C50   S    
C7    C113  A    
C102  C104  S    
C98   H87   S    
C43   C45   S    
C90   C104  S    
N33   Ni6   S    
C92   N36   A    
C32   H69   S    
C46   C115  A    
C61   C72   S    
N35   Ni8   S    
N2    Ni5   S    
C21   C28   A    
C77   C86   S    
C86   H60   S    
C57   H31   S    
C34   H91   S    
C41   C44   S    
C31   C35   S    
C84   H8    S    
C1    C114  A    
C31   C50   S    
C27   C76   S    
C49   N35   A    
C34   C52   S    
N23   Ni3   S    
C90   C99   S    
C62   H6    S    
C88   C103  S    
N4    Ni7   S    
C91   H81   S    
C86   H66   S    
C5    C107  S    
N19   N22   A    
C44   C50   S    
N7    Ni4   S    
C56   H23   S    
C106  H10   S    
C15   N16   A    
C17   N27   T    
C100  C107  S    
C85   H65   S    
C1    H1    S    
C83   H62   S    
C82   H76   S    
C68   C83   S    
C112  H106  S    
C88   H77   S    
C69   C85   S    
C20   C100  S    
C34   C43   S    
C76   C80   S    
C70   C115  S    
N18   Ni6   S    
C2    C26   A    
C66   C86   S    
C100  H89   S    
C102  H93   S    
C39   C44   S    
C73   N19   A    
C82   H45   S    
C59   H35   S    
C10   C23   A    
C24   C37   S    
C112  N7    A    
C99   C107  S    
C4    C105  S    
C12   C24   A    
C12   N14   A    
C27   C106  A    
C89   C98   S    
C84   N20   A    
C68   H57   S    
C69   H59   S    
C54   H26   S    
C106  N22   A    
C55   C57   S    
C3    C72   S    
C26   C62   A    
C88   C97   S    
C63   H39   S    
C38   C43   S    
C37   C39   S    
C109  H101  S    
C65   C71   S    
C2    H11   S    
C47   H52   S    
C75   C83   S    
C65   C82   S    
C40   C116  A    
C17   C97   S    
C61   C79   S    
C11   N13   A    
C89   H78   S    
C80   H43   S    
C36   C38   S    
C34   C36   S    
C31   C39   S    
C64   H40   S    
C32   C50   S    
C42   H13   S    
N20   N26   A    
C96   N4    A    
C29   C115  A    
C64   C81   S    
N15   Ni6   S    
C64   H71   S    
C12   H112  S    
C101  H90   S    
C55   H22   S    
C4    C93   A    
C56   H28   S    
C1    N1    A    
N24   Ni1   S    
C49   C116  A    
C90   H84   S    
C13   C30   A    
C63   C74   S    
C15   C25   A    
C11   H111  S    
C14   H3    S    
C79   H73   S    
N23   N35   A    
C9    N10   A    
C10   H110  S    
C92   H95   S    
C9    H109  S    
N1    N33   A    
C18   C98   S    
C28   C77   S    
C27   C73   A    
C21   N26   A    
C75   C79   S    
C76   C85   S    
C31   H58   S    
C58   H34   S    
N36   Ni6   S    
C20   N30   T    
C4    C92   A    
C59   H29   S    
