data_mof_unit_32911.cif
_audit_creation_date              2012-12-10T16:52:03-0500
_audit_creation_method            fapswitch 2.2
_symmetry_space_group_name_H-M    P1
_symmetry_Int_Tables_number       1
_space_group_crystal_system       triclinic
_cell_length_a                    7.771926
_cell_length_b                    8.554059
_cell_length_c                    14.874
_cell_angle_alpha                 91.035703
_cell_angle_beta                  85.991821
_cell_angle_gamma                 93.616137
_cell_volume                      984.370659161

loop_
_atom_site_label
_atom_site_type_symbol
_atom_type_description
_atom_site_fract_x
_atom_site_fract_y
_atom_site_fract_z
_atom_type_partial_charge
C1    C     C_R   0.545730 0.794682 0.497657 0.960907
C2    C     C_R   0.582716 0.625962 0.811203 -0.131723
C3    C     C_R   0.492895 0.502390 0.232302 -0.081839
C4    C     C_R   0.507105 0.497610 0.767698 -0.081839
C5    C     C_R   0.569439 0.630571 0.186082 -0.122572
C6    C     C_R   0.430561 0.369429 0.813918 -0.122572
C7    C     C_R   0.571513 0.633045 0.092668 -0.004205
C8    C     C_R   0.428487 0.366955 0.907332 -0.004205
C9    C     C_R   0.497909 0.500755 0.046883 -0.032109
C10   C     C_R   0.502091 0.499245 0.953117 -0.032109
C11   C     C_R   0.420520 0.369811 0.095265 0.000152
C12   C     C_R   0.454270 0.205318 0.502343 0.960908
C13   C     C_R   0.579480 0.630189 0.904735 0.000152
C14   C     C_R   0.646030 0.763773 0.044544 0.357194
C15   C     C_R   0.353970 0.236227 0.955456 0.357194
C16   C     C_R   0.650061 0.762324 0.950469 0.356069
C17   C     C_R   0.349940 0.237676 0.049531 0.356069
C18   C     C_2   0.569854 0.958189 0.496284 -0.345677
C19   C     C_2   0.430146 0.041811 0.503716 -0.345676
C20   C     C_R   0.502330 0.499685 0.672713 0.872156
C21   C     C_R   0.497670 0.500315 0.327287 0.872156
C22   C     C_R   0.417284 0.374038 0.188796 -0.131723
Cl1   Cl    Cl    0.734209 0.931577 0.100922 -0.467193
Cl2   Cl    Cl    0.265791 0.068423 0.899078 -0.467193
Cl3   Cl    Cl    0.743198 0.928336 0.891140 -0.474981
Cl4   Cl    Cl    0.256802 0.071664 0.108860 -0.474981
H1    H     H_    0.360248 0.277329 0.228995 0.181160
H2    H     H_    0.639752 0.722671 0.771005 0.181160
H3    H     H_    0.626396 0.727142 0.224271 0.184309
H4    H     H_    0.373604 0.272858 0.775729 0.184309
H5    H     H_    0.701828 0.009182 0.489170 0.187284
H6    H     H_    0.298172 0.990818 0.510830 0.187284
H7    H     H_    0.013663 0.382572 0.432027 0.202735
H8    H     H_    0.986337 0.617427 0.567973 0.202735
N1    N     N_2   0.950330 0.457950 0.475660 -0.165635
N2    N     N_2   0.049670 0.542050 0.524340 -0.165636
O1    O     O_R   0.389250 0.738570 0.505970 -0.610299
O2    O     O_R   0.610750 0.261430 0.494030 -0.610299
O3    O     O_R   0.678390 0.711620 0.490370 -0.629676
O4    O     O_R   0.321610 0.288380 0.509630 -0.629677
O5    O     O_R   0.355420 0.513510 0.639950 -0.600305
O6    O     O_R   0.644580 0.486490 0.360050 -0.600305
O7    O     O_R   0.644560 0.486560 0.624350 -0.618760
O8    O     O_R   0.355440 0.513440 0.375650 -0.618760
Zn1   Zn    Zn3+2 0.306940 0.517990 0.510420 0.983007
Zn2   Zn    Zn3+2 0.693060 0.482010 0.489580 0.983007

loop_
_geom_bond_atom_site_label_1
_geom_bond_atom_site_label_2
_ccdc_geom_bond_type
C14   Cl1   S    
C12   O4    A    
C2    C4    A    
C15   C17   A    
C21   O8    A    
C2    H2    S    
C9    C10   A    
C11   C22   A    
C5    H3    S    
N1    N2    D    
C1    O1    A    
C20   O5    A    
N2    Zn1   S    
O5    Zn1   S    
C9    C11   A    
C1    C18   S    
O3    Zn2   S    
C19   H6    S    
C12   C19   S    
C4    C6    A    
C15   Cl2   S    
C6    H4    S    
C8    C15   A    
H8    N2    S    
C22   H1    S    
C12   O2    A    
O4    Zn1   S    
O7    Zn2   S    
C14   C16   A    
O2    Zn2   S    
C3    C21   S    
C17   Cl4   S    
O1    Zn1   S    
C21   O6    A    
C4    C20   S    
C7    C9    A    
C20   O7    A    
O8    Zn1   S    
C8    C10   A    
C18   C19   D    
O6    Zn2   S    
C13   C16   A    
C16   Cl3   S    
C5    C7    A    
C2    C13   A    
C1    O3    A    
C11   C17   A    
C3    C22   A    
C6    C8    A    
C18   H5    S    
H7    N1    S    
N1    Zn2   S    
C7    C14   A    
C3    C5    A    
C10   C13   A    
