data_mof_unit_47596.cif
_audit_creation_date              2012-10-26T21:11:09-0400
_audit_creation_method            fapswitch 2.2
_symmetry_space_group_name_H-M    P1
_symmetry_Int_Tables_number       1
_space_group_crystal_system       triclinic
_cell_length_a                    10.895786
_cell_length_b                    10.994185
_cell_length_c                    13.109813
_cell_angle_alpha                 90.29257
_cell_angle_beta                  90.256875
_cell_angle_gamma                 88.344301
_cell_volume                      1569.73737389

loop_
_atom_site_label
_atom_site_type_symbol
_atom_type_description
_atom_site_fract_x
_atom_site_fract_y
_atom_site_fract_z
_atom_type_partial_charge
C1    C     C_R   0.489562 0.260068 0.499964 0.563417
C2    C     C_R   0.671623 0.823189 0.701856 -0.078285
C3    C     C_R   0.447206 0.125104 0.309302 0.050236
C4    C     C_R   0.552767 0.874896 0.690701 0.050241
C5    C     C_R   0.529664 0.130160 0.227344 -0.066708
C6    C     C_R   0.470297 0.869837 0.772649 -0.066705
C7    C     C_R   0.491994 0.181587 0.134614 -0.102580
C8    C     C_R   0.507954 0.818415 0.865383 -0.102574
C9    C     C_R   0.372801 0.230275 0.123564 -0.105550
C10   C     C_R   0.627147 0.769735 0.876447 -0.105548
C11   C     C_R   0.502966 0.936746 0.406126 -0.045236
C12   C     C_R   0.510434 0.739932 0.500036 0.563416
C13   C     C_R   0.497024 0.063255 0.593876 -0.045234
C14   C     C_R   0.513257 0.873033 0.499655 -0.030655
C15   C     C_R   0.486735 0.126968 0.500346 -0.030653
C16   C     C_R   0.259737 0.502753 0.499769 0.561238
C17   C     C_R   0.740263 0.497247 0.500231 0.561242
C18   C     C_R   0.516877 0.937027 0.593454 -0.066298
C19   C     C_R   0.483110 0.062974 0.406546 -0.066296
C20   C     C_1   0.500086 0.500302 0.173554 0.161368
C21   C     C_1   0.499914 0.499698 0.826446 0.161373
C22   C     C_1   0.500071 0.500209 0.050685 -0.023738
C23   C     C_R   0.872665 0.499087 0.500653 -0.027281
C24   C     C_1   0.499930 0.499790 0.949315 -0.023734
C25   C     C_R   0.197880 0.882063 0.363061 -0.123400
C26   C     C_R   0.802124 0.117914 0.636895 -0.123407
C27   C     C_R   0.149343 0.790252 0.422432 -0.091583
C28   C     C_R   0.850661 0.209738 0.577537 -0.091583
C29   C     C_R   0.122490 0.677859 0.378047 0.035794
C30   C     C_R   0.877509 0.322124 0.621937 0.035790
C31   C     C_R   0.146655 0.657078 0.274303 -0.065278
C32   C     C_R   0.853340 0.342884 0.725684 -0.065278
C33   C     C_R   0.196366 0.748958 0.215019 0.020998
C34   C     C_R   0.127334 0.500913 0.499346 -0.027283
C35   C     C_R   0.803631 0.250991 0.784954 0.021001
C36   C     C_R   0.220623 0.862007 0.259333 -0.091075
C37   C     C_R   0.779379 0.137949 0.740624 -0.091087
C38   C     C_R   0.932025 0.584363 0.439910 -0.049197
C39   C     C_R   0.067974 0.415637 0.560090 -0.049196
C40   C     C_1   0.513329 0.874074 0.308363 0.243979
C41   C     C_1   0.486666 0.125928 0.691638 0.243984
C42   C     C_1   0.220821 0.727655 0.108526 0.191053
C43   C     C_1   0.779171 0.272274 0.891450 0.191071
C44   C     C_1   0.861799 0.675033 0.382007 0.211807
C45   C     C_R   0.939876 0.415052 0.561191 -0.058308
C46   C     C_1   0.138200 0.324967 0.617993 0.211808
C47   C     C_R   0.060123 0.584944 0.438806 -0.058310
C48   C     C_R   0.291534 0.229196 0.205643 -0.110665
C49   C     C_R   0.708426 0.770817 0.794378 -0.110673
C50   C     C_R   0.328350 0.176819 0.298160 -0.078280
Cu1   Cu    Cu3+1 0.499990 0.499990 0.592680 1.030959
Cu2   Cu    Cu3+1 0.500010 0.500010 0.407320 1.030959
H1    H     H_    0.257914 0.934091 0.213912 0.131209
H2    H     H_    0.656109 0.730065 0.948330 0.134389
H3    H     H_    0.199760 0.268349 0.197423 0.116098
H4    H     H_    0.800199 0.731669 0.802610 0.116103
H5    H     H_    0.622245 0.092657 0.234902 0.124383
H6    H     H_    0.377717 0.907336 0.765080 0.124375
H7    H     H_    0.125409 0.570247 0.239899 0.109911
H8    H     H_    0.874583 0.429710 0.760099 0.109916
H9    H     H_    0.264210 0.176134 0.360985 0.095131
H10   H     H_    0.735773 0.823877 0.639040 0.095133
H11   H     H_    0.742089 0.065856 0.786036 0.131206
H12   H     H_    0.555061 0.183460 0.071192 0.152070
H13   H     H_    0.444878 0.816539 0.928798 0.152064
H14   H     H_    0.217219 0.968855 0.397667 0.111441
H15   H     H_    0.782788 0.031127 0.602276 0.111441
H16   H     H_    0.130385 0.807364 0.502345 0.109973
H17   H     H_    0.869621 0.192642 0.497622 0.109975
H18   H     H_    0.343829 0.269948 0.051685 0.134388
N1    N     N_1   0.500030 0.500030 0.268070 -0.162911
N2    N     N_1   0.499970 0.499970 0.731930 -0.162911
N3    N     N_1   0.521945 0.824606 0.230425 -0.286572
N4    N     N_1   0.478053 0.175397 0.769576 -0.286563
N5    N     N_1   0.240305 0.710337 0.022903 -0.320788
N6    N     N_1   0.759683 0.289574 0.977074 -0.320783
N7    N     N_1   0.806072 0.747384 0.335976 -0.286305
N8    N     N_1   0.193928 0.252616 0.664025 -0.286307
O1    O     O_R   0.499980 0.319630 0.578260 -0.476373
O2    O     O_R   0.500020 0.680370 0.421740 -0.476371
O3    O     O_R   0.500000 0.319650 0.421740 -0.496221
O4    O     O_R   0.500000 0.680350 0.578260 -0.496222
O5    O     O_R   0.319630 0.500000 0.578260 -0.488068
O6    O     O_R   0.680370 0.500000 0.421740 -0.488069
O7    O     O_R   0.319650 0.500020 0.421740 -0.502400
O8    O     O_R   0.680350 0.499980 0.578260 -0.502400

loop_
_geom_bond_atom_site_label_1
_geom_bond_atom_site_label_2
_ccdc_geom_bond_type
C48   H3    S    
C23   C45   A    
C27   C29   A    
C14   C18   A    
C30   C45   S    
C28   H17   S    
C13   C41   S    
C15   C19   A    
C11   C19   A    
C42   N5    T    
C17   C23   S    
C13   C18   A    
C29   C47   S    
C33   C42   S    
C44   N7    T    
C35   C37   A    
C11   C14   A    
C1    O3    A    
C33   C36   A    
C40   N3    T    
C31   H7    S    
Cu2   O6    S    
C6    H6    S    
C36   H1    S    
C16   C34   S    
C41   N4    T    
C34   C39   A    
C31   C33   A    
C20   N1    T    
C3    C19   S    
C1    C15   S    
C35   C43   S    
C39   C45   A    
C4    C18   S    
C48   C50   A    
C8    H13   S    
Cu2   O3    S    
Cu1   O8    S    
C37   H11   S    
C3    C50   A    
C21   N2    T    
C17   O8    A    
C32   C35   A    
C9    H18   S    
C4    C6    A    
C5    C7    A    
C6    C8    A    
C16   O5    A    
Cu1   Cu2   S    
C2    C4    A    
C38   C44   S    
C2    C49   A    
C12   O4    A    
Cu1   O4    S    
C38   C47   A    
C39   C46   S    
C12   C14   S    
C13   C15   A    
C16   O7    A    
C1    O1    A    
C22   C24   T    
Cu1   N2    S    
C26   H15   S    
C23   C38   A    
Cu1   O5    S    
C46   N8    T    
C43   N6    T    
C7    C9    A    
Cu2   O7    S    
C25   H14   S    
C20   C22   S    
C3    C5    A    
C26   C37   A    
C25   C27   A    
C49   H4    S    
C26   C28   A    
C5    H5    S    
C17   O6    A    
C28   C30   A    
C29   C31   A    
Cu2   N1    S    
C30   C32   A    
C27   H16   S    
C12   O2    A    
C11   C40   S    
C10   H2    S    
Cu1   O1    S    
C7    H12   S    
C25   C36   A    
C9    C48   A    
C8    C10   A    
C21   C24   S    
C50   H9    S    
C32   H8    S    
C34   C47   A    
Cu2   O2    S    
C10   C49   A    
C2    H10   S    
