data_mof_unit_24235.cif
_audit_creation_date              2012-12-10T20:34:48-0500
_audit_creation_method            fapswitch 2.2
_symmetry_space_group_name_H-M    P1
_symmetry_Int_Tables_number       1
_space_group_crystal_system       triclinic
_cell_length_a                    10.638896
_cell_length_b                    10.664867
_cell_length_c                    9.858665
_cell_angle_alpha                 89.985768
_cell_angle_beta                  89.793543
_cell_angle_gamma                 90.043039
_cell_volume                      1118.58028602

loop_
_atom_site_label
_atom_site_type_symbol
_atom_type_description
_atom_site_fract_x
_atom_site_fract_y
_atom_site_fract_z
_atom_type_partial_charge
C1    C     C_R   0.503973 0.259907 0.500029 0.871094
C2    C     C_3   0.878567 0.502326 0.500315 0.137096
C3    C     C_3   0.926064 0.620460 0.423856 -0.503639
C4    C     C_3   0.928158 0.382228 0.429544 -0.408277
C5    C     C_R   0.526712 0.063878 0.623029 0.135182
C6    C     C_R   0.524943 0.128589 0.500433 -0.103336
C7    C     C_R   0.548629 0.064845 0.378559 -0.232301
C8    C     C_R   0.549099 0.935211 0.378594 -0.226334
C9    C     C_R   0.525945 0.871305 0.500518 -0.101399
C10   C     C_R   0.527678 0.936010 0.623157 0.110560
C11   C     C_3   0.440918 0.928284 0.742558 -0.467367
C12   C     C_R   0.257719 0.500233 0.500371 0.912836
C13   C     C_3   0.439148 0.070438 0.741791 -0.491522
C14   C     C_R   0.437879 0.408385 0.071631 0.220829
C15   C     C_R   0.570628 0.583421 0.071697 -0.135897
C16   C     C_R   0.570646 0.583426 0.927646 -0.141598
C17   C     C_R   0.437614 0.408591 0.928997 0.221080
C18   C     C_3   0.299967 0.382855 0.924697 -0.527857
C19   C     C_3   0.300597 0.381522 0.078544 -0.518064
C20   C     C_R   0.504426 0.740051 0.499988 0.919471
C21   C     C_R   0.742298 0.500622 0.500036 0.845536
C22   C     C_3   0.070695 0.502732 0.648852 -0.412465
C23   C     C_3   0.928074 0.506040 0.648493 -0.396984
C24   C     C_3   0.072397 0.618666 0.420590 0.436644
C25   C     C_3   0.072440 0.381316 0.431199 -0.523499
C26   C     C_3   0.121365 0.502247 0.500984 0.079302
H1    H     H_    0.108358 0.583179 0.707658 0.183118
H2    H     H_    0.894934 0.378218 0.322665 0.183912
H3    H     H_    0.097159 0.601068 0.312333 0.095252
H4    H     H_    0.890680 0.619562 0.317643 0.152427
H5    H     H_    0.557563 0.113902 0.282760 0.169187
H6    H     H_    0.558217 0.886214 0.282813 0.165700
H7    H     H_    0.348658 0.885441 0.717380 0.205808
H8    H     H_    0.487969 0.888230 0.833268 0.198520
H9    H     H_    0.345898 0.110351 0.715063 0.193074
H10   H     H_    0.484473 0.112579 0.832432 0.202123
H11   H     H_    0.625679 0.652330 0.125880 0.137760
H12   H     H_    0.101530 0.415891 0.701913 0.176505
H13   H     H_    0.625711 0.652327 0.873000 0.139941
H14   H     H_    0.245969 0.462812 0.882445 0.214253
H15   H     H_    0.278419 0.289967 0.879354 0.193523
H16   H     H_    0.245822 0.459773 0.124029 0.213678
H17   H     H_    0.280817 0.287480 0.122352 0.198355
H18   H     H_    0.892006 0.424060 0.706994 0.185843
H19   H     H_    0.894965 0.592434 0.700958 0.166748
H20   H     H_    0.884104 0.704879 0.471086 0.155156
H21   H     H_    0.108269 0.374575 0.325248 0.178701
H22   H     H_    0.106322 0.296714 0.486274 0.183289
H23   H     H_    0.891835 0.297272 0.482454 0.168858
N1    N     N_R   0.499150 0.499140 0.142800 -0.105997
N2    N     N_R   0.499150 0.499180 0.857150 -0.105767
O1    O     O_R   0.500020 0.316790 0.614690 -0.617597
O2    O     O_R   0.500000 0.316760 0.385350 -0.625248
O3    O     O_R   0.314800 0.500000 0.614670 -0.626246
O4    O     O_R   0.314790 0.499960 0.385330 -0.626532
O5    O     O_R   0.500000 0.683240 0.614650 -0.621607
O6    O     O_R   0.499980 0.683210 0.385310 -0.616024
O7    O     O_R   0.685210 0.500040 0.614670 -0.634393
O8    O     O_R   0.685200 0.500000 0.385330 -0.631217
Zn1   Zn    Zn3+2 0.500010 0.500020 0.653130 0.935419
Zn2   Zn    Zn3+2 0.499990 0.499980 0.346870 0.942805
O9    O     O_3   0.139138 0.731154 0.453339 -0.610872
C27   C     C_3   0.078616 0.812644 0.545354 -0.320481
H24   H     H_    0.031395 0.763387 0.630195 0.152522
H25   H     H_    0.011284 0.873678 0.490448 0.171403
H26   H     H_    0.150499 0.875157 0.590420 0.179011

loop_
_geom_bond_atom_site_label_1
_geom_bond_atom_site_label_2
_ccdc_geom_bond_type
C3    H4    S    
C2    C4    S    
C27   H25   S    
O6    Zn2   S    
C6    C7    A    
C23   H19   S    
O1    Zn1   S    
C9    C10   A    
C25   H21   S    
C9    C20   S    
C5    C13   S    
C25   H22   S    
C19   H16   S    
C4    H23   S    
C20   O5    A    
C17   N2    A    
C2    C21   S    
C17   C18   S    
C20   O6    A    
C27   H26   S    
C21   O7    A    
C21   O8    A    
O3    Zn1   S    
C1    O2    A    
C11   C13   S    
C14   C17   A    
C3    C24   S    
C14   N1    A    
C15   C16   A    
O4    Zn2   S    
C5    C10   A    
C4    H2    S    
C19   H17   S    
C4    C25   S    
C2    C3    S    
C22   H1    S    
C11   H8    S    
C5    C6    A    
C24   C26   S    
C1    O1    A    
O8    Zn2   S    
C12   O4    A    
C7    C8    A    
C10   C11   S    
C18   H15   S    
C16   H13   S    
O7    Zn1   S    
C1    C6    S    
C8    H6    S    
O5    Zn1   S    
C11   H7    S    
C7    H5    S    
C13   H10   S    
C18   C19   S    
C22   C26   S    
C15   N1    A    
C2    C23   S    
N1    Zn2   S    
C18   H14   S    
C22   C23   S    
C15   H11   S    
C16   N2    A    
C24   O9    S    
N2    Zn1   S    
C3    H20   S    
C25   C26   S    
C24   H3    S    
O2    Zn2   S    
C14   C19   S    
C13   H9    S    
C12   O3    A    
C23   H18   S    
C27   H24   S    
C12   C26   S    
C8    C9    A    
O9    C27   S    
C22   H12   S    
