data_mof_unit_41390.cif
_audit_creation_date              2012-12-10T20:42:43-0500
_audit_creation_method            fapswitch 2.2
_symmetry_space_group_name_H-M    P1
_symmetry_Int_Tables_number       1
_space_group_crystal_system       triclinic
_cell_length_a                    8.902468
_cell_length_b                    10.653036
_cell_length_c                    9.885141
_cell_angle_alpha                 89.852826
_cell_angle_beta                  90.077484
_cell_angle_gamma                 90.000231
_cell_volume                      937.486137166

loop_
_atom_site_label
_atom_site_type_symbol
_atom_type_description
_atom_site_fract_x
_atom_site_fract_y
_atom_site_fract_z
_atom_type_partial_charge
C1    C     C_R   0.511703 0.260391 0.500158 0.895985
C2    C     C_R   0.368150 0.496708 0.928465 0.220426
C3    C     C_3   0.251588 0.396551 0.921239 -0.524992
C4    C     C_R   0.218778 0.499823 0.499934 0.927238
C5    C     C_3   0.251283 0.395578 0.075360 -0.282609
C6    C     C_R   0.503862 0.740097 0.499931 0.885048
C7    C     C_R   0.781244 0.499961 0.500067 0.951185
C8    C     C_1   0.065433 0.499745 0.499942 -0.195590
C9    C     C_1   0.934591 0.499788 0.500081 -0.171941
C10   C     C_R   0.514680 0.063863 0.621987 0.134468
C11   C     C_R   0.544426 0.129220 0.502727 -0.190138
C12   C     C_R   0.589054 0.933142 0.388648 -0.260312
C13   C     C_R   0.601766 0.063627 0.389028 -0.052979
C14   C     C_2   0.672259 0.125836 0.270465 0.938589
C15   C     C_2   0.104314 0.437715 0.135517 0.467880
C16   C     C_R   0.528856 0.871517 0.501659 -0.131229
C17   C     C_R   0.507992 0.936408 0.621577 0.142018
C18   C     C_3   0.380319 0.932502 0.719380 -0.453073
C19   C     C_3   0.387733 0.074654 0.720422 -0.472924
C20   C     C_R   0.367885 0.496880 0.070971 0.257703
C21   C     C_R   0.629933 0.513133 0.071935 -0.101139
C22   C     C_R   0.629931 0.513268 0.928319 -0.128431
H1    H     H_    0.295555 0.308382 0.876629 0.196042
H2    H     H_    0.146018 0.431289 0.873834 0.223720
H3    H     H_    0.706134 0.125842 0.068652 0.337968
H4    H     H_    0.040005 0.372790 0.197221 0.092121
H5    H     H_    0.294279 0.306576 0.120050 0.149409
H6    H     H_    0.623169 0.880304 0.300268 0.207221
H7    H     H_    0.275212 0.895096 0.673775 0.200641
H8    H     H_    0.413133 0.889245 0.817537 0.223287
H9    H     H_    0.286524 0.120257 0.676124 0.198688
H10   H     H_    0.425366 0.113084 0.819252 0.216637
H11   H     H_    0.735196 0.521923 0.125586 0.199501
H12   H     H_    0.735282 0.522222 0.874956 0.173076
N1    N     N_R   0.499010 0.499140 0.142800 -0.133930
N2    N     N_R   0.499010 0.499180 0.857150 -0.117777
O1    O     O_R   0.500020 0.316790 0.614690 -0.618052
O2    O     O_R   0.652043 0.075741 0.141072 -0.817427
O3    O     O_2   0.054930 0.542930 0.114117 -0.582723
O4    O     O_R   0.500000 0.316760 0.385350 -0.604081
O5    O     O_R   0.285350 0.500020 0.614650 -0.618111
O6    O     O_R   0.285340 0.499980 0.385310 -0.614054
O7    O     O_R   0.500000 0.683240 0.614650 -0.614093
O8    O     O_R   0.499980 0.683210 0.385310 -0.614159
O9    O     O_R   0.714660 0.500020 0.614690 -0.635522
O10   O     O_R   0.714650 0.499980 0.385350 -0.595171
O11   O     O_2   0.752147 0.218085 0.286138 -0.643676
Zn1   Zn    Zn3+2 0.500010 0.500020 0.653130 0.949280
Zn2   Zn    Zn3+2 0.499990 0.499980 0.346870 0.985998

loop_
_geom_bond_atom_site_label_1
_geom_bond_atom_site_label_2
_ccdc_geom_bond_type
O8    Zn2   S    
N1    Zn2   S    
N2    Zn1   S    
C14   O11   D    
C18   H8    S    
H3    O2    S    
C14   O2    S    
C22   N2    A    
O7    Zn1   S    
C3    H1    S    
C1    C11   S    
C1    O1    A    
C10   C19   S    
C4    C8    S    
C19   H9    S    
C5    H5    S    
C17   C18   S    
C18   H7    S    
C6    O8    A    
C13   C14   S    
O1    Zn1   S    
C11   C13   A    
O10   Zn2   S    
C15   O3    D    
C3    H2    S    
C4    O6    A    
C12   H6    S    
C21   N1    A    
C19   H10   S    
C7    O9    A    
O5    Zn1   S    
C2    C3    S    
C6    O7    A    
C22   H12   S    
C5    C20   S    
C5    C15   S    
C21   H11   S    
C10   C11   A    
O6    Zn2   S    
C2    C20   A    
O4    Zn2   S    
C7    O10   A    
C12   C13   A    
C18   C19   S    
C4    O5    A    
O9    Zn1   S    
C2    N2    A    
C7    C9    S    
C8    C9    T    
C15   H4    S    
C10   C17   A    
C1    O4    A    
C21   C22   A    
C20   N1    A    
C6    C16   S    
C12   C16   A    
C16   C17   A    
C3    C5    S    
