data_mof_unit_57888.cif
_audit_creation_date              2013-03-05T16:48:31-0500
_audit_creation_method            fapswitch 2.2
_symmetry_space_group_name_H-M    P1
_symmetry_Int_Tables_number       1
_space_group_crystal_system       triclinic
_cell_length_a                    10.874438
_cell_length_b                    14.669496
_cell_length_c                    14.790583
_cell_angle_alpha                 64.375463
_cell_angle_beta                  103.656845
_cell_angle_gamma                 102.98125
_cell_volume                      2046.91540517

loop_
_atom_site_label
_atom_site_type_symbol
_atom_site_description
_atom_site_fract_x
_atom_site_fract_y
_atom_site_fract_z
_atom_type_partial_charge
O1    O     O_R   0.455540 0.022090 0.338120 -0.578714
O2    O     O_R   0.544460 0.977910 0.661880 -0.580566
O3    O     O_R   0.512510 0.160150 0.379180 -0.601491
O4    O     O_R   0.487490 0.839850 0.620820 -0.601272
C1    C     C_R   0.475173 0.120411 0.312194 0.803706
C2    C     C_R   0.523752 0.879656 0.687845 0.814517
O5    O     O_R   0.291160 0.930970 0.479480 -0.546051
O6    O     O_R   0.708840 0.069030 0.520520 -0.546094
O7    O     O_R   0.348130 0.069020 0.520540 -0.595697
O8    O     O_R   0.651870 0.930980 0.479460 -0.594732
C3    C     C_R   0.262469 0.001492 0.498757 0.859310
C4    C     C_R   0.737430 0.998320 0.501492 0.863899
Cu1   Cu    Cu3+1 0.466270 0.918260 0.475690 0.973578
Cu2   Cu    Cu3+1 0.533730 0.081740 0.524310 0.971135
H1    H     H_    0.444942 0.182530 0.809999 0.202252
H2    H     H_    0.534927 0.828061 0.191982 0.198381
C5    C     C_R   0.346183 0.043743 0.793131 0.405579
C6    C     C_R   0.639668 0.964502 0.211083 0.413017
C7    C     C_R   0.253275 0.003162 0.730353 0.094296
C8    C     C_R   0.740308 0.002423 0.271711 0.087116
C9    C     C_R   0.192049 0.070409 0.637148 0.115114
C10   C     C_R   0.806461 0.932974 0.360487 0.112796
C11   C     C_R   0.222718 0.176286 0.608603 -0.069670
C12   C     C_R   0.774651 0.827668 0.385506 -0.061234
H3    H     H_    0.176179 0.228387 0.537474 0.141932
H4    H     H_    0.823968 0.773837 0.453666 0.148781
C13   C     C_R   0.312132 0.215627 0.671773 -0.219173
C14   C     C_R   0.678967 0.791017 0.323490 -0.226591
H5    H     H_    0.333458 0.297317 0.650051 0.169079
H6    H     H_    0.655937 0.709700 0.342909 0.169488
C15   C     C_R   0.374866 0.150108 0.762561 -0.213109
C16   C     C_R   0.610662 0.858597 0.237866 -0.227297
C17   C     C_R   0.965507 0.025368 0.571703 0.316465
C18   C     C_R   0.033916 0.973595 0.428905 0.321281
C19   C     C_R   0.871019 0.995874 0.502328 -0.249823
C20   C     C_R   0.128639 0.003792 0.497857 -0.249795
C21   C     C_R   0.904906 0.968052 0.431876 -0.155884
C22   C     C_R   0.094526 0.032323 0.567716 -0.157200
C23   C     C_R   0.439060 0.189528 0.205997 -0.044887
C24   C     C_R   0.535643 0.811492 0.796144 -0.063955
C25   C     C_R   0.298783 0.224702 0.044734 -0.132898
C26   C     C_R   0.605279 0.784011 0.972684 -0.090343
C27   C     C_R   0.347717 0.155008 0.139357 -0.017841
C28   C     C_R   0.599470 0.848265 0.870178 -0.055042
C29   C     C_R   0.481567 0.294098 0.176237 -0.234121
C30   C     C_R   0.480774 0.709042 0.825786 -0.257914
C31   C     C_R   0.421838 0.366218 0.087230 0.080262
C32   C     C_R   0.477115 0.644637 0.928635 0.094760
C33   C     C_R   0.334839 0.330026 0.018366 0.082652
C34   C     C_R   0.545691 0.682482 0.002329 0.091519
C35   C     C_R   0.450060 0.473130 0.062902 -0.006203
C36   C     C_R   0.415411 0.541652 0.960374 -0.001463
C37   C     C_R   0.318708 0.503911 0.895696 0.145011
C38   C     C_R   0.506999 0.515369 0.136601 0.149161
C39   C     C_R   0.281151 0.399088 0.925577 -0.184005
C40   C     C_R   0.553733 0.618928 0.104962 -0.183333
H7    H     H_    0.207731 0.371546 0.875826 0.162473
H8    H     H_    0.597530 0.649752 0.161685 0.155611
H9    H     H_    0.444417 0.679855 0.767787 0.158196
H10   H     H_    0.560888 0.317910 0.224203 0.156303
H11   H     H_    0.646033 0.926434 0.848722 0.187001
H12   H     H_    0.311646 0.074610 0.161389 0.197089
H13   H     H_    0.229457 0.196415 0.993576 0.156394
H14   H     H_    0.656468 0.813705 0.028847 0.157019
N1    N     N_R   0.584450 0.204570 0.560790 -0.196852
N2    N     N_R   0.415550 0.795430 0.439210 -0.198068
C41   C     C_R   0.713627 0.282815 0.669190 -0.277348
C42   C     C_R   0.282516 0.714487 0.334542 -0.275606
C43   C     C_R   0.679225 0.201246 0.639907 0.135437
C44   C     C_R   0.320142 0.798041 0.360691 0.143848
C45   C     C_R   0.518107 0.285403 0.509635 0.004686
C46   C     C_R   0.479713 0.713559 0.492582 0.004239
C47   C     C_R   0.545789 0.369831 0.537573 -0.024513
C48   C     C_R   0.448203 0.626710 0.468356 -0.028925
C49   C     C_R   0.647716 0.367525 0.618058 0.136971
C50   C     C_R   0.345576 0.628377 0.388442 0.130470
C51   C     C_R   0.476303 0.455315 0.489402 0.070463
C52   C     C_R   0.514949 0.539665 0.519208 0.065233
C53   C     C_R   0.618991 0.534148 0.598544 -0.235020
C54   C     C_R   0.368332 0.458535 0.413700 -0.207605
C55   C     C_R   0.682823 0.449291 0.647432 -0.173496
C56   C     C_R   0.306016 0.544091 0.363155 -0.159512
H15   H     H_    0.761245 0.447985 0.708678 0.155297
H16   H     H_    0.225420 0.544011 0.303817 0.151070
H17   H     H_    0.555389 0.719073 0.552424 0.130463
H18   H     H_    0.443829 0.281129 0.448478 0.127721
H19   H     H_    0.273150 0.865299 0.318432 0.191080
H20   H     H_    0.727586 0.134611 0.680742 0.192624
H21   H     H_    0.790509 0.279320 0.731937 0.164954
H22   H     H_    0.204938 0.717283 0.272418 0.167796
H23   H     H_    0.653636 0.594152 0.625448 0.137700
H24   H     H_    0.328755 0.395580 0.391760 0.130360
N3    N     N_3   0.239962 0.568181 0.809033 -0.593472
H25   H     H_    0.238601 0.637194 0.813314 0.243648
H26   H     H_    0.270924 0.579956 0.742596 0.218537
N4    N     N_3   0.499475 0.461006 0.242826 -0.599868
H27   H     H_    0.423889 0.401021 0.255724 0.222928
H28   H     H_    0.586798 0.435527 0.282381 0.220091
N5    N     N_R   0.412752 0.978530 0.887372 0.137189
O9    O     O_R   0.527117 0.011391 0.922664 -0.354070
O10   O     O_R   0.357818 0.888597 0.941225 -0.316771
N6    N     N_R   0.563573 0.031594 0.124448 0.140032
O11   O     O_R   0.447067 0.997670 0.094315 -0.346982
O12   O     O_R   0.610075 0.125582 0.073423 -0.316866
N7    N     N_3   0.223518 0.894704 0.760703 -0.535041
H29   H     H_    0.125511 0.873951 0.763160 0.251906
H30   H     H_    0.244620 0.875833 0.706091 0.192660
N8    N     N_3   0.772767 0.110394 0.244082 -0.534062
H31   H     H_    0.869816 0.130560 0.237667 0.249474
H32   H     H_    0.757802 0.127755 0.301719 0.195555
N9    N     N_R   0.930387 0.041276 0.651134 0.123434
O13   O     O_R   0.864394 0.967559 0.716472 -0.402549
O14   O     O_R   0.961558 0.129716 0.657027 -0.387745
N10   N     N_R   0.068780 0.956636 0.350157 0.124198
O15   O     O_R   0.130608 0.030946 0.282277 -0.415351
O16   O     O_R   0.039653 0.867237 0.346377 -0.389114

loop_
_geom_bond_atom_site_label_1
_geom_bond_atom_site_label_2
_geom_bond_distance
_ccdc_geom_bond_type
O5    Cu1   1.970513 S    
C29   H10   1.076745 S    
N3    H25   1.044866 S    
C30   H9    1.075638 S    
C13   H5    1.081835 S    
C18   C21   1.396944 A    
C47   C49   1.416245 A    
N9    O13   1.301240 A    
N10   O15   1.300457 A    
C31   C33   1.414705 A    
C51   C52   1.432748 A    
C24   C30   1.399161 A    
N7    H30   1.044591 S    
C6    C16   1.405895 A    
C48   C50   1.416865 A    
O1    C1    1.301867 A    
C10   C12   1.403174 A    
C3    C20   1.460074 S    
C19   C21   1.415953 A    
C12   H4    1.083465 S    
C41   H21   1.083800 S    
N8    H31   1.045482 S    
C6    N6    1.438657 S    
C29   C31   1.405174 A    
O4    Cu1   1.932293 S    
H2    C16   1.082947 S    
C17   C19   1.407916 A    
N2    C46   1.359687 A    
C9    C22   1.485675 S    
C40   H8    1.085283 S    
N4    H28   1.044832 S    
C42   H22   1.083778 S    
C17   N9    1.438612 S    
C11   C13   1.391658 A    
C53   H23   1.076227 S    
C23   C29   1.397866 A    
C32   C34   1.416304 A    
N3    H26   1.045028 S    
Cu1   Cu2   2.694193 S    
C25   C27   1.393636 A    
O2    C2    1.300733 A    
C26   C28   1.391596 A    
C44   H19   1.080524 S    
C25   C33   1.404231 A    
C55   H15   1.084316 S    
C46   H17   1.074827 S    
C30   C32   1.405997 A    
Cu1   N2    2.023834 S    
C37   C39   1.393529 A    
C38   C40   1.391281 A    
C13   C15   1.392117 A    
C35   C36   1.426147 A    
C14   C16   1.392496 A    
C54   C56   1.387308 A    
C50   C56   1.392387 A    
C53   C55   1.388114 A    
C52   C53   1.412661 A    
C49   C55   1.392803 A    
C31   C35   1.425174 A    
C33   C39   1.391226 A    
C10   C21   1.488099 S    
C37   N3    1.436766 S    
C34   C40   1.389610 A    
C41   C43   1.389229 A    
C54   H24   1.076155 S    
O1    Cu1   1.939286 S    
O5    C3    1.300388 A    
O7    Cu2   1.974362 S    
C45   H18   1.075112 S    
C5    N5    1.436446 S    
N10   O16   1.300672 A    
N5    O9    1.301261 A    
C32   C36   1.425784 A    
O6    C4    1.300196 A    
N4    H27   1.044140 S    
N9    O14   1.300742 A    
C4    C19   1.458204 S    
N6    O12   1.301240 A    
O7    C3    1.293286 A    
C43   H20   1.080362 S    
O8    C4    1.292302 A    
C26   C34   1.402190 A    
C7    N7    1.434271 S    
C46   C48   1.417630 A    
N5    O10   1.301350 A    
C8    C10   1.416226 A    
C56   H16   1.084261 S    
C39   H7    1.084884 S    
C5    C15   1.405015 A    
C2    C24   1.468770 S    
O4    C2    1.300713 A    
C42   C50   1.400512 A    
C25   H13   1.083847 S    
C20   C22   1.416040 A    
C26   H14   1.084119 S    
C36   C37   1.431418 A    
C45   C47   1.418349 A    
C51   C54   1.411686 A    
C1    C23   1.469526 S    
O6    Cu2   1.970515 S    
C7    C9    1.415011 A    
C38   N4    1.434849 S    
C12   C14   1.391986 A    
O3    C1    1.299831 A    
O8    Cu1   1.974362 S    
C23   C27   1.399284 A    
H1    C15   1.082829 S    
O3    Cu2   1.932293 S    
C28   H11   1.082730 S    
C18   N10   1.436583 S    
N7    H29   1.045378 S    
C17   C22   1.397102 A    
C35   C38   1.431310 A    
C9    C11   1.402994 A    
N1    C45   1.359998 A    
N2    C44   1.355368 A    
N1    C43   1.355589 A    
C14   H6    1.082405 S    
C5    C7    1.414996 A    
Cu2   N1    2.023834 S    
N8    H32   1.044035 S    
C6    C8    1.416262 A    
C11   H3    1.083488 S    
N6    O11   1.301291 A    
O2    Cu2   1.939287 S    
C24   C28   1.398425 A    
C41   C49   1.400423 A    
C18   C20   1.409621 A    
C42   C44   1.389001 A    
C48   C52   1.432103 A    
C47   C51   1.431718 A    
C27   H12   1.082195 S    
C8    N8    1.434349 S    
