data_mof_unit_28536.cif
_audit_creation_date              2012-12-11T15:59:38-0500
_audit_creation_method            fapswitch 2.2
_symmetry_space_group_name_H-M    P1
_symmetry_Int_Tables_number       1
_space_group_crystal_system       triclinic
_cell_length_a                    10.719193
_cell_length_b                    10.789863
_cell_length_c                    17.042839
_cell_angle_alpha                 99.685622
_cell_angle_beta                  99.793447
_cell_angle_gamma                 60.532526
_cell_volume                      1682.90924131

loop_
_atom_site_label
_atom_site_type_symbol
_atom_type_description
_atom_site_fract_x
_atom_site_fract_y
_atom_site_fract_z
_atom_type_partial_charge
C1    C     C_R   0.355985 0.769286 0.397440 0.585503
C2    C     C_R   0.823201 0.225635 0.192544 -0.000915
C3    C     C_R   0.855933 0.217392 0.276224 -0.044272
C4    C     C_R   0.817030 0.461840 0.291786 -0.146402
C5    C     C_R   0.813967 0.458259 0.210938 -0.144347
C6    C     C_R   0.801692 0.116049 0.143990 0.072112
C7    C     C_R   0.853126 0.985871 0.174986 -0.119823
C8    C     C_R   0.913433 0.967938 0.254180 -0.144115
C9    C     C_R   0.911683 0.083187 0.306369 0.004499
C10   C     C_R   0.832227 0.344433 0.325545 -0.012664
C11   C     C_R   0.356560 0.802840 0.153240 -0.017103
C12   C     C_R   0.369220 0.346486 0.357498 0.557358
C13   C     C_R   0.457133 0.824851 0.210346 0.005684
C14   C     C_R   0.441597 0.840233 0.292620 0.006875
C15   C     C_R   0.269915 0.749139 0.256945 -0.163910
C16   C     C_R   0.276754 0.745718 0.176136 0.022585
C17   C     C_R   0.578029 0.822398 0.187435 -0.083594
C18   C     C_R   0.676624 0.842054 0.245110 -0.132746
C19   C     C_R   0.648341 0.882116 0.324679 -0.105948
C20   C     C_R   0.529206 0.884374 0.348433 -0.078388
C21   C     C_R   0.345616 0.802263 0.315963 -0.026008
C22   C     C_R   0.298165 0.277143 0.799189 -0.006623
C23   C     C_R   0.776576 0.377197 0.403241 0.580203
C24   C     C_R   0.424087 0.176437 0.762143 0.036087
C25   C     C_R   0.477814 0.224948 0.712219 0.035857
C26   C     C_R   0.248933 0.446719 0.707174 -0.141676
C27   C     C_R   0.210166 0.411067 0.770157 -0.131664
C28   C     C_R   0.502228 0.030591 0.776701 -0.065644
C29   C     C_R   0.641201 0.943314 0.754719 -0.091317
C30   C     C_R   0.704700 0.000177 0.717846 -0.106649
C31   C     C_R   0.624002 0.139661 0.696718 -0.085845
C32   C     C_R   0.381467 0.353627 0.676797 -0.007575
C33   C     C_1   0.818306 0.342266 0.708974 -0.055743
C34   C     C_R   0.381471 0.714769 0.631445 0.534524
C35   C     C_1   0.845194 0.313902 0.776715 -0.049890
C36   C     C_1   0.358864 0.764095 0.713783 -0.054674
C37   C     C_1   0.326276 0.810871 0.780821 -0.055175
C38   C     C_R   0.889547 0.311132 0.086762 0.570708
C39   C     C_R   0.319616 0.300127 0.119925 0.609569
C40   C     C_R   0.299252 0.883645 0.082546 0.560415
C41   C     C_R   0.886231 0.297481 0.859110 0.546612
C42   C     C_R   0.278535 0.252950 0.877038 0.536033
C43   C     C_R   0.281295 0.880625 0.857899 0.541761
C44   C     C_R   0.407809 0.375174 0.600105 0.520777
C45   C     C_R   0.773442 0.380763 0.629670 0.551317
C46   C     C_1   0.343087 0.336813 0.274075 -0.035680
C47   C     C_1   0.332096 0.326936 0.203223 -0.013299
C48   C     C_R   0.823978 0.338293 0.160630 0.041933
Cr1   Cr    Cr6+3 0.608100 0.610860 0.522250 1.029027
Cr2   Cr    Cr6+3 0.288890 0.599990 0.488420 1.061990
Cr3   Cr    Cr6+3 0.603040 0.289190 0.489390 1.051124
Cr4   Cr    Cr6+3 0.053960 0.052250 0.967380 1.084707
Cr5   Cr    Cr6+3 0.059890 0.373160 0.992710 1.042669
Cr6   Cr    Cr6+3 0.373370 0.061690 0.991710 1.053699
H1    H     H_    0.803461 0.559882 0.327516 0.161327
H2    H     H_    0.777039 0.820405 0.227878 0.116394
H3    H     H_    0.722290 0.904574 0.368513 0.149595
H4    H     H_    0.510457 0.914902 0.410810 0.148420
H5    H     H_    0.700704 0.833041 0.768326 0.127361
H6    H     H_    0.814924 0.935252 0.703562 0.126754
H7    H     H_    0.676659 0.178942 0.667503 0.153351
H8    H     H_    0.812477 0.546945 0.188419 0.147590
H9    H     H_    0.959597 0.863884 0.275698 0.150286
O1    O     O_R   0.749810 0.499790 0.438040 -0.520121
O2    O     O_R   0.298970 0.468800 0.557390 -0.501922
O3    O     O_R   0.489400 0.255930 0.561910 -0.507272
O4    O     O_R   0.723890 0.306050 0.584610 -0.519866
O5    O     O_3   0.500010 0.500010 0.500020 -0.305591
O6    O     O_R   0.171100 0.914680 0.053100 -0.477033
O7    O     O_R   0.941680 0.184840 0.050710 -0.488860
O8    O     O_R   0.922080 0.403420 0.072610 -0.533943
O9    O     O_R   0.196880 0.369150 0.083850 -0.478183
O10   O     O_R   0.411730 0.181020 0.091530 -0.486762
O11   O     O_R   0.365010 0.944360 0.063320 -0.512485
O12   O     O_R   0.477660 0.726260 0.439290 -0.503937
O13   O     O_R   0.159380 0.906670 0.876210 -0.487399
O14   O     O_R   0.930820 0.177420 0.886730 -0.486048
O15   O     O_R   0.910360 0.395420 0.895720 -0.522299
O16   O     O_R   0.186010 0.361730 0.919870 -0.475631
O17   O     O_R   0.400000 0.173010 0.914630 -0.498286
O18   O     O_R   0.354140 0.936940 0.899340 -0.534428
O19   O     O_3   0.162410 0.162370 0.983930 -0.291356
O20   O     O_R   0.260150 0.743000 0.412270 -0.477251
O21   O     O_R   0.297740 0.466550 0.394720 -0.499120
O22   O     O_R   0.488080 0.253500 0.386430 -0.501533
O23   O     O_R   0.722670 0.303800 0.421940 -0.472113
O24   O     O_R   0.751130 0.502220 0.613520 -0.509085
O25   O     O_R   0.478890 0.728510 0.601960 -0.481565
O26   O     O_R   0.261470 0.745430 0.587750 -0.478412
H10   H     H_    0.175412 0.547083 0.682369 0.144590
H11   H     H_    0.457141 0.983805 0.805796 0.149796
H12   H     H_    0.112078 0.488495 0.796394 0.151688
C49   C     C_2   0.716391 0.139090 0.063981 0.605768
O27   O     O_2   0.726410 0.036836 0.016462 -0.524624
O28   O     O_R   0.622477 0.278166 0.043478 -0.690233
H13   H     H_    0.572863 0.280213 0.987156 0.362318
H14   H     H_    0.845598 0.898033 0.137436 0.164750
C50   C     C_2   0.983023 0.054766 0.389049 0.602028
O29   O     O_2   0.960103 0.982645 0.426833 -0.472698
O30   O     O_R   0.078338 0.106508 0.424364 -0.661974
H15   H     H_    0.101580 0.152686 0.385965 0.287897
H16   H     H_    0.210462 0.702166 0.273669 0.173594
H17   H     H_    0.603538 0.792749 0.125990 0.136411
C51   C     C_2   0.201169 0.680440 0.116932 0.594947
O31   O     O_2   0.240410 0.633506 0.049925 -0.479410
O32   O     O_R   0.086351 0.670534 0.138251 -0.745135
H18   H     H_    0.035389 0.636381 0.091194 0.347769

loop_
_geom_bond_atom_site_label_1
_geom_bond_atom_site_label_2
_ccdc_geom_bond_type
C25   C31   A    
C38   O7    A    
C1    C21   S    
C9    C50   S    
Cr1   O5    S    
C33   C45   S    
Cr1   O24   S    
C44   O3    A    
O28   H13   S    
Cr3   O22   S    
C51   O32   S    
Cr2   O21   S    
C7    C8    A    
C19   H3    S    
C26   C32   A    
C26   C27   A    
C49   O27   D    
C12   O22   A    
C14   C21   A    
C36   C37   T    
Cr5   O16   S    
C41   O14   A    
C30   C31   A    
O32   H18   S    
C15   C16   A    
C12   O21   A    
C18   C19   A    
C31   H7    S    
Cr4   O6    S    
Cr6   O11   S    
C16   C51   S    
C29   H5    S    
C8    C9    A    
C23   O23   A    
C30   H6    S    
C45   O4    A    
C39   O9    A    
Cr1   O12   S    
C38   C48   S    
C18   H2    S    
C25   C32   A    
C42   O16   A    
C49   O28   S    
Cr1   O1    S    
C13   C14   A    
Cr1   O25   S    
C44   O2    A    
C2    C6    A    
Cr3   O23   S    
C51   O31   D    
Cr2   O20   S    
Cr6   O17   S    
C5    C48   A    
C40   O6    A    
C1    O12   A    
C14   C20   A    
C24   C25   A    
C12   C46   S    
C41   O15   A    
Cr3   O4    S    
C2    C48   A    
Cr5   O19   S    
Cr3   O3    S    
C37   C43   S    
C29   C30   A    
C3    C9    A    
Cr6   O10   S    
C11   C16   A    
Cr2   O26   S    
C6    C49   S    
C17   C18   A    
C32   C44   S    
C27   H12   S    
C34   O25   A    
Cr4   O19   S    
C23   O1    A    
C50   O30   S    
C22   C27   A    
C4    H1    S    
C43   O18   A    
C22   C24   A    
C26   H10   S    
C20   H4    S    
Cr4   O14   S    
Cr5   O8    S    
Cr6   O19   S    
C39   C47   S    
C43   O13   A    
C46   C47   T    
C28   C29   A    
C7    H14   S    
C45   O24   A    
C24   C28   A    
C4    C5    A    
Cr4   O13   S    
C6    C7    A    
C10   C23   S    
C1    O20   A    
C13   C17   A    
C19   C20   A    
C2    C3    A    
C17   H17   S    
C34   O26   A    
C3    C10   A    
C11   C13   A    
C22   C42   S    
Cr2   O5    S    
O30   H15   S    
C33   C35   T    
C40   O11   A    
C5    H8    S    
Cr5   O15   S    
C28   H11   S    
C34   C36   S    
Cr3   O5    S    
C39   O10   A    
C15   H16   S    
C11   C40   S    
C35   C41   S    
Cr2   O2    S    
Cr4   O7    S    
C8    H9    S    
C15   C21   A    
C50   O29   D    
C42   O17   A    
Cr5   O9    S    
C4    C10   A    
Cr6   O18   S    
C38   O8    A    
