data_mof_unit_67832.cif
_audit_creation_date              2012-12-10T16:55:42-0500
_audit_creation_method            fapswitch 2.2
_symmetry_space_group_name_H-M    P1
_symmetry_Int_Tables_number       1
_space_group_crystal_system       triclinic
_cell_length_a                    7.908984
_cell_length_b                    8.714719
_cell_length_c                    10.596629
_cell_angle_alpha                 93.879116
_cell_angle_beta                  86.187182
_cell_angle_gamma                 92.405659
_cell_volume                      726.566603566

loop_
_atom_site_label
_atom_site_type_symbol
_atom_type_description
_atom_site_fract_x
_atom_site_fract_y
_atom_site_fract_z
_atom_type_partial_charge
C1    C     C_R   0.543464 0.793478 0.498829 0.953651
C2    C     C_3   0.504473 0.500845 0.876694 -0.238512
C3    C     C_3   0.337779 0.489645 0.045575 0.393505
C4    C     C_3   0.662221 0.510355 0.954425 0.393505
C5    C     C_2   0.561164 0.955846 0.518882 -0.176707
C6    C     C_2   0.438836 0.044154 0.481118 -0.176707
C7    C     C_2   0.651953 0.779159 0.104344 0.456672
C8    C     C_2   0.348047 0.220840 0.895656 0.456672
C9    C     C_3   0.265542 0.838809 0.026042 -0.270411
C10   C     C_3   0.734458 0.161191 0.973958 -0.270411
C11   C     C_3   0.078146 0.362740 0.078056 -0.194191
C12   C     C_R   0.456536 0.206522 0.501170 0.953651
C13   C     C_3   0.921854 0.637260 0.921944 -0.194191
C14   C     C_3   0.931208 0.233636 0.354223 -0.155454
C15   C     C_3   0.068792 0.766364 0.645777 -0.155454
C16   C     C_2   0.696395 0.011289 0.603930 0.363621
C17   C     C_2   0.303605 0.988711 0.396070 0.363621
C18   C     C_R   0.502525 0.503627 0.741964 1.018286
C19   C     C_R   0.497475 0.496373 0.258036 1.018286
C20   C     C_3   0.418491 0.621577 0.970232 0.391615
C21   C     C_3   0.581509 0.378422 0.029768 0.391615
C22   C     C_3   0.576483 0.631731 0.047983 -0.276429
C23   C     C_3   0.423517 0.368269 0.952017 -0.276429
C24   C     C_3   0.495527 0.499155 0.123306 -0.238512
H1    H     H_    0.686108 0.870556 0.043513 0.035173
H2    H     H_    0.061419 0.345762 0.974897 0.187307
H3    H     H_    0.950781 0.375991 0.125847 0.251443
H4    H     H_    0.938581 0.654238 0.025103 0.187307
H5    H     H_    0.864219 0.738371 0.886011 0.127535
H6    H     H_    0.049219 0.624009 0.874153 0.251443
H7    H     H_    0.815488 0.261820 0.309038 0.212367
H8    H     H_    0.902644 0.172106 0.441703 0.153154
H9    H     H_    0.000228 0.153290 0.285827 0.118053
H10   H     H_    0.097356 0.827894 0.558297 0.153154
H11   H     H_    0.184512 0.738180 0.690962 0.212366
H12   H     H_    0.313892 0.129444 0.956487 0.035172
H13   H     H_    0.999772 0.846710 0.714173 0.118053
H14   H     H_    0.819085 0.960545 0.592103 0.066777
H15   H     H_    0.180915 0.039455 0.407897 0.066777
H16   H     H_    0.364724 0.919747 0.063527 0.198422
H17   H     H_    0.203725 0.774048 0.104037 0.247521
H18   H     H_    0.164909 0.906279 0.990617 0.140734
H19   H     H_    0.796275 0.225952 0.895962 0.247521
H20   H     H_    0.635276 0.080253 0.936473 0.198422
H21   H     H_    0.835091 0.093720 0.009383 0.140734
H22   H     H_    0.135781 0.261629 0.113989 0.127535
N1    N     N_2   0.950320 0.457950 0.465730 0.202945
N2    N     N_2   0.049680 0.542050 0.534270 0.202945
O1    O     O_R   0.389250 0.738570 0.508410 -0.645931
O2    O     O_2   0.322956 0.203512 0.783300 -0.551936
O3    O     O_3   0.334654 0.744119 0.924263 -0.648570
O4    O     O_3   0.665346 0.255881 0.075737 -0.648570
O5    O     O_3   0.174068 0.497588 0.106428 -0.592089
O6    O     O_3   0.825932 0.502412 0.893572 -0.592089
O7    O     O_3   0.035097 0.364826 0.379125 -0.524998
O8    O     O_3   0.964903 0.635174 0.620874 -0.524998
O9    O     O_2   0.669976 0.109415 0.689748 -0.566310
O10   O     O_2   0.330024 0.890585 0.310252 -0.566310
O11   O     O_R   0.610750 0.261430 0.491590 -0.645931
O12   O     O_R   0.678390 0.711620 0.486450 -0.599298
O13   O     O_R   0.321610 0.288380 0.513550 -0.599298
O14   O     O_R   0.355460 0.513510 0.697030 -0.618834
O15   O     O_R   0.644540 0.486490 0.302970 -0.618834
O16   O     O_R   0.644600 0.486560 0.675070 -0.544777
O17   O     O_R   0.355400 0.513440 0.324930 -0.544777
O18   O     O_2   0.677044 0.796487 0.216700 -0.551936
Zn1   Zn    Zn3+2 0.306940 0.517990 0.514670 1.085668
Zn2   Zn    Zn3+2 0.693060 0.482010 0.485330 1.085668

loop_
_geom_bond_atom_site_label_1
_geom_bond_atom_site_label_2
_ccdc_geom_bond_type
C9    H16   S    
C2    C4    S    
C13   H4    S    
C19   O17   A    
C4    C21   S    
O11   Zn2   S    
C2    C18   S    
C7    C22   S    
C4    C22   S    
C13   H6    S    
C15   H10   S    
C3    C23   S    
N1    N2    D    
C11   O5    S    
C11   H3    S    
C17   O10   D    
C10   O4    S    
C15   O8    S    
C14   H9    S    
C14   O7    S    
C9    H18   S    
N1    O7    S    
C3    C20   S    
C8    H12   S    
C16   H14   S    
C7    O18   D    
C12   O13   A    
C3    O5    S    
C18   O16   A    
C3    C24   S    
C19   O15   A    
O14   Zn1   S    
C10   H21   S    
C2    C20   S    
C1    C5    S    
O16   Zn2   S    
C15   H11   S    
C20   C22   S    
C11   H22   S    
C19   C24   S    
C20   O3    S    
C16   O9    D    
C21   C23   S    
N2    Zn1   S    
C6    C12   S    
C5    C6    D    
C22   C24   S    
C1    O12   A    
C10   H20   S    
C9    O3    S    
C8    O2    D    
N1    Zn2   S    
C8    C23   S    
O12   Zn2   S    
C9    H17   S    
C13   O6    S    
C17   H15   S    
C21   C24   S    
C13   H5    S    
C2    C23   S    
N2    O8    S    
C6    C17   S    
O13   Zn1   S    
O15   Zn2   S    
C15   H13   S    
C5    C16   S    
O1    Zn1   S    
C11   H2    S    
C4    O6    S    
C10   H19   S    
C14   H7    S    
C12   O11   A    
C1    O1    A    
C21   O4    S    
C18   O14   A    
C14   H8    S    
O17   Zn1   S    
C7    H1    S    
