data_mof_unit_67022.cif
_audit_creation_date              2013-03-05T15:58:14-0500
_audit_creation_method            fapswitch 2.2
_symmetry_space_group_name_H-M    P1
_symmetry_Int_Tables_number       1
_space_group_crystal_system       triclinic
_cell_length_a                    8.194417
_cell_length_b                    12.913234
_cell_length_c                    14.294521
_cell_angle_alpha                 93.237891
_cell_angle_beta                  90.480857
_cell_angle_gamma                 98.56195
_cell_volume                      1493.13392457

loop_
_atom_site_label
_atom_site_type_symbol
_atom_site_description
_atom_site_fract_x
_atom_site_fract_y
_atom_site_fract_z
_atom_type_partial_charge
P1    P     P_3+3 0.054400 0.427280 0.286870 0.489151
O1    O     O_2   0.887370 0.460630 0.272300 -0.347878
O2    O     O_3   0.129410 0.451380 0.388510 -0.390903
O3    O     O_3   0.670210 0.653170 0.329170 -0.388703
O4    O     O_2   0.794876 0.590261 0.167195 -0.394508
O5    O     O_3   0.959086 0.297528 0.269894 -0.574828
O6    O     O_3   0.711969 0.775754 0.169522 -0.541685
H1    H     H_    0.761419 0.854458 0.298772 0.161698
C1    C     C_3   0.681127 0.954255 0.197863 -0.977014
H2    H     H_    0.682012 0.016800 0.254538 0.251209
H3    H     H_    0.795273 0.969601 0.156765 0.244875
P2    P     P_3+3 0.668300 0.742890 0.573060 0.449321
P3    P     P_3+3 0.132663 0.837482 0.372975 0.515006
O7    O     O_2   0.845380 0.761330 0.544970 -0.377093
O8    O     O_3   0.088930 0.704860 0.376040 -0.383980
O9    O     O_2   0.006243 0.882063 0.437196 -0.351395
O10   O     O_3   0.685049 0.767094 0.694729 -0.573797
O11   O     O_3   0.079458 0.869845 0.260564 -0.498768
C2    C     C_3   0.169524 0.819110 0.193543 0.404364
H4    H     H_    0.152692 0.732934 0.201237 0.068395
H5    H     H_    0.302254 0.851016 0.201317 0.059522
C3    C     C_3   0.107686 0.838941 0.095291 -0.558912
H6    H     H_    0.001239 0.778107 0.074032 0.231698
H7    H     H_    0.063657 0.916224 0.096337 0.236087
C4    C     C_3   0.217231 0.760036 0.654022 0.389264
H8    H     H_    0.348872 0.757505 0.640491 0.082016
H9    H     H_    0.141387 0.726457 0.591960 0.148180
C5    C     C_3   0.189618 0.873280 0.668328 -0.926072
H10   H     H_    0.268800 0.911938 0.726535 0.242200
H11   H     H_    0.220293 0.915456 0.603890 0.244377
H12   H     H_    0.058994 0.876640 0.686246 0.269783
Ba1   Ba    Ba6+2 0.855630 0.555280 0.454520 1.553554
C6    C     C_3   0.057568 0.223191 0.289793 0.305600
H13   H     H_    0.001567 0.183851 0.351213 0.095965
H14   H     H_    0.186815 0.255528 0.307427 0.118640
C7    C     C_3   0.044526 0.143978 0.205329 -0.093376
H15   H     H_    0.922144 0.139861 0.170150 0.101065
H16   H     H_    0.054103 0.064363 0.227394 0.184199
C8    C     C_3   0.716831 0.677103 0.737480 0.412402
H17   H     H_    0.819559 0.644203 0.702640 0.071413
H18   H     H_    0.604833 0.617032 0.734087 0.105605
C9    C     C_3   0.765435 0.706277 0.840332 -0.634039
H19   H     H_    0.893100 0.750042 0.844125 0.230624
H20   H     H_    0.763424 0.633907 0.879127 0.165818
P4    P     P_3+3 0.135310 0.572810 0.713130 0.451568
O12   O     O_2   0.302330 0.539400 0.727760 -0.368845
O13   O     O_3   0.060300 0.548700 0.611500 -0.410909
O14   O     O_3   0.519500 0.346920 0.670840 -0.378853
O15   O     O_3   0.175158 0.708973 0.736369 -0.579983
P5    P     P_3+3 0.062367 0.157300 0.616785 0.486615
O16   O     O_3   0.614310 0.373510 0.452640 -0.408460
O17   O     O_3   0.100780 0.295230 0.623970 -0.353211
O18   O     O_2   0.209431 0.116745 0.567631 -0.351808
O19   O     O_3   0.081957 0.117918 0.730338 -0.529771
Ba2   Ba    Ba6+2 0.334200 0.444810 0.545490 1.575078
P6    P     P_3+3 0.657284 0.649017 0.206711 0.431362
C10   C     C_3   0.671623 0.847978 0.239360 0.476079
H21   H     H_    0.545180 0.825219 0.265915 0.009343
H22   H     H_    0.574212 0.954907 0.149869 0.268527
O20   O     O_3   0.575400 0.626570 0.547370 -0.401022
C11   C     C_3   0.520556 0.328468 0.256008 0.513112
H23   H     H_    0.398101 0.353627 0.254795 0.020319
H24   H     H_    0.606914 0.390809 0.293423 0.131548
C12   C     C_3   0.580397 0.318206 0.156289 -0.894910
H25   H     H_    0.489897 0.265640 0.111291 0.302673
H26   H     H_    0.600352 0.396612 0.126859 0.209207
H27   H     H_    0.696669 0.284035 0.155717 0.251781
P7    P     P_3+3 0.526898 0.243905 0.418011 0.491986
O21   O     O_2   0.344320 0.238700 0.455090 -0.333685
O22   O     O_3   0.510491 0.230554 0.295284 -0.518888
C13   C     C_3   0.947364 0.143470 0.782061 0.348259
H28   H     H_    0.916486 0.222031 0.766623 0.037700
H29   H     H_    0.839938 0.081703 0.766277 0.046292
C14   C     C_3   0.990340 0.147477 0.886084 -0.288619
H30   H     H_    0.894948 0.183573 0.926057 0.140926
P8    P     P_3+3 0.533798 0.351030 0.793075 0.459070
C15   C     C_3   0.507786 0.149246 0.772590 0.484315
H31   H     H_    0.632768 0.171072 0.744509 -0.041096
O23   O     O_2   0.409562 0.419819 0.833032 -0.376845
O24   O     O_3   0.461821 0.228058 0.833765 -0.532479
H32   H     H_    0.419527 0.134218 0.712381 0.133026
C16   C     C_3   0.500993 0.048721 0.825010 -0.677840
H33   H     H_    0.542501 0.986814 0.777620 0.195367
H34   H     H_    0.372041 0.022233 0.845870 0.215309
C17   C     C_R   0.984243 0.444846 0.059113 -0.095030
C18   C     C_R   0.182145 0.494080 0.193406 0.261319
C19   C     C_R   0.337530 0.545019 0.223725 -0.528243
C20   C     C_R   0.452840 0.589105 0.161066 0.259779
C21   C     C_R   0.410430 0.590278 0.066403 -0.325724
C22   C     C_R   0.251506 0.546268 0.033500 0.065015
C23   C     C_R   0.137244 0.494336 0.096171 0.058770
H35   H     H_    0.372311 0.546573 0.297069 0.169435
C24   C     C_R   0.053787 0.503098 0.901307 -0.008775
C25   C     C_R   0.941213 0.449410 0.963802 0.038618
C26   C     C_R   0.008142 0.502412 0.803930 0.270682
C27   C     C_R   0.854282 0.450045 0.773452 -0.512934
C28   C     C_R   0.741361 0.404066 0.836303 0.250361
C29   C     C_R   0.784984 0.401415 0.930434 -0.328433
C30   C     C_R   0.207246 0.553123 0.938481 -0.141948
H36   H     H_    0.500821 0.626631 0.018941 0.143183
H37   H     H_    0.696577 0.361871 0.977060 0.163893
H38   H     H_    0.818323 0.449644 0.700395 0.172809
H39   H     H_    0.897972 0.401847 0.103987 0.162964
H40   H     H_    0.294687 0.596951 0.894063 0.159714
C31   C     C_R   0.776542 0.171849 0.515296 -0.444983
C32   C     C_R   0.428981 0.811884 0.462491 -0.566472
C33   C     C_R   0.412898 0.986194 0.414702 0.277747
C34   C     C_R   0.344117 0.881779 0.418905 0.099972
C35   C     C_R   0.578059 0.846048 0.510376 0.285472
C36   C     C_R   0.645762 0.955923 0.512707 -0.064376
C37   C     C_R   0.561100 0.027677 0.464034 -0.221979
C38   C     C_R   0.626362 0.137733 0.469036 0.255774
C39   C     C_R   0.862912 0.102731 0.558848 0.208363
C40   C     C_R   0.795374 0.996408 0.560899 -0.173681
H41   H     H_    0.861353 0.946542 0.599997 0.169926
H42   H     H_    0.828006 0.254201 0.517080 0.169063
H43   H     H_    0.374385 0.730273 0.462566 0.186185
N1    N     N_R   0.171566 0.175490 0.138140 0.243370
O25   O     O_R   0.184290 0.268072 0.105381 -0.498909
O26   O     O_R   0.263214 0.108562 0.104754 -0.428200
N2    N     N_3   0.653672 0.772180 0.883982 -0.159699
H44   H     H_    0.534810 0.729457 0.882739 0.138113
H45   H     H_    0.689370 0.787430 0.954429 0.154318
N3    N     N_3   0.236390 0.837722 0.025270 -0.210408
H46   H     H_    0.329592 0.901069 0.041014 0.166788
H47   H     H_    0.288485 0.769174 0.029452 0.120931
N4    N     N_3   0.151584 0.212288 0.901940 -0.110821
H48   H     H_    0.222288 0.180349 0.950479 0.229851
H49   H     H_    0.135258 0.287373 0.927481 0.179211
N5    N     N_3   0.990344 0.040795 0.916164 -0.196457
H50   H     H_    0.092857 0.010646 0.889133 0.164894
H51   H     H_    0.000393 0.044213 0.989193 0.143040
N6    N     N_3   0.606518 0.065827 0.908876 -0.189633
H52   H     H_    0.549908 0.109431 0.959609 0.196689
H53   H     H_    0.610919 0.992773 0.936113 0.148663
N7    N     N_R   0.330614 0.046344 0.355465 0.248752
O27   O     O_R   0.362398 0.040813 0.266689 -0.392962
O28   O     O_R   0.187043 0.066743 0.381313 -0.415320

loop_
_geom_bond_atom_site_label_1
_geom_bond_atom_site_label_2
_geom_bond_distance
_ccdc_geom_bond_type
C11   O22   1.403787 S    
O14   Ba2   2.809951 S    
C19   C20   1.389530 A    
C24   C25   1.422331 A    
C27   H38   1.082222 S    
O14   P8    1.747508 S    
C31   H42   1.082869 S    
C26   C27   1.392954 A    
P8    O23   1.540590 D    
C40   H41   1.076362 S    
C17   C23   1.404620 A    
O8    Ba1   2.797412 S    
C8    H18   1.108784 S    
P4    O12   1.511365 D    
C4    C5    1.515589 S    
P5    O19   1.741343 S    
P3    O11   1.750731 S    
C31   C39   1.388731 A    
C5    H10   1.100023 S    
C2    H5    1.106539 S    
O11   C2    1.405960 S    
N3    H47   1.042787 S    
C18   C23   1.435133 A    
O10   C8    1.399767 S    
P6    C20   1.835648 S    
C25   C29   1.403806 A    
C6    C7    1.530114 S    
O1    Ba1   2.844753 S    
P1    O1    1.510986 D    
P7    C38   1.873957 S    
C11   H24   1.100115 S    
C36   C37   1.442235 A    
O4    P6    1.543689 D    
N1    O25   1.298611 A    
O2    Ba2   2.803454 S    
O19   C13   1.402296 S    
C37   C38   1.439594 A    
P7    O21   1.584684 D    
O12   Ba2   2.845259 S    
P5    O17   1.758941 S    
C33   C34   1.386628 A    
C15   H32   1.109206 S    
C7    N1    1.451396 S    
C1    H2    1.110385 S    
C24   C30   1.410361 A    
Ba1   Ba2   4.571060 S    
C1    C10   1.517321 S    
C17   H39   1.072614 S    
O17   Ba2   2.797986 S    
C30   H40   1.079054 S    
C24   C26   1.437503 A    
Ba2   O20   2.833168 S    
P2    Ba1   3.432807 S    
C11   H23   1.100078 S    
C9    H20   1.111416 S    
O6    P6    1.745198 S    
P3    C34   1.844999 S    
P2    C35   1.881811 S    
C28   C29   1.392925 A    
C8    C9    1.531338 S    
C4    O15   1.402150 S    
P4    O13   1.569130 S    
P5    O18   1.542976 D    
C14   H30   1.113855 S    
C21   H36   1.081750 S    
P1    O5    1.742839 S    
C12   H27   1.107915 S    
C2    C3    1.536936 S    
N7    O28   1.295602 A    
C8    H17   1.107596 S    
C13   H29   1.108735 S    
C18   C19   1.396757 A    
P8    C28   1.825241 S    
C15   H31   1.105975 S    
P1    Ba1   3.398212 S    
C1    H22   1.109528 S    
C12   H26   1.108511 S    
P2    O10   1.750191 S    
C11   C12   1.516453 S    
N5    H51   1.044387 S    
N4    H49   1.044393 S    
Ba1   O16   2.833826 S    
C33   N7    1.412673 S    
H1    C10   1.110323 S    
C17   C25   1.411105 A    
C14   N4    1.463529 S    
P4    O15   1.752099 S    
C27   C28   1.387997 A    
C6    H13   1.107799 S    
Ba2   O21   2.905091 S    
C1    H3    1.107462 S    
N2    H44   1.044968 S    
O3    Ba1   2.810544 S    
C31   C38   1.392065 A    
P2    O7    1.497072 D    
C16   H34   1.109813 S    
P3    O8    1.699782 S    
C32   H43   1.081909 S    
N6    H52   1.046635 S    
Ba1   O13   2.802889 S    
C3    H7    1.109944 S    
C9    H19   1.111889 S    
Ba1   O20   2.902539 S    
C22   C23   1.422646 A    
N4    H48   1.041116 S    
P4    C26   1.863025 S    
C22   C30   1.413884 A    
O13   Ba2   2.918354 S    
C39   C40   1.403845 A    
C15   O24   1.400518 S    
P1    C18   1.873399 S    
C36   C40   1.416048 A    
C7    H15   1.110878 S    
C33   C37   1.417141 A    
C5    H12   1.109229 S    
P8    O24   1.743281 S    
O7    Ba1   2.904860 S    
N7    O27   1.297752 A    
C13   C14   1.521453 S    
C3    N3    1.461260 S    
C4    H9    1.108313 S    
C29   H37   1.079904 S    
O5    C6    1.382497 S    
P5    C39   1.849919 S    
C12   H25   1.103287 S    
C2    H4    1.112589 S    
C14   N5    1.466162 S    
N5    H50   1.045162 S    
C4    H8    1.102456 S    
C13   H28   1.114744 S    
C35   C36   1.442911 A    
C7    H16   1.105825 S    
C10   H21   1.110204 S    
C32   C34   1.389084 A    
C15   C16   1.529294 S    
C16   N6    1.459286 S    
C5    H11   1.108174 S    
C6    H14   1.100705 S    
O16   Ba2   2.901764 S    
O16   P7    1.761422 S    
O2    Ba1   2.917599 S    
N1    O26   1.300527 A    
N2    H45   1.045916 S    
P2    O20   1.600969 S    
C20   C21   1.395735 A    
P4    Ba2   3.398664 S    
P7    O22   1.755111 S    
C16   H33   1.112360 S    
P3    O9    1.543105 D    
N6    H53   1.046045 S    
C3    H6    1.111249 S    
P1    O2    1.569249 S    
C21   C22   1.406877 A    
C19   H35   1.082453 S    
O6    C10   1.402830 S    
O3    P6    1.750119 S    
C9    N2    1.460818 S    
N3    H46   1.045650 S    
C32   C35   1.395301 A    
