data_mof_unit_10595.cif
_audit_creation_date              2012-10-26T17:11:05-0400
_audit_creation_method            fapswitch 2.2
_symmetry_space_group_name_H-M    P1
_symmetry_Int_Tables_number       1
_space_group_crystal_system       triclinic
_cell_length_a                    28.036153
_cell_length_b                    18.736207
_cell_length_c                    16.860914
_cell_angle_alpha                 89.999387
_cell_angle_beta                  62.509545
_cell_angle_gamma                 89.999491
_cell_volume                      7856.83784091

loop_
_atom_site_label
_atom_site_type_symbol
_atom_type_description
_atom_site_fract_x
_atom_site_fract_y
_atom_site_fract_z
_atom_type_partial_charge
C1    C     C_R   0.294979 0.728218 0.329680 0.535201
C2    C     C_R   0.464479 0.127414 0.453979 0.467022
C3    C     C_R   0.926527 0.096851 0.066622 0.548395
C4    C     C_R   0.426509 0.403172 0.066636 0.552189
C5    C     C_R   0.573473 0.596851 0.933378 0.548394
C6    C     C_R   0.573491 0.403171 0.933365 0.552185
C7    C     C_R   0.426527 0.596851 0.066622 0.548395
C8    C     C_R   0.048128 0.502375 0.506993 -0.120504
C9    C     C_R   0.952033 0.502359 0.492505 -0.120501
C10   C     C_R   0.548077 0.002372 0.507156 -0.120506
C11   C     C_R   0.451976 0.002366 0.492689 -0.120507
C12   C     C_R   0.021376 0.567207 0.511533 -0.001887
C13   C     C_R   0.439957 0.877956 0.534468 0.469091
C14   C     C_R   0.973669 0.437920 0.504675 0.001250
C15   C     C_R   0.978762 0.567202 0.488001 -0.001873
C16   C     C_R   0.026537 0.437936 0.494721 0.001257
C17   C     C_R   0.521327 0.067206 0.511701 -0.001873
C18   C     C_R   0.473603 0.937926 0.504873 0.001264
C19   C     C_R   0.478711 0.067205 0.488175 -0.001868
C20   C     C_R   0.526476 0.937935 0.494904 0.001269
C21   C     C_R   0.127318 0.438324 0.495718 -0.029394
C22   C     C_R   0.885858 0.564822 0.460855 -0.027560
C23   C     C_R   0.872798 0.438308 0.503981 -0.029379
C24   C     C_R   0.535538 0.127406 0.545938 0.467002
C25   C     C_R   0.114201 0.564822 0.538906 -0.027552
C26   C     C_R   0.627286 0.938324 0.495802 -0.029386
C27   C     C_R   0.385835 0.064821 0.460952 -0.027550
C28   C     C_R   0.372757 0.938312 0.504096 -0.029377
C29   C     C_R   0.614181 0.064822 0.538990 -0.027549
C30   C     C_R   0.172853 0.436423 0.512592 -0.006703
C31   C     C_R   0.834214 0.565157 0.463183 -0.001023
C32   C     C_R   0.827191 0.436419 0.487297 -0.006723
C33   C     C_R   0.165803 0.565155 0.536738 -0.000992
C34   C     C_R   0.672841 0.936424 0.512621 -0.006703
C35   C     C_R   0.060200 0.377980 0.465137 0.469149
C36   C     C_R   0.334206 0.065155 0.463222 -0.001008
C37   C     C_R   0.327173 0.936420 0.487350 -0.006716
C38   C     C_R   0.665797 0.065155 0.536767 -0.000998
C39   C     C_R   0.192142 0.500336 0.529648 -0.169901
C40   C     C_R   0.807860 0.500339 0.470347 -0.169908
C41   C     C_R   0.692143 0.000337 0.529647 -0.169904
C42   C     C_R   0.307855 0.000337 0.470366 -0.169908
C43   C     C_R   0.096520 0.501763 0.514463 -0.104500
C44   C     C_R   0.903596 0.501749 0.485175 -0.104476
C45   C     C_R   0.596484 0.001760 0.514578 -0.104496
C46   C     C_R   0.964509 0.627420 0.453850 0.467039
C47   C     C_R   0.403553 0.001754 0.485315 -0.104485
C48   C     C_R   0.611575 0.880552 0.458559 0.413994
C49   C     C_R   0.420907 0.124547 0.435045 0.417552
C50   C     C_R   0.388504 0.880528 0.541273 0.413997
C51   C     C_R   0.579102 0.124540 0.564895 0.417558
C52   C     C_R   0.111624 0.380550 0.458454 0.413988
C53   C     C_R   0.920924 0.624556 0.434948 0.417540
C54   C     C_R   0.888563 0.380523 0.541130 0.414006
C55   C     C_R   0.079120 0.624538 0.564796 0.417562
C56   C     C_R   0.940028 0.377947 0.534273 0.469066
C57   C     C_R   0.035571 0.627404 0.545801 0.466979
C58   C     C_R   0.220873 0.768063 0.953441 0.038684
C59   C     C_R   0.779459 0.232457 0.046234 0.033983
C60   C     C_R   0.779125 0.768067 0.046561 0.038693
C61   C     C_R   0.705032 0.271806 0.670313 0.559572
C62   C     C_R   0.220538 0.232462 0.953769 0.033989
C63   C     C_R   0.720873 0.268063 0.953441 0.038679
C64   C     C_R   0.279458 0.732457 0.046234 0.033985
C65   C     C_R   0.279124 0.268069 0.046562 0.038697
C66   C     C_R   0.720539 0.732461 0.953768 0.033989
C67   C     C_R   0.241806 0.699031 0.947201 -0.092426
C68   C     C_R   0.758537 0.301497 0.052457 -0.096917
C69   C     C_R   0.758191 0.699036 0.052803 -0.092412
C70   C     C_R   0.241462 0.301500 0.947539 -0.096908
C71   C     C_R   0.741803 0.199030 0.947206 -0.092434
C72   C     C_R   0.705020 0.728218 0.670320 0.535205
C73   C     C_R   0.258534 0.801495 0.052463 -0.096912
C74   C     C_R   0.258190 0.199037 0.052804 -0.092404
C75   C     C_R   0.741464 0.801499 0.947538 -0.096910
C76   C     C_R   0.270737 0.681379 0.993204 -0.095353
C77   C     C_R   0.729602 0.319149 0.006453 -0.093268
C78   C     C_R   0.729260 0.681384 0.006801 -0.095339
C79   C     C_R   0.270398 0.319153 0.993542 -0.093249
C80   C     C_R   0.770733 0.181378 0.993210 -0.095358
C81   C     C_R   0.229599 0.819148 0.006459 -0.093261
C82   C     C_R   0.229260 0.181385 0.006801 -0.095333
C83   C     C_R   0.294967 0.271806 0.329687 0.559654
C84   C     C_R   0.770399 0.819151 0.993541 -0.093254
C85   C     C_R   0.144631 0.830048 0.943763 -0.112060
C86   C     C_R   0.855578 0.170285 0.056066 -0.112507
C87   C     C_R   0.855367 0.830052 0.056238 -0.112067
C88   C     C_R   0.144419 0.170287 0.943936 -0.112497
C89   C     C_R   0.644632 0.330048 0.943763 -0.112058
C90   C     C_R   0.355579 0.670285 0.056066 -0.112503
C91   C     C_R   0.355366 0.330053 0.056239 -0.112066
C92   C     C_R   0.644420 0.670287 0.943935 -0.112498
C93   C     C_R   0.117914 0.852078 0.895036 -0.012297
C94   C     C_R   0.794979 0.228218 0.329680 0.535197
C95   C     C_R   0.882167 0.148035 0.104908 -0.012795
C96   C     C_R   0.882086 0.852079 0.104964 -0.012300
C97   C     C_R   0.117832 0.148036 0.895093 -0.012798
C98   C     C_R   0.617914 0.352078 0.895036 -0.012298
C99   C     C_R   0.382167 0.648035 0.104908 -0.012795
C100  C     C_R   0.382085 0.352080 0.104964 -0.012298
C101  C     C_R   0.617832 0.648036 0.895093 -0.012797
C102  C     C_R   0.136516 0.829640 0.806927 -0.123098
C103  C     C_R   0.863499 0.170362 0.193072 -0.131522
C104  C     C_R   0.863484 0.829640 0.193072 -0.123081
C105  C     C_R   0.205032 0.771806 0.670313 0.559576
C106  C     C_R   0.136500 0.170362 0.806928 -0.131527
C107  C     C_R   0.636516 0.329640 0.806928 -0.123084
C108  C     C_R   0.363499 0.670361 0.193072 -0.131521
C109  C     C_R   0.363484 0.329640 0.193073 -0.123091
C110  C     C_R   0.636500 0.670362 0.806928 -0.131526
C111  C     C_R   0.182516 0.787575 0.765925 -0.006507
C112  C     C_R   0.817571 0.212569 0.234006 -0.011900
C113  C     C_R   0.817483 0.787575 0.234075 -0.006484
C114  C     C_R   0.182429 0.212570 0.765994 -0.011897
C115  C     C_R   0.682516 0.287574 0.765926 -0.006509
C116  C     C_R   0.205020 0.228218 0.670320 0.535203
C117  C     C_R   0.317570 0.712568 0.234006 -0.011899
C118  C     C_R   0.317483 0.287576 0.234075 -0.006481
C119  C     C_R   0.682429 0.712570 0.765994 -0.011896
C120  C     C_R   0.209274 0.765733 0.814775 -0.095702
C121  C     C_R   0.790959 0.234670 0.185015 -0.112279
C122  C     C_R   0.790724 0.765735 0.185226 -0.095658
C123  C     C_R   0.209040 0.234672 0.814986 -0.112280
C124  C     C_R   0.709274 0.265732 0.814776 -0.095728
C125  C     C_R   0.290958 0.734669 0.185015 -0.112282
C126  C     C_R   0.290724 0.265737 0.185227 -0.095637
C127  C     C_R   0.794967 0.771806 0.329687 0.559641
C128  C     C_R   0.709040 0.734671 0.814986 -0.112276
C129  C     C_R   0.190682 0.787180 0.903837 -0.008800
C130  C     C_R   0.809593 0.213276 0.095918 -0.008332
C131  C     C_R   0.809317 0.787183 0.096165 -0.008800
C132  C     C_R   0.190405 0.213279 0.904085 -0.008331
C133  C     C_R   0.690681 0.287179 0.903837 -0.008797
C134  C     C_R   0.309593 0.713276 0.095918 -0.008332
C135  C     C_R   0.309316 0.287185 0.096166 -0.008803
C136  C     C_R   0.690405 0.713279 0.904084 -0.008330
C137  C     C_R   0.196685 0.631800 0.527367 0.567884
C138  C     C_R   0.560138 0.877981 0.465293 0.469116
C139  C     C_R   0.799775 0.369137 0.485153 0.566835
C140  C     C_R   0.803318 0.631802 0.472617 0.567904
C141  C     C_R   0.200237 0.369137 0.514815 0.566930
C142  C     C_R   0.696684 0.131801 0.527374 0.567903
C143  C     C_R   0.299770 0.869137 0.485171 0.566867
C144  C     C_R   0.303316 0.131801 0.472625 0.567894
C145  C     C_R   0.700234 0.869138 0.514821 0.566906
C146  C     C_R   0.926509 0.903171 0.066636 0.552187
C147  C     C_R   0.073473 0.096851 0.933378 0.548394
C148  C     C_R   0.073491 0.903171 0.933365 0.552186
Cu1   Cu    Cu3+1 0.209920 0.785290 0.495070 1.066939
Cu2   Cu    Cu3+1 0.504760 0.500000 0.075850 0.981225
Cu3   Cu    Cu3+1 0.995240 1.000000 0.924150 0.981183
Cu4   Cu    Cu3+1 0.004760 0.000000 0.075850 0.981242
Cu5   Cu    Cu3+1 0.790080 0.214710 0.504930 1.074720
Cu6   Cu    Cu3+1 0.790080 0.785290 0.504930 1.067009
Cu7   Cu    Cu3+1 0.209920 0.214710 0.495070 1.074723
Cu8   Cu    Cu3+1 0.709920 0.285290 0.495070 1.066946
Cu9   Cu    Cu3+1 0.290080 0.714710 0.504930 1.074727
Cu10  Cu    Cu3+1 0.290080 0.285290 0.504930 1.066976
Cu11  Cu    Cu3+1 0.709920 0.714710 0.495070 1.074710
Cu12  Cu    Cu3+1 0.495240 0.500000 0.924150 0.981201
F1    F     F_    0.647446 0.831426 0.404575 -0.582180
F2    F     F_    0.496660 0.185937 0.427526 -0.535867
F3    F     F_    0.453520 0.820663 0.569198 -0.541681
F4    F     F_    0.503345 0.185917 0.572409 -0.535869
F5    F     F_    0.046679 0.320696 0.430334 -0.541676
F6    F     F_    0.996675 0.685958 0.427424 -0.535855
F7    F     F_    0.953603 0.320650 0.568981 -0.541652
F8    F     F_    0.003369 0.685908 0.572280 -0.535843
F9    F     F_    0.417154 0.177133 0.382796 -0.575822
F10   F     F_    0.352653 0.831395 0.595283 -0.582137
F11   F     F_    0.582838 0.177119 0.617167 -0.575809
F12   F     F_    0.147502 0.331417 0.404502 -0.582201
F13   F     F_    0.917144 0.677165 0.382751 -0.575830
F14   F     F_    0.852719 0.331404 0.595189 -0.582105
F15   F     F_    0.082834 0.677108 0.617098 -0.575790
F16   F     F_    0.546603 0.820701 0.430504 -0.541692
H1    H     H_    0.229307 0.499976 0.534638 0.158887
H2    H     H_    0.285532 0.627348 0.988469 0.110095
H3    H     H_    0.285210 0.373176 0.988791 0.110476
H4    H     H_    0.714465 0.627353 0.011538 0.110094
H5    H     H_    0.235147 0.658396 0.907702 0.111677
H6    H     H_    0.765191 0.342126 0.091967 0.111767
H7    H     H_    0.764850 0.658401 0.092303 0.111675
H8    H     H_    0.234811 0.342128 0.908023 0.111764
H9    H     H_    0.735141 0.158393 0.907712 0.111682
H10   H     H_    0.265185 0.842124 0.091977 0.111768
H11   H     H_    0.264850 0.158402 0.092303 0.111675
H12   H     H_    0.770648 0.499984 0.465505 0.158906
H13   H     H_    0.734812 0.842127 0.908022 0.111764
H14   H     H_    0.130188 0.847128 0.012408 0.140941
H15   H     H_    0.870065 0.153265 0.987390 0.139716
H16   H     H_    0.869810 0.847133 0.987593 0.140932
H17   H     H_    0.129932 0.153268 0.012613 0.139734
H18   H     H_    0.630189 0.347129 0.012407 0.140940
H19   H     H_    0.370066 0.653266 0.987389 0.139721
H20   H     H_    0.369809 0.347135 0.987594 0.140935
H21   H     H_    0.629932 0.653268 0.012613 0.139729
H22   H     H_    0.116357 0.847364 0.768952 0.171079
H23   H     H_    0.729324 0.999978 0.534586 0.158894
H24   H     H_    0.883546 0.152437 0.231141 0.161636
H25   H     H_    0.883644 0.847361 0.231047 0.171102
H26   H     H_    0.116454 0.152436 0.768858 0.161629
H27   H     H_    0.616357 0.347363 0.768952 0.171088
H28   H     H_    0.383546 0.652437 0.231141 0.161635
H29   H     H_    0.383644 0.347361 0.231047 0.171093
H30   H     H_    0.616454 0.652437 0.768858 0.161630
H31   H     H_    0.245830 0.734519 0.782597 0.158231
H32   H     H_    0.754467 0.266016 0.217118 0.139586
H33   H     H_    0.754168 0.734522 0.217404 0.158270
H34   H     H_    0.270659 0.999980 0.465475 0.158901
H35   H     H_    0.245531 0.266019 0.782883 0.139582
H36   H     H_    0.745830 0.234516 0.782599 0.158202
H37   H     H_    0.254466 0.766015 0.217119 0.139584
H38   H     H_    0.254167 0.234523 0.217405 0.158294
H39   H     H_    0.745531 0.766018 0.782883 0.139582
H40   H     H_    0.214786 0.873170 0.011208 0.110478
H41   H     H_    0.785526 0.127346 0.988479 0.110096
H42   H     H_    0.785211 0.873174 0.988790 0.110476
H43   H     H_    0.214465 0.127354 0.011539 0.110096
H44   H     H_    0.714792 0.373173 0.011198 0.110478
O1    O     O_R   0.255040 0.869590 0.478480 -0.532367
O2    O     O_R   0.817950 0.203450 0.375560 -0.516542
O3    O     O_R   0.817950 0.796550 0.375560 -0.493037
O4    O     O_R   0.182050 0.203450 0.624440 -0.516554
O5    O     O_R   0.682050 0.296550 0.624440 -0.493059
O6    O     O_R   0.317950 0.703450 0.375560 -0.516541
O7    O     O_R   0.317950 0.296550 0.375560 -0.493066
O8    O     O_R   0.682050 0.703450 0.624440 -0.516553
O9    O     O_R   0.250530 0.763330 0.367210 -0.519905
O10   O     O_R   0.749470 0.236670 0.632790 -0.482506
O11   O     O_R   0.749470 0.763330 0.632790 -0.519900
O12   O     O_R   0.744960 0.130410 0.521520 -0.532284
O13   O     O_R   0.250530 0.236670 0.367210 -0.482372
O14   O     O_R   0.750530 0.263330 0.367210 -0.519905
O15   O     O_R   0.249470 0.736670 0.632790 -0.482460
O16   O     O_R   0.249470 0.263330 0.632790 -0.519905
O17   O     O_R   0.750530 0.736670 0.367210 -0.482418
O18   O     O_R   0.177260 0.690030 0.513710 -0.436067
O19   O     O_R   0.822740 0.309970 0.486290 -0.434006
O20   O     O_R   0.822740 0.690030 0.486290 -0.436044
O21   O     O_R   0.177260 0.309970 0.513710 -0.434068
O22   O     O_R   0.677260 0.190030 0.513710 -0.436069
O23   O     O_R   0.744960 0.869590 0.521520 -0.532376
O24   O     O_R   0.322740 0.809970 0.486290 -0.434017
O25   O     O_R   0.322740 0.190030 0.486290 -0.436065
O26   O     O_R   0.677260 0.809970 0.513710 -0.434058
O27   O     O_R   0.051640 0.926880 0.885090 -0.505166
O28   O     O_R   0.948360 0.073120 0.114910 -0.509494
O29   O     O_R   0.948360 0.926880 0.114910 -0.505153
O30   O     O_R   0.051640 0.073120 0.885090 -0.509502
O31   O     O_R   0.551640 0.426880 0.885090 -0.505162
O32   O     O_R   0.448360 0.573120 0.114910 -0.509495
O33   O     O_R   0.448360 0.426880 0.114910 -0.505156
O34   O     O_R   0.255040 0.130410 0.478480 -0.532299
O35   O     O_R   0.551640 0.573120 0.885090 -0.509500
O36   O     O_R   0.940620 0.926560 0.986760 -0.511118
O37   O     O_R   0.059380 0.073440 0.013240 -0.513695
O38   O     O_R   0.059380 0.926560 0.013240 -0.511109
O39   O     O_R   0.940620 0.073440 0.986760 -0.513704
O40   O     O_R   0.440620 0.426560 0.986760 -0.511115
O41   O     O_R   0.559380 0.573440 0.013240 -0.513698
O42   O     O_R   0.559380 0.426560 0.013240 -0.511112
O43   O     O_R   0.440620 0.573440 0.986760 -0.513702
O44   O     O_R   0.755040 0.369590 0.478480 -0.532367
O45   O     O_R   0.244960 0.630410 0.521520 -0.532285
O46   O     O_R   0.244960 0.369590 0.521520 -0.532375
O47   O     O_R   0.755040 0.630410 0.478480 -0.532304
O48   O     O_R   0.182050 0.796550 0.624440 -0.493088

loop_
_geom_bond_atom_site_label_1
_geom_bond_atom_site_label_2
_ccdc_geom_bond_type
C1    O6    A    
Cu8   O5    S    
C14   C56   A    
C141  O21   A    
C147  O30   A    
C116  O4    A    
C65   C79   A    
C72   O11   A    
C123  C132  A    
C120  H31   S    
C38   C142  S    
C105  O15   A    
C11   C47   A    
C8    C43   A    
Cu12  O40   S    
C121  C130  A    
C41   H23   S    
C112  C121  A    
C51   F11   S    
C2    F2    S    
C61   O10   A    
C73   H10   S    
Cu7   O4    S    
Cu3   O39   S    
C28   C47   A    
C57   F8    S    
C24   F4    S    
C105  O48   A    
C99   C108  A    
C11   C19   A    
C86   H15   S    
C33   C39   A    
C30   C141  S    
Cu2   Cu12  S    
C145  O26   A    
C106  C114  A    
Cu10  O46   S    
C6    C98   S    
Cu12  O35   S    
C75   H13   S    
Cu9   O24   S    
C71   H9    S    
C76   H2    S    
C23   C54   A    
C102  H22   S    
C16   C35   A    
Cu3   O27   S    
C90   C134  A    
C34   C145  S    
C75   C84   A    
C11   C18   A    
C81   H40   S    
C32   C139  S    
Cu7   O13   S    
C58   C129  S    
C87   C131  A    
C113  C127  S    
Cu6   O20   S    
C140  O20   A    
C144  O25   A    
C31   C40   A    
C145  O23   A    
C93   C148  S    
C13   C18   A    
C20   C138  A    
C137  O18   A    
C71   C80   A    
C69   H7    S    
C67   H5    S    
C26   C45   A    
C85   C129  A    
C40   H12   S    
Cu8   O44   S    
C85   C93   A    
Cu4   O37   S    
C26   C34   A    
C22   C44   A    
C82   H43   S    
C83   O13   A    
C10   C20   A    
C96   C104  A    
C123  H35   S    
C29   C38   A    
C61   C115  S    
Cu12  O43   S    
C64   C73   A    
Cu5   O12   S    
C7    O43   A    
C15   C46   A    
Cu10  O25   S    
C91   C100  A    
Cu3   O30   S    
C126  H38   S    
C21   C30   A    
C88   C97   A    
C42   H34   S    
C127  O3    A    
Cu10  O16   S    
C119  C128  A    
C24   C51   A    
C29   C51   A    
C105  C111  S    
C100  C109  A    
C8    C16   A    
C21   C43   A    
C139  O44   A    
Cu7   Cu10  S    
C5    O41   A    
C97   C147  S    
Cu12  O31   S    
C25   C43   A    
C69   C78   A    
C92   C136  A    
C34   C41   A    
C125  H37   S    
C4    O33   A    
C74   C82   A    
C1    O9    A    
C46   F6    S    
C6    O31   A    
C88   H17   S    
C60   C131  S    
C73   C81   A    
Cu4   O29   S    
C39   H1    S    
C95   C103  A    
C109  C118  A    
C13   F3    S    
C22   C53   A    
C5    C101  S    
Cu11  O17   S    
C35   F5    S    
C66   C78   A    
C54   C56   A    
C122  H33   S    
C17   C24   A    
C89   C133  A    
C22   C31   A    
C113  C122  A    
C146  O29   A    
C53   F13   S    
C120  C129  A    
C64   C134  S    
C62   C132  S    
C90   H19   S    
C38   C41   A    
C110  H30   S    
C58   C81   A    
C33   C137  S    
C80   H41   S    
Cu2   O42   S    
Cu5   O19   S    
C94   O14   A    
Cu2   O33   S    
C83   O7    A    
C48   F1    S    
C124  H36   S    
C7    C99   S    
C85   H14   S    
C142  O22   A    
C139  O19   A    
C148  O27   A    
C61   O5    A    
C65   C74   A    
C104  C113  A    
Cu2   O41   S    
C29   C45   A    
C103  C112  A    
C147  O37   A    
C9    C14   A    
Cu11  O26   S    
C107  H27   S    
C2    C49   A    
C36   C42   A    
C59   C68   A    
C106  H26   S    
C59   C80   A    
C142  O12   A    
C12   C15   A    
Cu3   Cu4   S    
C68   H6    S    
C87   C96   A    
C116  O16   A    
C10   C45   A    
C46   C53   A    
Cu1   O18   S    
C64   C76   A    
C140  O47   A    
C91   C135  A    
C6    O42   A    
C1    C117  S    
Cu11  O8    S    
Cu6   O11   S    
Cu5   Cu8   S    
C109  H29   S    
C102  C111  A    
C55   F15   S    
C65   C135  S    
Cu8   O22   S    
C92   C101  A    
Cu1   O1    S    
C66   C136  S    
C114  C123  A    
C124  C133  A    
C70   H8    S    
C128  C136  A    
C63   C71   A    
C126  C135  A    
C127  O17   A    
C50   F10   S    
C137  O45   A    
C14   C16   A    
Cu5   O10   S    
Cu6   O3    S    
C3    O28   A    
C97   C106  A    
C17   C19   A    
C92   H21   S    
Cu7   O21   S    
C90   C99   A    
C96   C146  S    
C27   C49   A    
C83   C118  S    
C59   C130  S    
C117  C125  A    
C74   H11   S    
C63   C77   A    
C27   C47   A    
C68   C77   A    
C114  C116  S    
Cu6   O23   S    
C9    C44   A    
C115  C124  A    
C37   C143  S    
C146  O36   A    
C2    C19   A    
C9    C15   A    
C93   C102  A    
C89   H18   S    
C108  C117  A    
C86   C130  A    
C25   C55   A    
C23   C32   A    
C148  O38   A    
C110  C119  A    
C143  O1    A    
Cu8   O14   S    
C62   C70   A    
C77   H44   S    
Cu2   O32   S    
C84   H42   S    
C26   C48   A    
C27   C36   A    
Cu9   O45   S    
C63   C133  S    
C7    O32   A    
Cu1   O48   S    
C4    C100  S    
C48   C138  A    
C89   C98   A    
C78   H4    S    
Cu1   O9    S    
C141  O46   A    
C5    O35   A    
C55   C57   A    
C138  F16   S    
C101  C110  A    
C28   C37   A    
Cu6   Cu11  S    
C108  H28   S    
C125  C134  A    
Cu9   O6    S    
C104  H25   S    
C87   H16   S    
C49   F9    S    
C91   H20   S    
C60   C84   A    
C4    O40   A    
C54   F14   S    
C122  C131  A    
C70   C79   A    
C144  O34   A    
C60   C69   A    
C3    O39   A    
C66   C75   A    
C56   F7    S    
C94   C112  S    
C52   F12   S    
Cu7   O34   S    
C30   C39   A    
C107  C115  A    
C18   C20   A    
C103  H24   S    
C32   C40   A    
C62   C82   A    
C118  C126  A    
C28   C50   A    
Cu4   O28   S    
C72   C119  S    
C86   C95   A    
C23   C44   A    
C128  H39   S    
C13   C50   A    
Cu4   O38   S    
C58   C67   A    
Cu5   O2    S    
C79   H3    S    
Cu9   O15   S    
C37   C42   A    
C72   O8    A    
C35   C52   A    
C94   O2    A    
C88   C132  A    
C143  O24   A    
C111  C120  A    
C3    C95   S    
C67   C76   A    
C10   C17   A    
C121  H32   S    
Cu1   Cu9   S    
C31   C140  S    
C36   C144  S    
C12   C57   A    
Cu11  O47   S    
Cu10  O7    S    
C21   C52   A    
C8    C12   A    
C25   C33   A    
Cu3   O36   S    
C98   C107  A    
