data_mof_unit_41439.cif
_audit_creation_date              2013-03-05T15:52:54-0500
_audit_creation_method            fapswitch 2.2
_symmetry_space_group_name_H-M    P1
_symmetry_Int_Tables_number       1
_space_group_crystal_system       triclinic
_cell_length_a                    10.727849
_cell_length_b                    10.757441
_cell_length_c                    17.068247
_cell_angle_alpha                 99.789455
_cell_angle_beta                  99.680932
_cell_angle_gamma                 60.811425
_cell_volume                      1686.24984565

loop_
_atom_site_label
_atom_site_type_symbol
_atom_site_description
_atom_site_fract_x
_atom_site_fract_y
_atom_site_fract_z
_atom_type_partial_charge
O1    O     O_R   0.749810 0.499790 0.438040 -0.471841
O2    O     O_R   0.477660 0.726260 0.439290 -0.483431
C1    C     C_R   0.353837 0.776360 0.400657 0.601863
O3    O     O_R   0.260150 0.743000 0.412270 -0.512590
O4    O     O_R   0.297740 0.466550 0.394720 -0.508859
C2    C     C_R   0.369501 0.346229 0.357567 0.580554
O5    O     O_R   0.488080 0.253500 0.386430 -0.488685
O6    O     O_R   0.722670 0.303800 0.421940 -0.512203
C3    C     C_R   0.782239 0.373368 0.405698 0.560706
O7    O     O_R   0.751130 0.502220 0.613520 -0.510191
O8    O     O_R   0.478890 0.728510 0.601960 -0.480628
C4    C     C_R   0.380787 0.715881 0.631418 0.530463
O9    O     O_R   0.261470 0.745430 0.587750 -0.498707
O10   O     O_R   0.298970 0.468800 0.557390 -0.495283
C5    C     C_R   0.414749 0.380014 0.598858 0.551640
O11   O     O_R   0.489400 0.255930 0.561910 -0.488242
O12   O     O_R   0.723890 0.306050 0.584610 -0.549733
C6    C     C_R   0.773050 0.380972 0.629824 0.535139
Cr1   Cr    Cr6+3 0.608100 0.610860 0.522250 1.035366
Cr2   Cr    Cr6+3 0.288890 0.599990 0.488420 1.022442
Cr3   Cr    Cr6+3 0.603040 0.289190 0.489390 0.997952
O13   O     O_3   0.500010 0.500010 0.500020 -0.302266
C7    C     C_1   0.342965 0.336018 0.274219 -0.038914
C8    C     C_1   0.331361 0.326475 0.203412 -0.034387
C9    C     C_R   0.857022 0.326793 0.171224 -0.026873
C10   C     C_R   0.825102 0.228697 0.198188 0.005162
C11   C     C_R   0.855289 0.210436 0.280810 0.006272
C12   C     C_R   0.903428 0.412363 0.309080 0.080803
C13   C     C_R   0.900603 0.413531 0.227748 -0.122183
C14   C     C_R   0.773710 0.141068 0.146594 0.132794
C15   C     C_R   0.792116 0.016877 0.173139 -0.088776
C16   C     C_R   0.853463 0.983387 0.250237 -0.117919
C17   C     C_R   0.879771 0.080538 0.305754 0.122788
C18   C     C_R   0.862967 0.321643 0.335058 0.015787
H1    H     H_    0.938132 0.479718 0.209054 0.138224
H2    H     H_    0.761247 0.944621 0.133234 0.123852
H3    H     H_    0.883581 0.880458 0.267779 0.106472
H4    H     H_    0.138787 0.816174 0.290189 0.168960
C19   C     C_R   0.333879 0.830082 0.161399 -0.003037
C20   C     C_R   0.453748 0.821908 0.212887 0.005977
C21   C     C_R   0.446263 0.843812 0.296674 0.037547
C22   C     C_R   0.223104 0.828619 0.271647 -0.149576
C23   C     C_R   0.224220 0.823522 0.191677 -0.152576
C24   C     C_R   0.583031 0.783654 0.182913 -0.092476
C25   C     C_R   0.700946 0.773440 0.234928 -0.128205
C26   C     C_R   0.686560 0.819601 0.315944 -0.113402
C27   C     C_R   0.556816 0.863649 0.346882 0.048203
C28   C     C_R   0.333945 0.834844 0.325513 0.036230
H5    H     H_    0.596210 0.752425 0.119867 0.124994
H6    H     H_    0.133615 0.820610 0.153786 0.148940
H7    H     H_    0.802266 0.733758 0.211157 0.092663
H8    H     H_    0.775884 0.823679 0.354514 0.094688
H9    H     H_    0.225699 0.582814 0.697407 0.141998
C29   C     C_R   0.326258 0.316417 0.813453 0.036135
C30   C     C_R   0.433704 0.203748 0.767887 0.000253
C31   C     C_R   0.493582 0.239560 0.715440 -0.002414
C32   C     C_R   0.290284 0.480528 0.721395 -0.139508
C33   C     C_R   0.256205 0.457044 0.791001 0.070785
C34   C     C_R   0.483106 0.056151 0.772162 -0.094801
C35   C     C_R   0.610796 0.951812 0.742203 -0.082358
C36   C     C_R   0.689876 0.992746 0.705445 0.116098
C37   C     C_R   0.630630 0.136083 0.691821 -0.041085
C38   C     C_R   0.405585 0.371057 0.681871 -0.041878
H10   H     H_    0.422826 0.020487 0.797901 0.158561
H11   H     H_    0.648464 0.840299 0.748845 0.123799
H12   H     H_    0.690335 0.163717 0.660174 0.161651
C39   C     C_1   0.817638 0.342483 0.709085 -0.043832
C40   C     C_1   0.844719 0.313844 0.776714 -0.032757
C41   C     C_1   0.358162 0.765830 0.713614 -0.058726
C42   C     C_1   0.325646 0.812120 0.780636 -0.058622
O14   O     O_R   0.171100 0.914680 0.053100 -0.524438
O15   O     O_R   0.941680 0.184840 0.050710 -0.496932
C43   C     C_R   0.896818 0.308528 0.090207 0.531476
O16   O     O_R   0.922080 0.403420 0.072610 -0.531621
O17   O     O_R   0.196880 0.369150 0.083850 -0.511123
C44   C     C_R   0.319104 0.299891 0.120083 0.563547
O18   O     O_R   0.411730 0.181020 0.091530 -0.478014
O19   O     O_R   0.365010 0.944360 0.063320 -0.501961
C45   C     C_R   0.295745 0.887996 0.084417 0.538414
O20   O     O_R   0.159380 0.906670 0.876210 -0.503553
O21   O     O_R   0.930820 0.177420 0.886730 -0.490144
C46   C     C_R   0.886121 0.297363 0.859057 0.550455
O22   O     O_R   0.910360 0.395420 0.895720 -0.504196
O23   O     O_R   0.186010 0.361730 0.919870 -0.468428
C47   C     C_R   0.301213 0.283615 0.886637 0.555577
O24   O     O_R   0.400000 0.173010 0.914630 -0.531162
O25   O     O_R   0.354140 0.936940 0.899340 -0.520885
C48   C     C_R   0.281025 0.880901 0.857825 0.538473
Cr4   Cr    Cr6+3 0.053960 0.052250 0.967380 1.018659
Cr5   Cr    Cr6+3 0.059890 0.373160 0.992710 1.027811
Cr6   Cr    Cr6+3 0.373370 0.061690 0.991710 1.021042
O26   O     O_3   0.162410 0.162370 0.983930 -0.254527
N1    N     N_3   0.947808 0.502247 0.365709 -0.591705
H13   H     H_    0.040126 0.435027 0.399830 0.249810
H14   H     H_    0.977693 0.560156 0.336499 0.213918
C49   C     C_2   0.537320 0.942109 0.428089 0.288212
H15   H     H_    0.630217 0.933947 0.468471 0.078421
O27   O     O_2   0.417698 0.021005 0.449578 -0.485046
N2    N     N_3   0.147400 0.572713 0.836236 -0.589701
H16   H     H_    0.198948 0.595723 0.889943 0.235003
H17   H     H_    0.097963 0.665464 0.806811 0.241317
N3    N     N_3   0.826349 0.890008 0.678064 -0.619312
H18   H     H_    0.813889 0.882309 0.615624 0.222009
H19   H     H_    0.856339 0.788719 0.693986 0.235871
N4    N     N_3   0.690497 0.181451 0.071205 -0.590847
H20   H     H_    0.750824 0.112545 0.025117 0.243072
H21   H     H_    0.660131 0.287177 0.063672 0.223469
N5    N     N_3   0.949995 0.034454 0.382924 -0.620086
H22   H     H_    0.875196 0.036872 0.416100 0.241773
H23   H     H_    0.992972 0.099442 0.414102 0.246554

loop_
_geom_bond_atom_site_label_1
_geom_bond_atom_site_label_2
_geom_bond_distance
_ccdc_geom_bond_type
C24   H5    1.082924 S    
C30   C31   1.383631 A    
N1    H13   1.045758 S    
C30   C34   1.418748 A    
C43   O16   1.267733 A    
C4    C41   1.430671 S    
C42   C48   1.430912 S    
O14   C45   1.262363 A    
O21   C46   1.282749 A    
O4    Cr2   1.940308 S    
C47   O24   1.249087 A    
C11   C17   1.417615 A    
N4    H21   1.044251 S    
O8    Cr1   1.926596 S    
C10   C11   1.417993 A    
O11   Cr3   2.056681 S    
C12   C13   1.385494 A    
H4    C22   1.079384 S    
O25   Cr6   1.941729 S    
O24   Cr6   2.059700 S    
C14   C15   1.395539 A    
C25   H7    1.079429 S    
C5    O11   1.289093 A    
C26   H8    1.082844 S    
C1    C28   1.462113 S    
N5    H22   1.045302 S    
O12   C6    1.260746 A    
O20   Cr4   2.046641 S    
O17   Cr5   1.942579 S    
C26   C27   1.399827 A    
C15   C16   1.390419 A    
O6    C3    1.281361 A    
C49   O27   1.221386 D    
C7    C8    1.185870 T    
O21   Cr4   1.933094 S    
C12   C18   1.400873 A    
C34   C35   1.392297 A    
N1    H14   1.045760 S    
Cr3   O13   1.969891 S    
N3    H18   1.045656 S    
C17   N5    1.439543 S    
O23   Cr5   1.934652 S    
C32   C38   1.400572 A    
C11   C18   1.410333 A    
C9    C13   1.409852 A    
O1    Cr1   2.045443 S    
C37   H12   1.071009 S    
C39   C40   1.196911 T    
O10   Cr2   1.939704 S    
Cr1   O13   1.989322 S    
O1    C3    1.274019 A    
C44   O18   1.253667 A    
C19   C20   1.403413 A    
H9    C32   1.082870 S    
O19   C45   1.285738 A    
C8    C44   1.399076 S    
C19   C23   1.397795 A    
C6    C39   1.417776 S    
O5    Cr3   2.064008 S    
O12   Cr3   1.943081 S    
C35   C36   1.394493 A    
C19   C45   1.459777 S    
O17   C44   1.260127 A    
Cr5   O26   1.970096 S    
N2    H16   1.045588 S    
O14   Cr4   2.052789 S    
O7    Cr1   2.052595 S    
C27   C49   1.484860 S    
C49   H15   1.086354 S    
O6    Cr3   1.937087 S    
C21   C27   1.424548 A    
C31   C38   1.418341 A    
C22   C28   1.397399 A    
C16   H3    1.072988 S    
O23   C47   1.271222 A    
Cr4   O26   1.989126 S    
N3    H19   1.045935 S    
C20   C21   1.418708 A    
N2    H17   1.045814 S    
Cr2   O13   1.967546 S    
C35   H11   1.083138 S    
C10   C14   1.424579 A    
C14   N4    1.437663 S    
C3    C18   1.471864 S    
C31   C37   1.419032 A    
C25   C26   1.395014 A    
C22   C23   1.358554 A    
C1    O3    1.273263 A    
Cr6   O26   1.967122 S    
C24   C25   1.385760 A    
C29   C33   1.411223 A    
O22   Cr5   2.058668 S    
C29   C30   1.421554 A    
O18   Cr6   2.062931 S    
O9    Cr2   2.055614 S    
O2    Cr1   1.934226 S    
O10   C5    1.316444 A    
C33   N2    1.437581 S    
O15   C43   1.279065 A    
C29   C47   1.453362 S    
O8    C4    1.311309 A    
C23   H6    1.084163 S    
C2    O5    1.254839 A    
O19   Cr6   1.940854 S    
N4    H20   1.045051 S    
C13   H1    1.082071 S    
C40   C46   1.414912 S    
C16   C17   1.389522 A    
O16   Cr5   2.051633 S    
C36   N3    1.435127 S    
C9    C10   1.418887 A    
O20   C48   1.278132 A    
O15   Cr4   1.928421 S    
C32   C33   1.395420 A    
O4    C2    1.258288 A    
O7    C6    1.279153 A    
C2    C7    1.399317 S    
C21   C28   1.425638 A    
N5    H23   1.043954 S    
O2    C1    1.271919 A    
C9    C43   1.468801 S    
C36   C37   1.397119 A    
C41   C42   1.203889 T    
O3    Cr2   2.057591 S    
C34   H10   1.073878 S    
C20   C24   1.401790 A    
C4    O9    1.287580 A    
O25   C48   1.268758 A    
C46   O22   1.249096 A    
C5    C38   1.459123 S    
C15   H2    1.083015 S    
C12   N1    1.439541 S    
