data_mof_unit_47768.cif
_audit_creation_date              2013-03-05T16:04:39-0500
_audit_creation_method            fapswitch 2.2
_symmetry_space_group_name_H-M    P1
_symmetry_Int_Tables_number       1
_space_group_crystal_system       triclinic
_cell_length_a                    9.566636
_cell_length_b                    10.795714
_cell_length_c                    15.634308
_cell_angle_alpha                 89.732656
_cell_angle_beta                  72.412319
_cell_angle_gamma                 90.259505
_cell_volume                      1539.1662021

loop_
_atom_site_label
_atom_site_type_symbol
_atom_site_description
_atom_site_fract_x
_atom_site_fract_y
_atom_site_fract_z
_atom_type_partial_charge
O1    O     O_R   0.118740 0.319660 0.500000 -0.570664
O2    O     O_R   0.881260 0.680340 0.500000 -0.567116
O3    O     O_R   0.881170 0.319630 0.500010 -0.574822
O4    O     O_R   0.118830 0.680370 0.499990 -0.570892
C1    C     C_R   0.999475 0.262407 0.500004 0.919430
C2    C     C_R   0.000768 0.737461 0.499636 0.920707
O5    O     O_R   0.055570 0.500030 0.629830 -0.542382
O6    O     O_R   0.944430 0.499970 0.370170 -0.529475
O7    O     O_R   0.818000 0.500000 0.629840 -0.542790
O8    O     O_R   0.182000 0.500000 0.370160 -0.555132
C3    C     C_R   0.916020 0.503038 0.672445 0.838623
C4    C     C_R   0.084180 0.500206 0.327470 0.850293
Cu1   Cu    Cu3+1 0.140660 0.500020 0.500000 0.997373
Cu2   Cu    Cu3+1 0.859340 0.499980 0.500000 1.006142
C5    C     C_R   0.867643 0.530523 0.769691 -0.299053
C6    C     C_R   0.132024 0.512834 0.228417 -0.282239
C7    C     C_R   0.913455 0.638360 0.894796 -0.277888
C8    C     C_R   0.072767 0.529361 0.088502 -0.297565
C9    C     C_R   0.967159 0.578228 0.812283 0.450739
C10   C     C_R   0.027521 0.506613 0.181124 0.436877
C11   C     C_R   0.717334 0.525263 0.817556 0.463004
C12   C     C_R   0.281310 0.537289 0.181407 0.435732
C13   C     C_R   0.663524 0.588163 0.900368 -0.022953
C14   C     C_R   0.322187 0.574713 0.090329 -0.019883
C15   C     C_R   0.763967 0.638431 0.940803 -0.058270
C16   C     C_R   0.217279 0.563668 0.043838 -0.063757
C17   C     C_R   0.512478 0.596855 0.946707 -0.106192
C18   C     C_R   0.467627 0.611180 0.041071 -0.089588
C19   C     C_R   0.567556 0.669022 0.079725 0.549168
C20   C     C_R   0.404351 0.600010 0.902327 0.559652
C21   C     C_R   0.713936 0.685442 0.028005 -0.308791
C22   C     C_R   0.258733 0.583834 0.951769 -0.297509
H1    H     H_    0.789851 0.729271 0.057939 0.153915
H2    H     H_    0.178822 0.583189 0.917226 0.195575
H3    H     H_    0.987794 0.684733 0.924169 0.156594
H4    H     H_    0.995916 0.517197 0.050560 0.158911
C23   C     C_R   0.928242 0.064179 0.446387 0.332134
C24   C     C_R   0.073972 0.935310 0.551564 0.330718
C25   C     C_R   0.936529 0.935058 0.442462 0.335871
C26   C     C_R   0.065610 0.064295 0.555593 0.340820
C27   C     C_R   0.003357 0.871274 0.498134 -0.367193
C28   C     C_R   0.998008 0.128360 0.500421 -0.366463
C29   C     C_R   0.547705 0.419071 0.552887 0.005887
C30   C     C_R   0.452264 0.581059 0.447207 -0.019835
H5    H     H_    0.581927 0.354155 0.595442 0.126311
H6    H     H_    0.418100 0.645874 0.404559 0.148224
C31   C     C_R   0.399381 0.418839 0.552632 -0.003093
C32   C     C_R   0.600617 0.581301 0.447470 -0.023178
H7    H     H_    0.322836 0.353205 0.594545 0.141284
H8    H     H_    0.677446 0.646548 0.405219 0.160227
N1    N     N_R   0.352080 0.500030 0.499980 -0.158509
N2    N     N_R   0.647920 0.499970 0.500020 -0.159314
O9    O     O_3   0.387945 0.512848 0.222329 -0.525740
C33   C     C_3   0.431688 0.388340 0.205404 -0.304716
H9    H     H_    0.491150 0.374434 0.133089 0.145174
H10   H     H_    0.336884 0.323099 0.227710 0.150914
H11   H     H_    0.507704 0.364928 0.244246 0.185300
O10   O     O_3   0.625621 0.452173 0.785027 -0.517107
C34   C     C_3   0.613329 0.334369 0.826043 -0.365677
H12   H     H_    0.556587 0.339850 0.899389 0.161442
H13   H     H_    0.722407 0.290058 0.813687 0.132078
H14   H     H_    0.546242 0.273995 0.796389 0.179533
O11   O     O_3   0.887388 0.461872 0.224686 -0.557779
C35   C     C_3   0.778993 0.535296 0.205494 -0.230154
H15   H     H_    0.806844 0.635900 0.200680 0.146477
H16   H     H_    0.675597 0.524123 0.260990 0.208406
H17   H     H_    0.757812 0.501917 0.143540 0.166753
O12   O     O_3   0.117225 0.568943 0.773717 -0.527871
C36   C     C_3   0.159384 0.445628 0.784837 -0.278026
H18   H     H_    0.280719 0.441665 0.765721 0.227041
H19   H     H_    0.123865 0.380439 0.741019 0.157552
H20   H     H_    0.115064 0.412077 0.855425 0.119390
O13   O     O_3   0.523988 0.715679 0.165919 -0.551847
C37   C     C_3   0.455806 0.830976 0.164996 -0.345957
H21   H     H_    0.353413 0.820953 0.145822 0.150523
H22   H     H_    0.531885 0.898229 0.119526 0.155093
H23   H     H_    0.424891 0.869683 0.233754 0.182762
O14   O     O_3   0.437867 0.624658 0.811442 -0.521712
C38   C     C_3   0.449606 0.753964 0.798174 -0.264955
H24   H     H_    0.539234 0.793717 0.821490 0.133504
H25   H     H_    0.343746 0.800354 0.832030 0.154396
H26   H     H_    0.477025 0.773492 0.725237 0.184999
O15   O     O_3   0.864740 0.128581 0.390968 -0.540726
C39   C     C_3   0.710652 0.121513 0.427463 -0.191985
H27   H     H_    0.661130 0.188152 0.390916 0.175400
H28   H     H_    0.672851 0.147394 0.499708 0.121216
H29   H     H_    0.669087 0.027711 0.418573 0.173539
O16   O     O_3   0.137416 0.870859 0.607021 -0.538794
C40   C     C_3   0.291499 0.877983 0.570632 -0.190380
H30   H     H_    0.329443 0.853520 0.498112 0.124633
H31   H     H_    0.340827 0.810256 0.606481 0.181904
H32   H     H_    0.333029 0.971383 0.580574 0.166806
O17   O     O_3   0.877372 0.871323 0.384823 -0.561235
C41   C     C_3   0.988457 0.854521 0.302689 -0.285521
H33   H     H_    0.941301 0.803496 0.256399 0.172270
H34   H     H_    0.080270 0.798071 0.311540 0.126593
H35   H     H_    0.030600 0.944949 0.270416 0.178063
O18   O     O_3   0.123212 0.127331 0.614206 -0.564342
C42   C     C_3   0.013750 0.134815 0.697939 -0.316238
H36   H     H_    0.927095 0.201087 0.694270 0.131329
H37   H     H_    0.064487 0.169349 0.748334 0.163508
H38   H     H_    0.964189 0.042775 0.722472 0.184500

loop_
_geom_bond_atom_site_label_1
_geom_bond_atom_site_label_2
_geom_bond_distance
_ccdc_geom_bond_type
C15   C21   1.399889 A    
C20   C22   1.383631 A    
C1    C28   1.447099 S    
C16   C22   1.388503 A    
O17   C41   1.410827 S    
O13   C37   1.409909 S    
C8    C16   1.394849 A    
C39   H29   1.110841 S    
C31   H7    1.081043 S    
O9    C33   1.411869 S    
C5    C9    1.413119 A    
C37   H22   1.113530 S    
O1    C1    1.295148 A    
C18   C19   1.419964 A    
C14   C16   1.410806 A    
C36   H18   1.108807 S    
C26   O18   1.383522 S    
C29   N2    1.368170 A    
C19   O13   1.382835 S    
O4    Cu1   1.959120 S    
C23   C28   1.407551 A    
C36   H19   1.105919 S    
C25   O17   1.384284 S    
Cu1   N1    2.022482 S    
C3    C5    1.481208 S    
Cu2   N2    2.022483 S    
C42   H36   1.111803 S    
O12   C36   1.417840 S    
C37   H23   1.109433 S    
C6    C12   1.417739 A    
C21   H1    1.083838 S    
C13   C17   1.410991 A    
C40   H31   1.109311 S    
C6    C10   1.413254 A    
C32   H8    1.081804 S    
C34   H12   1.112591 S    
Cu1   Cu2   2.691285 S    
C17   C20   1.409408 A    
O2    C2    1.295015 A    
C30   H6    1.081864 S    
C12   O9    1.383812 S    
C33   H10   1.114025 S    
C34   H13   1.112941 S    
C37   H21   1.112611 S    
C35   H17   1.109199 S    
C4    C6    1.481690 S    
C39   H27   1.109655 S    
C24   C27   1.405080 A    
O4    C2    1.290593 A    
C38   H25   1.113427 S    
O14   C38   1.409298 S    
C31   N1    1.368451 A    
C41   H35   1.113130 S    
O10   C34   1.409941 S    
C2    C27   1.444667 S    
C38   H24   1.113227 S    
C24   O16   1.385809 S    
C22   H2    1.060961 S    
C36   H20   1.113996 S    
O5    C3    1.300120 A    
O7    Cu2   1.947300 S    
O7    C3    1.304410 A    
O15   C39   1.412323 S    
C32   N2    1.368309 A    
O6    C4    1.301404 A    
C9    O12   1.383247 S    
C40   H32   1.110799 S    
C41   H34   1.113340 S    
C29   H5    1.081814 S    
O3    Cu2   1.959120 S    
O8    C4    1.303329 A    
C30   N1    1.368329 A    
C42   H37   1.107969 S    
C11   C13   1.418082 A    
C12   C14   1.414371 A    
O1    Cu1   1.957430 S    
C33   H9    1.112676 S    
C34   H14   1.109274 S    
O6    Cu2   1.945301 S    
C14   C18   1.424308 A    
C39   H28   1.114281 S    
O3    C1    1.291829 A    
O8    Cu1   1.947302 S    
C38   H26   1.109089 S    
C7    C15   1.393170 A    
C35   H15   1.113887 S    
C10   O11   1.390561 S    
C11   O10   1.384992 S    
C23   C25   1.397150 A    
C24   C26   1.395765 A    
C5    C11   1.406946 A    
C8    H4    1.083090 S    
C26   C28   1.405784 A    
C7    C9    1.399949 A    
C8    C10   1.400534 A    
C13   C15   1.408212 A    
C41   H33   1.108823 S    
O2    Cu2   1.957430 S    
O11   C35   1.409582 S    
C20   O14   1.383126 S    
O5    Cu1   1.945301 S    
C42   H38   1.114239 S    
O16   C40   1.412156 S    
C25   C27   1.405402 A    
C19   C21   1.399424 A    
O18   C42   1.410728 S    
C17   C18   1.415891 A    
C23   O15   1.385456 S    
C7    H3    1.078693 S    
C40   H30   1.114422 S    
C29   C31   1.420155 A    
C30   C32   1.420470 A    
C35   H16   1.106822 S    
C33   H11   1.108420 S    
