data_mof_unit_18864.cif
_audit_creation_date              2013-03-05T16:00:37-0500
_audit_creation_method            fapswitch 2.2
_symmetry_space_group_name_H-M    P1
_symmetry_Int_Tables_number       1
_space_group_crystal_system       triclinic
_cell_length_a                    8.419598
_cell_length_b                    13.592185
_cell_length_c                    19.029167
_cell_angle_alpha                 102.639888
_cell_angle_beta                  92.978118
_cell_angle_gamma                 98.260218
_cell_volume                      2095.03334808

loop_
_atom_site_label
_atom_site_type_symbol
_atom_site_description
_atom_site_fract_x
_atom_site_fract_y
_atom_site_fract_z
_atom_type_partial_charge
P1    P     P_3+3 0.042930 0.392230 0.337410 0.559364
O1    O     O_2   0.875110 0.423180 0.326290 -0.157250
O2    O     O_3   0.123410 0.433040 0.414950 -0.394778
O3    O     O_3   0.661010 0.625070 0.369680 -0.328428
O4    O     O_2   0.680752 0.517907 0.236767 -0.254523
O5    O     O_3   0.938725 0.269595 0.304532 -0.594058
O6    O     O_3   0.682177 0.706702 0.243819 -0.495655
H1    H     H_    0.684146 0.818975 0.336898 0.142357
C1    C     C_3   0.682273 0.876587 0.240327 -0.698046
H2    H     H_    0.814689 0.887252 0.241224 0.314369
H3    H     H_    0.627581 0.853828 0.183676 0.265287
P2    P     P_3+3 0.672230 0.754900 0.555730 0.449514
P3    P     P_3+3 0.116474 0.803848 0.398432 0.612050
O7    O     O_2   0.847800 0.768730 0.534310 -0.375948
O8    O     O_3   0.082250 0.684470 0.405440 -0.372914
O9    O     O_2   0.984752 0.849355 0.442954 -0.304311
O10   O     O_3   0.704795 0.793541 0.650117 -0.567071
O11   O     O_3   0.056988 0.806656 0.306655 -0.416376
C2    C     C_3   0.119360 0.732005 0.255708 0.318680
H4    H     H_    0.229190 0.713319 0.280652 -0.099121
C3    C     C_3   0.171500 0.763752 0.184870 0.170162
H5    H     H_    0.197375 0.695614 0.146959 -0.017179
C4    C     C_3   0.234863 0.776581 0.622867 0.446615
H6    H     H_    0.350591 0.751670 0.607735 0.079213
H7    H     H_    0.141916 0.748384 0.576422 0.121624
C5    C     C_3   0.257234 0.892819 0.641620 -0.992370
H8    H     H_    0.352797 0.923904 0.686669 0.255789
H9    H     H_    0.292304 0.923297 0.594267 0.226358
H10   H     H_    0.142610 0.918751 0.658061 0.259457
Ba1   Ba    Ba6+2 0.853180 0.547790 0.465300 1.675594
C6    C     C_3   0.003549 0.192458 0.322920 0.993213
H11   H     H_    0.129676 0.212609 0.329637 -0.049285
C7    C     C_3   0.951213 0.099668 0.261347 -0.961169
H12   H     H_    0.818550 0.084311 0.250830 0.223833
H13   H     H_    0.994754 0.032636 0.274279 0.324276
H14   H     H_    0.999645 0.114186 0.210813 0.236946
C8    C     C_3   0.738360 0.710719 0.678034 0.397313
H15   H     H_    0.838891 0.677493 0.651571 0.087289
H16   H     H_    0.629603 0.651364 0.670323 0.138794
C9    C     C_3   0.786940 0.747738 0.758672 -0.903108
H17   H     H_    0.900393 0.803431 0.767909 0.288310
H18   H     H_    0.806058 0.682265 0.782406 0.211598
H19   H     H_    0.690457 0.784884 0.786091 0.268868
P4    P     P_3+3 0.146790 0.607860 0.662600 0.455634
O12   O     O_2   0.314600 0.576860 0.673750 -0.356257
O13   O     O_3   0.066300 0.567050 0.585060 -0.424576
O14   O     O_3   0.528700 0.375020 0.630330 -0.386615
O15   O     O_3   0.186993 0.741612 0.683741 -0.558161
P5    P     P_3+3 0.045086 0.188996 0.607599 0.535231
O16   O     O_3   0.611760 0.365720 0.463870 -0.317606
O17   O     O_3   0.107460 0.315620 0.594570 -0.301588
O18   O     O_2   0.173697 0.127130 0.572800 -0.358832
O19   O     O_3   0.090571 0.195724 0.699633 -0.517275
Ba2   Ba    Ba6+2 0.336650 0.452300 0.534710 1.690818
P6    P     P_3+3 0.597624 0.604893 0.277754 0.557347
C10   C     C_3   0.628611 0.794942 0.280201 0.337940
H20   H     H_    0.495395 0.784460 0.279561 -0.000077
H21   H     H_    0.646975 0.949139 0.266198 0.175009
O20   O     O_3   0.577950 0.634370 0.536140 -0.425043
C11   C     C_3   0.437587 0.228276 0.299364 0.856543
H22   H     H_    0.355492 0.271234 0.331246 -0.015773
C12   C     C_3   0.348235 0.146354 0.231791 -0.773120
H23   H     H_    0.257952 0.089191 0.245532 0.284639
H24   H     H_    0.275421 0.184574 0.198898 0.175776
P7    P     P_3+3 0.522975 0.231445 0.443476 0.596781
O21   O     O_2   0.341900 0.231310 0.465740 -0.308003
O22   O     O_3   0.535458 0.187854 0.346393 -0.596186
H25   H     H_    0.287438 0.815817 0.193441 0.158041
C13   C     C_3   0.957314 0.146848 0.727152 0.177110
H26   H     H_    0.854913 0.189043 0.724503 0.066049
H27   H     H_    0.920481 0.066602 0.696198 0.068764
C14   C     C_3   0.000033 0.146542 0.806192 -0.617527
H28   H     H_    0.072800 0.220947 0.834400 0.207418
H29   H     H_    0.887581 0.136331 0.833679 0.193668
P8    P     P_3+3 0.584874 0.408525 0.721985 0.432230
C15   C     C_3   0.498842 0.222926 0.733988 0.481228
H30   H     H_    0.602074 0.217708 0.699919 -0.009626
O23   O     O_2   0.528692 0.512644 0.749242 -0.410738
O24   O     O_3   0.475181 0.323318 0.765128 -0.501228
H31   H     H_    0.389423 0.182314 0.698953 0.150734
H32   H     H_    0.529676 0.085889 0.770338 0.237858
C16   C     C_3   0.525308 0.167640 0.793936 -1.067619
H33   H     H_    0.426639 0.173844 0.830304 0.279701
H34   H     H_    0.640389 0.202512 0.826584 0.255431
C17   C     C_R   0.083244 0.552809 0.798016 -0.277846
H35   H     H_    0.176630 0.614960 0.824464 0.148705
C18   C     C_R   0.030658 0.546544 0.724856 0.301590
C19   C     C_R   0.886042 0.403966 0.794053 -0.279673
H36   H     H_    0.833281 0.339804 0.814323 0.133799
C20   C     C_R   0.804133 0.425979 0.735210 0.195382
C21   C     C_R   0.322445 0.553154 0.181910 -0.381446
H37   H     H_    0.385448 0.606485 0.154735 0.147428
C22   C     C_R   0.383029 0.562522 0.252715 0.245261
C23   C     C_R   0.119649 0.415501 0.193893 -0.188050
H38   H     H_    0.041229 0.343852 0.173062 0.131833
C24   C     C_R   0.156337 0.446243 0.270395 0.236498
C25   C     C_R   0.014140 0.477106 0.834438 0.112328
C26   C     C_R   0.885097 0.487582 0.696092 -0.372832
H39   H     H_    0.829265 0.494399 0.645179 0.137897
C27   C     C_R   0.193544 0.475316 0.147055 0.109727
C28   C     C_R   0.292101 0.517459 0.298494 -0.277882
H40   H     H_    0.334892 0.531551 0.354990 0.130409
C29   C     C_R   0.778624 0.428723 0.934907 -0.231598
C30   C     C_R   0.666480 0.367051 0.962620 -0.103068
C31   C     C_R   0.703114 0.346980 0.029016 -0.032983
C32   C     C_R   0.853176 0.390918 0.066770 -0.250865
C33   C     C_R   0.982806 0.432645 0.031458 0.092391
C34   C     C_R   0.942889 0.445448 0.959649 0.112099
C35   C     C_R   0.146051 0.461524 0.064294 -0.040367
C36   C     C_R   0.265889 0.489102 0.017222 0.114730
C37   C     C_R   0.224320 0.497109 0.944434 0.068624
C38   C     C_R   0.061953 0.475306 0.914061 -0.060498
C39   C     C_R   0.432171 0.507330 0.040108 -0.134588
C40   C     C_R   0.542828 0.562593 0.006041 -0.141427
C41   C     C_R   0.502509 0.570856 0.936525 -0.098382
C42   C     C_R   0.350763 0.526494 0.903486 -0.114072
H41   H     H_    0.733847 0.460324 0.892223 0.160449
H42   H     H_    0.546395 0.343356 0.935313 0.189292
H43   H     H_    0.860191 0.392279 0.122909 0.164993
H44   H     H_    0.479328 0.481544 0.085508 0.181219
H45   H     H_    0.665892 0.586432 0.029432 0.177559
H46   H     H_    0.593411 0.602527 0.905895 0.145608
H47   H     H_    0.336582 0.515136 0.845929 0.182322
C43   C     C_R   0.730067 0.178256 0.543005 -0.309343
C44   C     C_R   0.420569 0.811249 0.474382 -0.588504
C45   C     C_R   0.378790 0.972193 0.443984 0.327289
C46   C     C_R   0.323706 0.868680 0.443062 0.125620
C47   C     C_R   0.571116 0.852485 0.512401 0.253188
C48   C     C_R   0.627800 0.962804 0.518939 -0.011219
C49   C     C_R   0.531365 0.025063 0.484249 -0.215546
C50   C     C_R   0.593927 0.135464 0.494424 0.314521
C51   C     C_R   0.833930 0.119530 0.567267 0.213016
C52   C     C_R   0.781035 0.012138 0.556242 -0.171128
H48   H     H_    0.860532 0.967066 0.576563 0.153376
H49   H     H_    0.768217 0.260123 0.555033 0.142949
H50   H     H_    0.374964 0.731446 0.470298 0.171617
S1    S     S_3+6 0.926865 0.175116 0.403521 0.016187
O25   O     O_2   0.058768 0.169407 0.455704 -0.187655
O26   O     O_2   0.857767 0.268527 0.435081 -0.313612
O27   O     O_3   0.796106 0.066020 0.390821 -0.561997
H51   H     H_    0.706193 0.074067 0.358858 0.335796
S2    S     S_3+6 0.543007 0.325996 0.266910 -0.041223
O28   O     O_2   0.435833 0.352802 0.210995 -0.388387
O29   O     O_2   0.580874 0.413784 0.331446 -0.237213
O30   O     O_3   0.706753 0.294747 0.227122 -0.518190
H52   H     H_    0.705092 0.222006 0.226389 0.314160
C53   C     C_2   0.451475 0.087273 0.181758 0.722355
H53   H     H_    0.525161 0.123368 0.147177 0.004534
O31   O     O_2   0.441668 0.995170 0.174105 -0.581423
C54   C     C_2   0.093021 0.061800 0.811502 0.668008
H54   H     H_    0.198949 0.053248 0.782162 0.031683
O32   O     O_2   0.048848 0.001057 0.847941 -0.551028
C55   C     C_2   0.998649 0.637709 0.235582 0.565111
H55   H     H_    0.945002 0.607065 0.180641 0.047593
O33   O     O_2   0.960622 0.592748 0.281904 -0.499183
C56   C     C_2   0.582600 0.283604 0.060230 0.587709
H56   H     H_    0.620372 0.253533 0.104557 0.067126
O34   O     O_2   0.441968 0.262029 0.035418 -0.582612
S3    S     S_3+6 0.257362 0.007537 0.376602 -0.018776
O35   O     O_2   0.081761 0.990175 0.386387 -0.161983
O36   O     O_2   0.274909 0.107102 0.363815 -0.344028
O37   O     O_3   0.296697 0.936576 0.299157 -0.561209
H57   H     H_    0.412216 0.959092 0.297254 0.338567
S4    S     S_3+6 0.031061 0.808731 0.130794 0.002297
O38   O     O_2   0.031398 0.920361 0.159688 -0.260216
O39   O     O_2   0.085403 0.793732 0.055696 -0.254275
O40   O     O_3   0.844741 0.743114 0.126063 -0.558821
H58   H     H_    0.782315 0.765439 0.088498 0.366921

loop_
_geom_bond_atom_site_label_1
_geom_bond_atom_site_label_2
_geom_bond_distance
_ccdc_geom_bond_type
C45   C46   1.412724 A    
C42   H47   1.069952 S    
C32   H43   1.062790 S    
O2    Ba1   3.019853 S    
C37   C38   1.420309 A    
C15   O24   1.410423 S    
O6    P6    1.730465 S    
P6    C22   1.820635 S    
O19   C13   1.404812 S    
C47   C48   1.482645 A    
H1    C10   1.113028 S    
H32   C16   1.110299 S    
C45   S3    1.787358 S    
Ba1   Ba2   4.659272 S    
C5    H8    1.110361 S    
O16   Ba2   2.996801 S    
P3    O11   1.801694 S    
C3    H5    1.098882 S    
C56   H56   1.067725 S    
C2    C3    1.567680 S    
C1    H21   1.090923 S    
C8    C9    1.520806 S    
C13   H26   1.106802 S    
O2    Ba2   2.768431 S    
C32   C33   1.424627 A    
C45   C49   1.464669 A    
C41   C42   1.385817 A    
C26   H39   1.082909 S    
C7    H14   1.109338 S    
C10   H20   1.109229 S    
C43   C51   1.391011 A    
C11   C12   1.578430 S    
P1    O1    1.548204 D    
C4    C5    1.523072 S    
C13   H27   1.111512 S    
C36   C37   1.442001 A    
C16   H34   1.107297 S    
C12   H24   1.109708 S    
P8    C20   1.824096 S    
C11   S2    1.735117 S    
C40   H45   1.081303 S    
C9    H19   1.110704 S    
C53   H53   1.074644 S    
C11   O22   1.431930 S    
C51   C52   1.429179 A    
P7    O22   1.825935 S    
P2    O10   1.752598 S    
C44   C47   1.402617 A    
C4    H6    1.108263 S    
S3    O36   1.415233 D    
C37   C42   1.414316 A    
C21   C27   1.423131 A    
C6    S1    1.744217 S    
P4    C18   1.836416 S    
C1    H2    1.102175 S    
C19   C25   1.418997 A    
C18   C26   1.378396 A    
C9    H18   1.109644 S    
O5    C6    1.350825 S    
Ba1   O16   2.962451 S    
C27   C35   1.568136 S    
C41   H46   1.082731 S    
C24   C28   1.386203 A    
P2    O20   1.667726 S    
C33   C35   1.442923 A    
S2    O30   1.670438 S    
C29   H41   1.074138 S    
O6    C10   1.394878 S    
O7    Ba1   3.010690 S    
S4    O40   1.677103 S    
C30   C31   1.378568 A    
P7    C50   1.927703 S    
P4    O13   1.540779 S    
O30   H52   0.983822 S    
C30   H42   1.083789 S    
Ba2   O20   2.961879 S    
C17   C18   1.419390 A    
P5    C51   1.923541 S    
C53   O31   1.218404 D    
P1    O5    1.733778 S    
C28   H40   1.082608 S    
C15   H30   1.112167 S    
C14   H29   1.111194 S    
C15   C16   1.520710 S    
O40   H58   0.990470 S    
C25   C38   1.553716 S    
O11   C2    1.421527 S    
P5    O17   1.799996 S    
P8    O23   1.546670 D    
C17   H35   1.080333 S    
C34   C38   1.431691 A    
C43   C50   1.403502 A    
C11   H22   1.091458 S    
P1    O2    1.540753 S    
C13   C14   1.529238 S    
C8    H15   1.108413 S    
C21   C22   1.388044 A    
C39   H44   1.078741 S    
S1    O26   1.491989 D    
S3    O35   1.491263 D    
C23   C27   1.439407 A    
C33   C34   1.443478 A    
P5    O18   1.552623 D    
Ba1   O20   2.997660 S    
O13   Ba2   3.020704 S    
C12   H23   1.090752 S    
C6    C7    1.515782 S    
C7    H12   1.105777 S    
S3    O37   1.652947 S    
C1    C10   1.507129 S    
O10   C8    1.402470 S    
O27   H51   0.979818 S    
C23   C24   1.428022 A    
C1    H3    1.109693 S    
C36   C39   1.414526 A    
C29   C34   1.407593 A    
O14   Ba2   2.836828 S    
C48   C52   1.437370 A    
C44   H50   1.081838 S    
C9    H17   1.110386 S    
C19   C20   1.394500 A    
O12   Ba2   2.842909 S    
P7    O21   1.603275 D    
C14   C54   1.500572 S    
C12   C53   1.502949 S    
P3    O8    1.642570 S    
C3    H25   1.102144 S    
C52   H48   1.080487 S    
C2    C55   1.480805 S    
C54   O32   1.220628 D    
C55   O33   1.209050 D    
C22   C28   1.374127 A    
C21   H37   1.075321 S    
P4    O12   1.548504 D    
O8    Ba1   2.931470 S    
C39   C40   1.388259 A    
C31   C32   1.403647 A    
S4    O38   1.496003 D    
C4    O15   1.401660 S    
C43   H49   1.082581 S    
P2    Ba1   3.548477 S    
S2    O28   1.497837 D    
O4    P6    1.544995 D    
C6    H11   1.051695 S    
C15   H31   1.107661 S    
P2    O7    1.550141 D    
C14   H28   1.111973 S    
C40   C41   1.380963 A    
P2    C47   1.973333 S    
O37   H57   0.981813 S    
S1    O25   1.472867 D    
C5    H9    1.107545 S    
Ba1   O13   2.767834 S    
O1    Ba1   2.842524 S    
O17   Ba2   2.932066 S    
C2    H4    1.104338 S    
S4    O39   1.503431 D    
C49   C50   1.483858 A    
C48   C49   1.482344 A    
O14   P8    1.725631 S    
O3    P6    1.752412 S    
C35   C36   1.446761 A    
P1    C24   1.847099 S    
P5    O19   1.752812 S    
S1    O27   1.678016 S    
C56   O34   1.221669 D    
P1    Ba1   3.473950 S    
C7    H13   1.099908 S    
S2    O29   1.497434 D    
C4    H7    1.110910 S    
C23   H38   1.077315 S    
O16   P7    1.818857 S    
C17   C25   1.435147 A    
P3    C46   1.902329 S    
P4    Ba2   3.474489 S    
C31   C56   1.469640 S    
C19   H36   1.077212 S    
C5    H10   1.111019 S    
C8    H16   1.110331 S    
C16   H33   1.109295 S    
P3    O9    1.547824 D    
C29   C30   1.374791 A    
C44   C46   1.402038 A    
C54   H54   1.083412 S    
C55   H55   1.084823 S    
Ba2   O21   3.010942 S    
P8    O24   1.748102 S    
C20   C26   1.371642 A    
O3    Ba1   2.837426 S    
P4    O15   1.752260 S    
C3    S4    1.785342 S    
