data_mof_unit_22894.cif
_audit_creation_date              2013-03-05T15:45:20-0500
_audit_creation_method            fapswitch 2.2
_symmetry_space_group_name_H-M    P1
_symmetry_Int_Tables_number       1
_space_group_crystal_system       triclinic
_cell_length_a                    10.856009
_cell_length_b                    11.098057
_cell_length_c                    9.833828
_cell_angle_alpha                 113.207267
_cell_angle_beta                  94.449597
_cell_angle_gamma                 92.75803
_cell_volume                      1081.62646125

loop_
_atom_site_label
_atom_site_type_symbol
_atom_site_description
_atom_site_fract_x
_atom_site_fract_y
_atom_site_fract_z
_atom_type_partial_charge
O1    O     O_R   0.511700 0.332340 0.577400 -0.615605
O2    O     O_R   0.488300 0.667660 0.422600 -0.612564
O3    O     O_R   0.474680 0.295500 0.332650 -0.570817
O4    O     O_R   0.525320 0.704500 0.667350 -0.540776
C1    C     C_R   0.488560 0.252898 0.438253 0.782982
C2    C     C_R   0.511916 0.747882 0.562093 0.813750
O5    O     O_R   0.338170 0.518410 0.622370 -0.505868
O6    O     O_R   0.661830 0.481590 0.377630 -0.519052
O7    O     O_R   0.301150 0.481570 0.377630 -0.585012
O8    O     O_R   0.698850 0.518430 0.622370 -0.586527
C3    C     C_R   0.261585 0.483243 0.502018 0.801803
C4    C     C_R   0.735623 0.479587 0.488808 0.803115
Cu1   Cu    Cu3+1 0.521920 0.521810 0.644910 1.017985
Cu2   Cu    Cu3+1 0.478080 0.478190 0.355090 0.996108
H1    H     H_    0.092171 0.135257 0.018761 0.161996
H2    H     H_    0.860097 0.385896 0.910085 0.223224
C5    C     C_R   0.112055 0.466595 0.772369 0.388517
C6    C     C_R   0.871501 0.330813 0.192271 0.375969
C7    C     C_R   0.037072 0.455457 0.877224 -0.179120
C8    C     C_R   0.928900 0.236200 0.079561 -0.224634
C9    C     C_R   0.914478 0.409056 0.835684 -0.210914
C10   C     C_R   0.048643 0.207835 0.106697 -0.235986
C11   C     C_R   0.862675 0.387666 0.695366 -0.129993
C12   C     C_R   0.114876 0.278615 0.244120 -0.161681
C13   C     C_R   0.928866 0.427942 0.600018 0.039499
C14   C     C_R   0.058621 0.371659 0.360709 0.067771
C15   C     C_R   0.060230 0.449990 0.627014 -0.046948
C16   C     C_R   0.929658 0.386277 0.340915 -0.008991
C17   C     C_R   0.866073 0.436196 0.472439 -0.198127
C18   C     C_R   0.126711 0.440166 0.501741 -0.179846
H3    H     H_    0.077840 0.466649 0.986167 0.178728
H4    H     H_    0.883258 0.189682 0.967251 0.168847
H5    H     H_    0.769014 0.341010 0.662473 0.160434
H6    H     H_    0.208729 0.255260 0.261503 0.151272
H7    H     H_    0.449271 0.856860 0.378918 0.176295
H8    H     H_    0.485527 0.140039 0.625318 0.180421
C19   C     C_2   0.481491 0.110600 0.400094 0.102902
C20   C     C_2   0.522144 0.891734 0.598301 0.091827
C21   C     C_2   0.484187 0.068667 0.511531 -0.208144
C22   C     C_2   0.484005 0.929699 0.488319 -0.230081
H9    H     H_    0.500552 0.369315 0.845278 0.157017
H10   H     H_    0.579394 0.588503 0.160932 0.129037
N1    N     N_2   0.445130 0.445420 0.137360 -0.098260
N2    N     N_2   0.554870 0.554580 0.862640 -0.077772
C23   C     C_2   0.516939 0.507865 0.082790 0.200550
C24   C     C_2   0.523934 0.470987 0.919486 0.215473
N3    N     N_R   0.239209 0.466888 0.809840 0.116761
O9    O     O_R   0.288272 0.355242 0.755540 -0.414994
O10   O     O_R   0.292032 0.562728 0.929165 -0.429501
N4    N     N_R   0.771240 0.387451 0.145776 0.098585
O11   O     O_R   0.689536 0.311932 0.038391 -0.482527
O12   O     O_R   0.786438 0.512020 0.172810 -0.440229
N5    N     N_2   0.576114 0.989450 0.739797 -0.448678
H11   H     H_    0.635595 0.061804 0.733058 0.267687
C25   C     C_3   0.615337 0.953860 0.861599 -0.623929
H12   H     H_    0.651321 0.043710 0.960533 0.236158
H13   H     H_    0.691314 0.887849 0.830976 0.231950
H14   H     H_    0.535430 0.908135 0.893108 0.266154
N6    N     N_2   0.479759 0.022184 0.248099 -0.436074
H15   H     H_    0.539959 0.949656 0.230013 0.251814
C26   C     C_3   0.357042 0.972221 0.171671 -0.666305
H16   H     H_    0.311993 0.905372 0.215975 0.235551
H17   H     H_    0.363788 0.916618 0.051182 0.232897
H18   H     H_    0.298245 0.054223 0.185283 0.222132
N7    N     N_2   0.576545 0.686119 0.956749 -0.317858
H19   H     H_    0.520321 0.720874 0.041513 0.235064
C27   C     C_3   0.706571 0.730014 0.999220 -0.639568
H20   H     H_    0.717366 0.837896 0.065564 0.194640
H21   H     H_    0.756406 0.707451 0.898778 0.254866
H22   H     H_    0.748584 0.680944 0.067698 0.252677
N8    N     N_2   0.356961 0.350530 0.040931 -0.302699
H23   H     H_    0.270552 0.361618 0.078359 0.277456
C28   C     C_3   0.391730 0.216813 0.993475 -0.503399
H24   H     H_    0.319963 0.154297 0.015513 0.168304
H25   H     H_    0.481698 0.211379 0.051295 0.276240
H26   H     H_    0.398545 0.175866 0.871956 0.228019

loop_
_geom_bond_atom_site_label_1
_geom_bond_atom_site_label_2
_geom_bond_distance
_ccdc_geom_bond_type
C26   H18   1.107572 S    
O5    C3    1.302434 A    
H9    C24   1.079307 S    
C2    C20   1.488840 S    
H2    C9    1.072620 S    
O3    Cu2   1.949295 S    
C4    C17   1.517647 S    
C13   C15   1.421464 A    
O7    C3    1.321159 A    
C28   H24   1.108164 S    
C14   C16   1.424334 A    
N3    O9    1.300100 A    
N7    C27   1.444397 S    
O6    C4    1.312456 A    
O7    Cu2   1.950968 S    
C27   H22   1.106037 S    
C7    H3    1.084119 S    
N8    H23   1.029346 S    
C25   H12   1.110143 S    
C25   H13   1.109278 S    
N4    O11   1.299966 A    
N1    N8    1.378228 S    
C23   C24   1.502040 S    
N6    H15   1.030758 S    
N3    O10   1.300129 A    
O2    C2    1.304235 A    
Cu1   Cu2   2.695104 S    
N4    O12   1.300279 A    
C15   C18   1.445710 A    
C20   C22   1.350977 D    
N1    C23   1.296910 D    
C12   C14   1.410679 A    
N2    N7    1.382508 S    
C19   N6    1.426627 S    
C20   N5    1.441716 S    
O8    C4    1.312239 A    
C26   H17   1.109793 S    
O1    C1    1.298979 A    
O4    C2    1.304032 A    
C16   C17   1.437658 A    
C7    C9    1.373755 A    
C8    C10   1.382707 A    
C14   C18   1.415525 A    
C6    C8    1.404359 A    
N5    C25   1.442877 S    
C9    C11   1.373031 A    
C13   C17   1.418079 A    
C26   H16   1.110080 S    
O2    Cu2   1.934044 S    
C28   H26   1.108592 S    
C10   C12   1.385118 A    
N6    C26   1.446456 S    
O1    Cu1   1.934044 S    
C1    C19   1.468844 S    
C28   H25   1.107879 S    
C21   C22   1.467276 S    
H7    C22   1.084149 S    
C27   H20   1.109891 S    
C5    C15   1.432237 A    
O3    C1    1.301628 A    
O5    Cu1   1.986782 S    
C11   C13   1.413945 A    
C6    C16   1.422846 A    
C6    N4    1.415608 S    
C19   C21   1.347802 D    
N7    H19   1.031669 S    
C8    H4    1.083022 S    
C25   H14   1.108740 S    
O4    Cu1   1.949295 S    
N8    C28   1.448426 S    
H8    C21   1.085144 S    
C5    C7    1.400766 A    
O6    Cu2   1.986782 S    
C11   H5    1.082998 S    
Cu1   N2    2.024736 S    
N5    H11   1.031902 S    
O8    Cu1   1.950967 S    
H1    C10   1.082115 S    
C12   H6    1.080649 S    
C5    N3    1.400337 S    
C3    C18   1.517696 S    
N2    C24   1.301468 D    
Cu2   N1    2.024736 S    
C27   H21   1.109966 S    
H10   C23   1.081601 S    
