data_mof_unit_35838.cif
_audit_creation_date              2012-12-10T21:29:45-0500
_audit_creation_method            fapswitch 2.2
_symmetry_space_group_name_H-M    P1
_symmetry_Int_Tables_number       1
_space_group_crystal_system       triclinic
_cell_length_a                    10.697545
_cell_length_b                    16.149693
_cell_length_c                    16.790883
_cell_angle_alpha                 87.185755
_cell_angle_beta                  91.845108
_cell_angle_gamma                 91.051602
_cell_volume                      2895.41821371

loop_
_atom_site_label
_atom_site_type_symbol
_atom_type_description
_atom_site_fract_x
_atom_site_fract_y
_atom_site_fract_z
_atom_type_partial_charge
C1    C     C_R   0.496072 0.489031 0.652590 0.863538
C2    C     C_R   0.445291 0.493722 0.099800 0.214848
C3    C     C_R   0.602720 0.454544 0.863256 -0.035334
C4    C     C_R   0.388384 0.556558 0.139990 -0.078937
C5    C     C_R   0.584521 0.443298 0.782022 -0.152742
C6    C     C_R   0.422383 0.567723 0.219439 -0.119916
C7    C     C_R   0.453366 0.764340 0.451376 0.023348
C8    C     C_R   0.546736 0.236401 0.549360 0.044767
C9    C     C_R   0.464086 0.852049 0.448855 -0.204524
C10   C     C_R   0.539467 0.148421 0.551753 -0.188063
C11   C     C_R   0.537622 0.890979 0.508170 0.146415
C12   C     C_R   0.506697 0.510853 0.347111 1.016266
C13   C     C_R   0.472266 0.108726 0.490149 0.144106
C14   C     C_R   0.602869 0.841289 0.566598 0.477256
C15   C     C_R   0.413603 0.157949 0.428600 0.429540
C16   C     C_R   0.739024 0.499978 0.490280 0.923614
C17   C     C_R   0.258922 0.501739 0.496804 0.894816
C18   C     C_R   0.587931 0.753338 0.566465 -0.123885
C19   C     C_R   0.418575 0.245507 0.431422 -0.151713
C20   C     C_R   0.884738 0.349699 0.439390 -0.150748
C21   C     C_R   0.105809 0.648961 0.532932 -0.217840
C22   C     C_R   0.950401 0.291257 0.398669 -0.058170
C23   C     C_R   0.489841 0.484960 0.738621 -0.144607
C24   C     C_R   0.042431 0.724465 0.526929 -0.068289
C25   C     C_R   0.062814 0.316251 0.362890 0.335401
C26   C     C_R   0.933638 0.730937 0.477671 0.288888
C27   C     C_R   0.120608 0.391781 0.383139 -0.039987
C28   C     C_R   0.880050 0.658867 0.445717 -0.054409
C29   C     C_R   0.063922 0.441627 0.438780 0.026725
C30   C     C_R   0.933947 0.580346 0.466746 0.036211
C31   C     C_R   0.936535 0.430023 0.451078 0.023294
C32   C     C_R   0.057638 0.578754 0.494197 -0.020876
C33   C     C_R   0.125802 0.507031 0.478868 -0.115973
C34   C     C_R   0.506608 0.514747 0.260134 -0.059645
C35   C     C_R   0.869289 0.502228 0.467905 -0.087104
C36   C     C_3   0.926786 0.852000 0.402279 0.066166
C37   C     C_3   0.859458 0.934033 0.390054 -0.729019
C38   C     C_3   0.051025 0.291318 0.230961 0.060615
C39   C     C_3   0.110355 0.246314 0.164744 -0.785181
C40   C     C_2   0.597723 0.098167 0.619303 0.586926
C41   C     C_2   0.404023 0.902884 0.382589 0.584402
C42   C     C_3   0.766447 0.834027 0.663721 0.071547
C43   C     C_3   0.858840 0.890581 0.706471 -0.690181
C44   C     C_3   0.385389 0.148701 0.292716 0.081287
C45   C     C_R   0.409511 0.538918 0.775461 -0.115319
C46   C     C_3   0.340662 0.088917 0.230149 -0.712158
C47   C     C_2   0.896364 0.207263 0.386646 0.402316
C48   C     C_2   0.092659 0.797296 0.568889 0.426824
C49   C     C_2   0.218961 0.427261 0.331360 0.409054
C50   C     C_2   0.779006 0.668105 0.383250 0.499572
C51   C     C_2   0.662721 0.399595 0.261234 0.409738
C52   C     C_2   0.306807 0.579966 0.726895 0.419063
C53   C     C_2   0.579780 0.367136 0.098883 0.366494
C54   C     C_2   0.358746 0.617485 0.895339 0.486368
C55   C     C_2   0.706252 0.411538 0.908381 0.492558
C56   C     C_R   0.565187 0.451696 0.219910 -0.120255
C57   C     C_2   0.289753 0.608542 0.100088 0.550871
C58   C     C_2   0.617459 0.278172 0.613171 0.573164
C59   C     C_2   0.380168 0.723609 0.387916 0.531092
C60   C     C_R   0.430477 0.553577 0.856717 -0.035889
C61   C     C_R   0.529453 0.438362 0.140273 -0.086010
C62   C     C_R   0.523468 0.508038 0.900919 0.193623
H1    H     H_    0.634276 0.713100 0.610927 0.134409
H2    H     H_    0.900741 0.971405 0.339884 0.216659
H3    H     H_    0.758595 0.922555 0.376040 0.242740
H4    H     H_    0.059162 0.359190 0.216083 0.163188
H5    H     H_    0.950112 0.273226 0.231962 0.147717
H6    H     H_    0.099447 0.178318 0.175813 0.257811
H7    H     H_    0.063524 0.264190 0.106615 0.229245
H8    H     H_    0.211241 0.263222 0.161737 0.253463
H9    H     H_    0.546933 0.045619 0.646010 0.100203
H10   H     H_    0.457145 0.952566 0.353059 0.070639
H11   H     H_    0.819581 0.798648 0.621188 0.157001
H12   H     H_    0.368885 0.283755 0.387043 0.140568
H13   H     H_    0.723418 0.790935 0.709158 0.158256
H14   H     H_    0.809929 0.925687 0.751066 0.273377
H15   H     H_    0.933233 0.853013 0.737533 0.212230
H16   H     H_    0.902657 0.935091 0.662726 0.262638
H17   H     H_    0.489311 0.154609 0.290212 0.134001
H18   H     H_    0.343199 0.209840 0.276892 0.175365
H19   H     H_    0.239308 0.074912 0.236071 0.272897
H20   H     H_    0.356725 0.116998 0.169556 0.213044
H21   H     H_    0.392946 0.030250 0.237376 0.247395
H22   H     H_    0.947417 0.162811 0.354424 0.120766
H23   H     H_    0.793143 0.330591 0.457289 0.217693
H24   H     H_    0.041724 0.854876 0.566039 0.103150
H25   H     H_    0.279241 0.387539 0.299920 0.078375
H26   H     H_    0.721573 0.722943 0.379119 0.090487
H27   H     H_    0.667544 0.333858 0.251439 0.028319
H28   H     H_    0.260698 0.547080 0.679043 0.039096
H29   H     H_    0.671625 0.343114 0.114975 0.049173
H30   H     H_    0.259074 0.623579 0.883162 0.089979
H31   H     H_    0.729123 0.425997 0.969576 0.061587
H32   H     H_    0.248124 0.591687 0.043337 0.045362
H33   H     H_    0.690295 0.323110 0.598977 0.060523
H34   H     H_    0.189892 0.645944 0.569863 0.231311
H35   H     H_    0.312368 0.675395 0.402116 0.111535
H36   H     H_    0.648758 0.405796 0.751279 0.207994
H37   H     H_    0.374112 0.612851 0.251758 0.245805
H38   H     H_    0.916648 0.818264 0.346082 0.163561
H39   H     H_    0.027770 0.865541 0.414767 0.187270
H40   H     H_    0.868858 0.969480 0.445048 0.273708
N1    N     N_2   0.532806 0.510864 0.984496 -0.146583
N2    N     N_2   0.431369 0.493550 0.016343 -0.154060
N3    N     N_R   0.515300 0.716920 0.509720 -0.158613
N4    N     N_R   0.484700 0.283080 0.490280 -0.156712
N5    N     N_2   0.553195 0.979638 0.509133 -0.150363
N6    N     N_2   0.457283 0.020212 0.489421 -0.151070
O1    O     O_R   0.494530 0.422540 0.612660 -0.614656
O2    O     O_3   0.112394 0.269638 0.304826 -0.646931
O3    O     O_2   0.704125 0.113128 0.643679 -0.523810
O4    O     O_2   0.294394 0.891715 0.362783 -0.552336
O5    O     O_3   0.673321 0.882930 0.624093 -0.594369
O6    O     O_3   0.346643 0.118599 0.368707 -0.582723
O7    O     O_2   0.794809 0.186362 0.412954 -0.599362
O8    O     O_2   0.191652 0.794079 0.607134 -0.526439
O9    O     O_2   0.227034 0.502139 0.318847 -0.621533
O10   O     O_2   0.761811 0.615573 0.334040 -0.540896
O11   O     O_2   0.740827 0.430803 0.305475 -0.545176
O12   O     O_R   0.505470 0.577460 0.387340 -0.625638
O13   O     O_2   0.276828 0.651169 0.736968 -0.536851
O14   O     O_2   0.517772 0.333469 0.046971 -0.535217
O15   O     O_2   0.411637 0.665148 0.940105 -0.535831
O16   O     O_2   0.768086 0.359660 0.877583 -0.539748
O17   O     O_2   0.252354 0.670173 0.130638 -0.507363
O18   O     O_2   0.594242 0.262535 0.683098 -0.549898
O19   O     O_2   0.395500 0.744153 0.317924 -0.558908
O20   O     O_R   0.504350 0.561840 0.618900 -0.606529
O21   O     O_R   0.495650 0.438160 0.381100 -0.640678
O22   O     O_R   0.678310 0.430340 0.496890 -0.663473
O23   O     O_R   0.321690 0.569660 0.503110 -0.656865
O24   O     O_R   0.688140 0.569650 0.503130 -0.636600
O25   O     O_R   0.311860 0.430350 0.496870 -0.616261
O26   O     O_3   0.873124 0.805844 0.466469 -0.668195
Zn1   Zn    Zn3+2 0.493440 0.406980 0.495830 0.957270
Zn2   Zn    Zn3+2 0.506560 0.593020 0.504170 0.963936

loop_
_geom_bond_atom_site_label_1
_geom_bond_atom_site_label_2
_ccdc_geom_bond_type
C54   O15   D    
C45   C60   A    
C34   C56   A    
C23   C45   A    
C40   H9    S    
C17   O23   A    
C39   H6    S    
C49   H25   S    
C52   H28   S    
O22   Zn1   S    
C1    O20   A    
C55   H31   S    
C17   O25   A    
C54   C60   S    
C43   H16   S    
C47   O7    D    
C42   H13   S    
C30   C35   A    
C60   C62   A    
C36   C37   S    
C24   C26   A    
C15   C19   A    
C53   O14   D    
O20   Zn2   S    
C16   C35   S    
C57   O17   D    
C37   H40   S    
C11   C14   A    
C18   H1    S    
O1    Zn1   S    
C59   O19   D    
C29   C33   A    
C27   C29   A    
C10   C40   S    
C51   C56   S    
C14   C18   A    
C8    C58   S    
C46   H20   S    
C28   C50   S    
C12   O12   A    
C38   H4    S    
C22   C25   A    
C37   H3    S    
C4    C57   S    
C53   H29   S    
C51   O11   D    
N5    N6    D    
C7    N3    A    
C38   O2    S    
C16   O22   A    
C2    C61   A    
C50   H26   S    
C48   O8    D    
C1    O1    A    
C22   C47   S    
C44   O6    S    
O21   Zn1   S    
C17   C33   S    
C13   N6    S    
C7    C59   S    
C44   C46   S    
C40   O3    D    
C19   H12   S    
C21   C32   A    
C49   O9    D    
C12   O21   A    
C24   C48   S    
C44   H18   S    
C4    C6    A    
O23   Zn2   S    
C45   C52   S    
C41   O4    D    
C6    C34   A    
C36   O26   S    
C36   H39   S    
O12   Zn2   S    
C2    C4    A    
C58   H33   S    
C54   H30   S    
C26   O26   S    
C46   H19   S    
C52   O13   D    
C42   O5    S    
C5    C23   A    
C2    N2    S    
O24   Zn2   S    
C20   H23   S    
C39   H7    S    
C15   O6    S    
C36   H38   S    
C47   H22   S    
C38   H5    S    
C9    C11   A    
C25   O2    S    
N3    Zn2   S    
N4    Zn1   S    
C20   C22   A    
C1    C23   S    
C57   H32   S    
C41   H10   S    
C11   N5    S    
C59   H35   S    
C31   C35   A    
C43   H15   S    
C42   C43   S    
C53   C61   S    
C37   H2    S    
C62   N1    S    
C3    C62   A    
C43   H14   S    
C7    C9    A    
C55   O16   D    
C42   H11   S    
C50   O10   D    
C26   C28   A    
C44   H17   S    
C3    C5    A    
C10   C13   A    
C8    N4    A    
C58   O18   D    
C21   H34   S    
C9    C41   S    
C25   C27   A    
C14   O5    S    
C3    C55   S    
C6    H37   S    
C13   C15   A    
C18   N3    A    
C29   C31   A    
C32   C33   A    
C30   C32   A    
C38   C39   S    
C28   C30   A    
C39   H8    S    
C48   H24   S    
C16   O24   A    
C46   H21   S    
C19   N4    A    
C5    H36   S    
C8    C10   A    
C21   C24   A    
N1    N2    D    
O25   Zn1   S    
C56   C61   A    
C12   C34   S    
C51   H27   S    
C27   C49   S    
C20   C31   A    
