data_mof_unit_36039.cif
_audit_creation_date              2012-12-10T18:06:40-0500
_audit_creation_method            fapswitch 2.2
_symmetry_space_group_name_H-M    P1
_symmetry_Int_Tables_number       1
_space_group_crystal_system       triclinic
_cell_length_a                    12.627402
_cell_length_b                    13.255175
_cell_length_c                    15.418578
_cell_angle_alpha                 83.472827
_cell_angle_beta                  100.164374
_cell_angle_gamma                 96.965804
_cell_volume                      2510.21396565

loop_
_atom_site_label
_atom_site_type_symbol
_atom_type_description
_atom_site_fract_x
_atom_site_fract_y
_atom_site_fract_z
_atom_type_partial_charge
C1    C     C_R   0.445500 0.307578 0.515040 0.872761
C2    C     C_R   0.411266 0.457977 0.099226 0.073062
C3    C     C_R   0.311818 0.496287 0.060141 0.100525
C4    C     C_R   0.475378 0.419703 0.046649 0.033580
C5    C     C_R   0.450756 0.437300 0.954162 0.048308
C6    C     C_R   0.347787 0.468019 0.916189 -0.259318
C7    C     C_R   0.278518 0.496955 0.967889 0.188504
C8    C     C_R   0.563446 0.364381 0.083897 -0.293702
C9    C     C_R   0.636820 0.342189 0.032937 0.212809
C10   C     C_R   0.627482 0.381967 0.943061 0.013128
C11   C     C_R   0.531246 0.426255 0.903162 0.035429
C12   C     C_R   0.433956 0.511440 0.335835 0.856927
C13   C     C_R   0.711116 0.381124 0.892184 0.159362
C14   C     C_R   0.693624 0.414973 0.800858 0.164138
C15   C     C_R   0.520660 0.465835 0.814722 -0.301908
C16   C     C_R   0.703875 0.954718 0.441323 0.217595
C17   C     C_R   0.584215 0.801792 0.473431 -0.102691
C18   C     C_R   0.304106 0.154903 0.532975 0.173974
C19   C     C_R   0.273420 0.050446 0.521332 0.258804
C20   C     C_R   0.350566 0.989435 0.508253 -0.240490
C21   C     C_R   0.460847 0.026341 0.514822 0.059791
C22   C     C_R   0.493745 0.127860 0.531190 -0.004671
C23   C     C_R   0.554332 0.691579 0.485407 0.879204
C24   C     C_R   0.539004 0.965685 0.499924 0.016534
C25   C     C_R   0.642437 0.009804 0.484998 0.064091
C26   C     C_R   0.680543 0.104079 0.519127 0.171737
C27   C     C_R   0.606473 0.157983 0.547787 -0.186391
C28   C     C_R   0.518688 0.861163 0.504968 -0.311786
C29   C     C_R   0.669827 0.850275 0.430150 0.124429
C30   C     C_R   0.414238 0.195753 0.530115 -0.185335
C31   C     C_R   0.151383 0.558537 0.667098 -0.315779
C32   C     C_R   0.753287 0.389536 0.388020 0.029279
C33   C     C_R   0.845930 0.357728 0.367593 -0.283849
C34   C     C_R   0.564520 0.483464 0.664979 0.877263
C35   C     C_R   0.945730 0.388162 0.416375 -0.177209
C36   C     C_R   0.952981 0.453431 0.483608 -0.009386
C37   C     C_R   0.857042 0.479940 0.505835 0.165762
C38   C     C_R   0.052431 0.493939 0.530286 -0.014964
C39   C     C_R   0.054841 0.521877 0.616631 0.103489
C40   C     C_R   0.958854 0.529624 0.645478 -0.264055
C41   C     C_R   0.865967 0.534674 0.581985 0.201716
C42   C     C_R   0.146939 0.518153 0.492558 0.288033
C43   C     C_R   0.243838 0.572230 0.629614 -0.023689
C44   C     C_R   0.389590 0.507560 0.241642 -0.057066
C45   C     C_R   0.596221 0.455599 0.761470 -0.152337
C46   C     C_R   0.249500 0.533558 0.114491 -0.206498
C47   C     C_R   0.288536 0.539610 0.204291 -0.204689
C48   C     C_R   0.449362 0.466905 0.189033 -0.242269
H1    H     H_    0.453030 0.825486 0.537848 0.183300
H2    H     H_    0.322160 0.913145 0.490396 0.151954
H3    H     H_    0.637397 0.224058 0.582198 0.174163
H4    H     H_    0.319849 0.598155 0.668671 0.144891
H5    H     H_    0.453754 0.508517 0.786226 0.173290
H6    H     H_    0.962600 0.563061 0.707211 0.151979
H7    H     H_    0.154662 0.579641 0.733469 0.175919
H8    H     H_    0.675124 0.364436 0.351482 0.134031
H9    H     H_    0.016553 0.358803 0.402482 0.157324
H10   H     H_    0.840238 0.308421 0.315276 0.145123
H11   H     H_    0.171273 0.559682 0.088505 0.141648
H12   H     H_    0.240493 0.571431 0.243523 0.158400
H13   H     H_    0.528752 0.446504 0.218433 0.153477
H14   H     H_    0.318238 0.469706 0.845978 0.160795
H15   H     H_    0.574198 0.333172 0.152389 0.142311
N1    N     N_R   0.239390 0.551900 0.544730 -0.105025
N2    N     N_R   0.759950 0.448600 0.455730 -0.126619
O1    O     O_R   0.374950 0.371210 0.521360 -0.598209
O2    O     O_R   0.542050 0.338030 0.492790 -0.619555
O3    O     O_R   0.368720 0.526070 0.390200 -0.611469
O4    O     O_R   0.535820 0.492890 0.361630 -0.624929
O5    O     O_R   0.457950 0.661970 0.507210 -0.616145
O6    O     O_R   0.625050 0.628790 0.478640 -0.617186
O7    O     O_R   0.464180 0.507110 0.638370 -0.629663
O8    O     O_R   0.631280 0.473930 0.609800 -0.586553
Zn1   Zn    Zn3+2 0.388420 0.522150 0.519080 0.924863
Zn2   Zn    Zn3+2 0.611580 0.477850 0.480920 0.922812
N3    N     N_2   0.179888 0.533937 0.924034 -0.322878
H16   H     H_    0.161765 0.599765 0.945310 0.217590
C49   C     C_3   0.089278 0.456297 0.912148 -0.816541
H17   H     H_    0.017212 0.491496 0.875296 0.232365
H18   H     H_    0.070868 0.420928 0.977402 0.248685
H19   H     H_    0.107235 0.396582 0.873354 0.255507
N4    N     N_2   0.817405 0.359267 0.933144 -0.307555
H20   H     H_    0.848835 0.390333 0.991785 0.227937
C50   C     C_3   0.849559 0.260165 0.924258 -0.738026
H21   H     H_    0.872265 0.219213 0.990595 0.244844
H22   H     H_    0.921635 0.270617 0.890976 0.232780
H23   H     H_    0.783666 0.212196 0.885552 0.244037
C51   C     C_3   0.717616 0.797446 0.366235 -0.914682
H24   H     H_    0.672269 0.723330 0.350203 0.263455
H25   H     H_    0.713798 0.844947 0.301979 0.241290
H26   H     H_    0.803538 0.786758 0.392126 0.226635
C52   C     C_3   0.799401 0.142008 0.535741 -0.875758
H27   H     H_    0.816826 0.203596 0.580467 0.223711
H28   H     H_    0.847373 0.078857 0.567573 0.239197
H29   H     H_    0.827322 0.173391 0.473141 0.276170
N5    N     N_2   0.792588 0.006024 0.402421 -0.305982
H30   H     H_    0.853293 0.961945 0.398990 0.237273
C53   C     C_3   0.762228 0.070366 0.321502 -0.825988
H31   H     H_    0.836066 0.111909 0.299467 0.235181
H32   H     H_    0.709609 0.127564 0.332338 0.250878
H33   H     H_    0.718609 0.023614 0.268353 0.242487
C54   C     C_3   0.219438 0.221422 0.546507 -0.848454
H34   H     H_    0.199246 0.274715 0.486489 0.244473
H35   H     H_    0.142329 0.178442 0.559588 0.232027
H36   H     H_    0.249648 0.264055 0.605452 0.251056
C55   C     C_3   0.157728 0.002920 0.517317 -0.939229
H37   H     H_    0.103904 0.045026 0.464351 0.247900
H38   H     H_    0.147853 0.921906 0.502583 0.235193
H39   H     H_    0.131347 0.004392 0.582075 0.243421
C56   C     C_3   0.144965 0.530355 0.394349 -0.895272
H40   H     H_    0.198113 0.600096 0.377429 0.249428
H41   H     H_    0.172064 0.462054 0.372825 0.244135
H42   H     H_    0.063973 0.544613 0.356848 0.222393
C57   C     C_3   0.821022 0.635093 0.577540 -0.783288
H43   H     H_    0.750791 0.628502 0.612263 0.257707
H44   H     H_    0.880596 0.693477 0.610776 0.191689
H45   H     H_    0.807223 0.667935 0.508172 0.251626
N6    N     N_2   0.777961 0.415540 0.750908 -0.275496
H46   H     H_    0.852762 0.443109 0.782598 0.231123
C58   C     C_3   0.780114 0.322732 0.710421 -0.739645
H47   H     H_    0.858464 0.290545 0.733880 0.219628
H48   H     H_    0.772498 0.341346 0.638082 0.250381
H49   H     H_    0.713486 0.263761 0.725048 0.221637
N7    N     N_2   0.717228 0.277305 0.072966 -0.303671
H50   H     H_    0.753339 0.294564 0.135696 0.212357
C59   C     C_3   0.680737 0.169732 0.070779 -0.792225
H51   H     H_    0.749186 0.124195 0.098685 0.231891
H52   H     H_    0.650769 0.151584 0.001520 0.255181
H53   H     H_    0.615133 0.147928 0.110961 0.238343

loop_
_geom_bond_atom_site_label_1
_geom_bond_atom_site_label_2
_ccdc_geom_bond_type
C12   O4    A    
C33   H10   S    
C42   N1    A    
C46   H11   S    
C17   C29   A    
C35   C36   A    
C50   H23   S    
C41   C57   S    
C4    C8    A    
C57   H43   S    
C12   O3    A    
C26   C27   A    
C17   C23   S    
C31   C43   A    
C15   H5    S    
C36   C37   A    
C50   H22   S    
C5    C11   A    
C3    C7    A    
C5    C6    A    
C49   H18   S    
C43   H4    S    
C55   H37   S    
C26   C52   S    
O1    Zn1   S    
C9    N7    S    
C54   H36   S    
C18   C19   A    
C18   C54   S    
N6    H46   S    
C52   H27   S    
C29   C51   S    
C20   H2    S    
C1    O2    A    
C47   H12   S    
C56   H40   S    
C11   C15   A    
C50   H21   S    
C19   C20   A    
C58   H48   S    
C8    C9    A    
C14   N6    S    
C37   N2    A    
O5    Zn1   S    
C18   C30   A    
C9    C10   A    
C58   H49   S    
C21   C22   A    
C37   C41   A    
O8    Zn2   S    
C23   O5    A    
C27   H3    S    
C43   N1    A    
C14   C45   A    
C56   H41   S    
C16   N5    S    
C23   O6    A    
N3    H16   S    
O7    Zn1   S    
C39   C40   A    
C49   H17   S    
C8    H15   S    
C59   H53   S    
C2    C48   A    
C25   C26   A    
C13   N4    S    
C52   H29   S    
C40   H6    S    
N5    C53   S    
C2    C4    A    
C28   H1    S    
C51   H26   S    
N5    H30   S    
C20   C21   A    
C52   H28   S    
C1    O1    A    
C34   C45   S    
C24   C25   A    
C54   H35   S    
C56   H42   S    
C6    C7    A    
C40   C41   A    
C51   H25   S    
N4    H20   S    
N4    C50   S    
C22   C27   A    
O2    Zn2   S    
C15   C45   A    
C34   O7    A    
C58   H47   S    
N7    C59   S    
C16   C25   A    
C46   C47   A    
C59   H52   S    
C22   C30   A    
C17   C28   A    
C24   C28   A    
N3    C49   S    
C4    C5    A    
C10   C13   A    
C57   H44   S    
C44   C47   A    
C38   C42   A    
C7    N3    S    
C53   H33   S    
C3    C46   A    
C53   H32   S    
N2    Zn2   S    
C35   H9    S    
C32   C33   A    
C6    H14   S    
C36   C38   A    
C2    C3    A    
C16   C29   A    
C12   C44   S    
O6    Zn2   S    
C49   H19   S    
C48   H13   S    
C38   C39   A    
C55   H38   S    
C59   H51   S    
C1    C30   S    
C33   C35   A    
C31   C39   A    
O4    Zn2   S    
C42   C56   S    
C54   H34   S    
N6    C58   S    
C57   H45   S    
C10   C11   A    
C34   O8    A    
C19   C55   S    
C51   H24   S    
C53   H31   S    
C21   C24   A    
N1    Zn1   S    
C32   N2    A    
C31   H7    S    
C13   C14   A    
O3    Zn1   S    
C32   H8    S    
C44   C48   A    
N7    H50   S    
C55   H39   S    
