data_mof_unit_60438.cif
_audit_creation_date              2012-12-10T20:25:35-0500
_audit_creation_method            fapswitch 2.2
_symmetry_space_group_name_H-M    P1
_symmetry_Int_Tables_number       1
_space_group_crystal_system       triclinic
_cell_length_a                    25.644041
_cell_length_b                    25.643354
_cell_length_c                    51.411204
_cell_angle_alpha                 90.001447
_cell_angle_beta                  90.001435
_cell_angle_gamma                 90.001294
_cell_volume                      33807.9676892

loop_
_atom_site_label
_atom_site_type_symbol
_atom_type_description
_atom_site_fract_x
_atom_site_fract_y
_atom_site_fract_z
_atom_type_partial_charge
C1    C     C_R   0.000000 0.500001 0.820900 0.968684
C2    C     C_R   1.000000 0.499999 0.179099 0.968604
C3    C     C_R   0.500001 0.000000 0.820898 0.969216
C4    C     C_R   0.499999 1.000000 0.179102 0.969213
C5    C     C_R   0.500000 0.000001 0.320900 0.968919
C6    C     C_R   0.500000 0.999999 0.679100 0.968938
C7    C     C_R   0.000001 0.500000 0.320898 0.969458
C8    C     C_R   0.999999 0.500000 0.679102 0.969496
C9    C     C_R   0.565515 0.068536 0.986431 -0.135175
C10   C     C_R   0.434485 0.931467 0.013568 -0.135181
C11   C     C_R   0.930395 0.435612 0.986424 -0.135200
C12   C     C_R   0.069610 0.564388 0.013575 -0.135205
C13   C     C_R   0.434486 0.931468 0.986424 -0.135184
C14   C     C_R   0.565513 0.068536 0.013576 -0.135177
C15   C     C_R   0.069610 0.564390 0.986430 -0.135200
C16   C     C_R   0.930395 0.435610 0.013568 -0.135191
C17   C     C_R   0.065889 0.568169 0.486432 -0.135175
C18   C     C_R   0.934111 0.431827 0.513569 -0.135170
C19   C     C_R   0.430684 0.935304 0.486425 -0.135204
C20   C     C_R   0.569310 0.064696 0.513576 -0.135198
C21   C     C_R   0.934113 0.431827 0.486425 -0.135170
C22   C     C_R   0.065887 0.568168 0.513576 -0.135178
C23   C     C_R   0.569311 0.064698 0.486432 -0.135191
C24   C     C_R   0.430684 0.935302 0.513569 -0.135198
C25   C     C_R   0.039034 0.472891 0.609048 0.312341
C26   C     C_R   0.960953 0.527087 0.390953 0.312325
C27   C     C_R   0.526856 0.960791 0.609039 0.312030
C28   C     C_R   0.473151 0.039215 0.390961 0.312022
C29   C     C_R   0.960957 0.527101 0.609048 0.312348
C30   C     C_R   0.039055 0.472915 0.390953 0.312332
C31   C     C_R   0.473135 0.039200 0.609039 0.312027
C32   C     C_R   0.526851 0.960793 0.390961 0.312013
C33   C     C_R   0.539117 0.973016 0.109044 0.312244
C34   C     C_R   0.460885 0.026990 0.890956 0.312258
C35   C     C_R   0.026718 0.460694 0.109035 0.311980
C36   C     C_R   0.973251 0.539282 0.890964 0.311978
C37   C     C_R   0.460874 0.026981 0.109044 0.312252
C38   C     C_R   0.539123 0.973018 0.890956 0.312261
C39   C     C_R   0.973281 0.539297 0.109035 0.311971
C40   C     C_R   0.026758 0.460727 0.890964 0.311972
C41   C     C_R   0.040792 0.475167 0.636577 0.231966
C42   C     C_R   0.959197 0.524810 0.363424 0.231952
C43   C     C_R   0.524580 0.959052 0.636568 0.232118
C44   C     C_R   0.475429 0.040954 0.363432 0.232116
C45   C     C_R   0.959202 0.524827 0.636577 0.231965
C46   C     C_R   0.040809 0.475191 0.363423 0.231950
C47   C     C_R   0.475414 0.040941 0.636569 0.232118
C48   C     C_R   0.524573 0.959052 0.363432 0.232107
C49   C     C_R   0.540867 0.975294 0.136573 0.232010
C50   C     C_R   0.459135 0.024711 0.863426 0.232015
C51   C     C_R   0.024437 0.458964 0.136564 0.232204
C52   C     C_R   0.975528 0.541014 0.863435 0.232189
C53   C     C_R   0.459127 0.024703 0.136573 0.232005
C54   C     C_R   0.540871 0.975294 0.863426 0.232016
C55   C     C_R   0.975561 0.541030 0.136564 0.232194
C56   C     C_R   0.024477 0.458992 0.863434 0.232193
C57   C     C_R   0.999997 0.499998 0.650291 -0.195449
C58   C     C_R   0.000003 0.500001 0.349709 -0.195467
C59   C     C_R   0.499998 0.999997 0.650285 -0.195562
C60   C     C_R   0.500001 0.000003 0.349715 -0.195586
C61   C     C_R   0.499997 0.999999 0.150289 -0.195538
C62   C     C_R   0.500002 0.000002 0.849711 -0.195521
C63   C     C_R   0.999999 0.499997 0.150282 -0.195734
C64   C     C_R   0.000002 0.500002 0.849716 -0.195671
C65   C     C_R   0.999995 0.499996 0.595639 0.169445
C66   C     C_R   0.000005 0.500000 0.404362 0.169447
C67   C     C_R   0.499995 0.999995 0.595633 0.170049
C68   C     C_R   0.500001 0.000005 0.404367 0.170045
C69   C     C_R   0.499996 0.999999 0.095636 0.169594
C70   C     C_R   0.500004 0.000004 0.904363 0.169592
C71   C     C_R   0.000000 0.499995 0.095629 0.170070
C72   C     C_R   0.000004 0.500005 0.904369 0.170113
C73   C     C_R   0.099026 0.400974 0.750000 0.827114
C74   C     C_R   0.900974 0.599026 0.250000 0.827117
C75   C     C_R   0.599026 0.099026 0.750000 0.818206
C76   C     C_R   0.400973 0.900974 0.250000 0.818191
C77   C     C_R   0.900974 0.599027 0.750000 0.827123
C78   C     C_R   0.099026 0.400973 0.250000 0.827119
C79   C     C_R   0.400974 0.900973 0.750000 0.818206
C80   C     C_R   0.599026 0.099027 0.250000 0.818195
C81   C     C_R   0.099027 0.599026 0.250000 0.818187
C82   C     C_R   0.900973 0.400974 0.750000 0.818207
C83   C     C_R   0.599026 0.900974 0.250000 0.827126
C84   C     C_R   0.400974 0.099026 0.750000 0.827112
C85   C     C_R   0.900974 0.400973 0.250000 0.818192
C86   C     C_R   0.099026 0.599027 0.750000 0.818206
C87   C     C_R   0.400974 0.099027 0.250000 0.827128
C88   C     C_R   0.599026 0.900973 0.750000 0.827120
C89   C     C_R   0.246034 0.792525 0.766957 -0.166490
C90   C     C_R   0.753913 0.207528 0.233006 -0.166528
C91   C     C_R   0.209315 0.247866 0.768122 -0.166321
C92   C     C_R   0.792035 0.753483 0.232716 -0.166261
C93   C     C_R   0.753968 0.207481 0.766960 -0.166470
C94   C     C_R   0.246721 0.791831 0.232584 -0.166511
C95   C     C_R   0.789730 0.751180 0.768663 -0.166351
C96   C     C_R   0.209864 0.248415 0.231561 -0.166347
C97   C     C_R   0.248418 0.209863 0.231562 -0.166336
C98   C     C_R   0.751177 0.789732 0.768663 -0.166354
C99   C     C_R   0.208168 0.753278 0.232584 -0.166545
C100  C     C_R   0.792520 0.246033 0.766960 -0.166487
C101  C     C_R   0.753481 0.792037 0.232716 -0.166279
C102  C     C_R   0.247869 0.209313 0.768122 -0.166324
C103  C     C_R   0.792466 0.246080 0.233005 -0.166485
C104  C     C_R   0.207480 0.753973 0.766958 -0.166468
C105  C     C_R   0.746087 0.292472 0.266994 -0.166527
C106  C     C_R   0.253966 0.707475 0.733042 -0.166491
C107  C     C_R   0.707966 0.746517 0.267284 -0.166263
C108  C     C_R   0.290685 0.252133 0.731878 -0.166320
C109  C     C_R   0.253279 0.708169 0.267416 -0.166510
C110  C     C_R   0.746032 0.292519 0.733040 -0.166471
C111  C     C_R   0.290135 0.251584 0.268439 -0.166346
C112  C     C_R   0.710270 0.748821 0.731337 -0.166352
C113  C     C_R   0.748823 0.710268 0.731337 -0.166353
C114  C     C_R   0.251582 0.290137 0.268438 -0.166336
C115  C     C_R   0.707480 0.253966 0.733040 -0.166486
C116  C     C_R   0.291832 0.746722 0.267416 -0.166545
C117  C     C_R   0.252130 0.290687 0.731878 -0.166325
C118  C     C_R   0.746519 0.707963 0.267284 -0.166278
C119  C     C_R   0.292519 0.746027 0.733042 -0.166468
C120  C     C_R   0.707534 0.253920 0.266995 -0.166486
C121  C     C_R   0.288614 0.788612 0.749999 0.154114
C122  C     C_R   0.711386 0.211388 0.250001 0.154126
C123  C     C_R   0.211387 0.288612 0.750000 0.153593
C124  C     C_R   0.788613 0.711387 0.250000 0.153756
C125  C     C_R   0.711387 0.211387 0.750000 0.154113
C126  C     C_R   0.288613 0.788613 0.250000 0.154051
C127  C     C_R   0.788614 0.711387 0.750000 0.153476
C128  C     C_R   0.211386 0.288613 0.250000 0.153523
C129  C     C_R   0.288614 0.211387 0.250000 0.153523
C130  C     C_R   0.711386 0.788613 0.750000 0.153476
C131  C     C_R   0.211387 0.711387 0.250000 0.154051
C132  C     C_R   0.788613 0.288613 0.750000 0.154113
C133  C     C_R   0.711387 0.788613 0.250000 0.153757
C134  C     C_R   0.288613 0.211388 0.750000 0.153592
C135  C     C_R   0.788614 0.288612 0.249999 0.154126
C136  C     C_R   0.211386 0.711388 0.750001 0.154114
C137  C     C_1   0.328255 0.828251 0.749999 -0.061499
C138  C     C_1   0.671745 0.171749 0.250001 -0.061532
C139  C     C_1   0.171746 0.328252 0.750000 -0.059145
C140  C     C_1   0.828254 0.671747 0.249999 -0.059111
C141  C     C_1   0.671748 0.171747 0.750000 -0.061498
C142  C     C_1   0.328252 0.828253 0.250000 -0.061549
C143  C     C_1   0.828254 0.671747 0.750001 -0.059167
C144  C     C_1   0.171746 0.328252 0.250000 -0.059157
C145  C     C_1   0.328254 0.171747 0.250001 -0.059156
C146  C     C_1   0.671746 0.828253 0.749999 -0.059167
C147  C     C_1   0.171748 0.671747 0.250000 -0.061549
C148  C     C_1   0.828252 0.328253 0.750000 -0.061498
C149  C     C_1   0.671746 0.828253 0.250001 -0.059110
C150  C     C_1   0.328254 0.171747 0.749999 -0.059145
C151  C     C_1   0.828254 0.328251 0.249999 -0.061532
C152  C     C_1   0.171745 0.671749 0.750001 -0.061498
C153  C     C_1   0.138531 0.638534 0.750001 -0.116990
C154  C     C_1   0.861469 0.361466 0.249999 -0.117023
C155  C     C_1   0.361469 0.138533 0.749999 -0.112028
C156  C     C_1   0.638531 0.861468 0.250001 -0.112021
C157  C     C_1   0.861467 0.361468 0.750000 -0.116989
C158  C     C_1   0.138533 0.638532 0.250000 -0.117027
C159  C     C_1   0.638532 0.861467 0.749999 -0.112037
C160  C     C_1   0.361468 0.138533 0.250001 -0.112034
C161  C     C_1   0.138531 0.361467 0.250000 -0.112035
C162  C     C_1   0.861468 0.638533 0.750000 -0.112037
C163  C     C_1   0.361467 0.861468 0.250000 -0.117027
C164  C     C_1   0.638533 0.138532 0.750000 -0.116989
C165  C     C_1   0.861469 0.638532 0.249999 -0.112022
C166  C     C_1   0.138531 0.361467 0.750000 -0.112028
C167  C     C_1   0.638531 0.138534 0.250001 -0.117023
C168  C     C_1   0.361469 0.861466 0.749999 -0.116990
C169  C     C_R   0.467821 0.966293 0.945279 0.615217
C170  C     C_R   0.532178 0.033711 0.054721 0.615226
C171  C     C_R   0.034234 0.531635 0.945283 0.615185
C172  C     C_R   0.965771 0.468365 0.054715 0.615199
C173  C     C_R   0.532184 0.033712 0.945282 0.615229
C174  C     C_R   0.467815 0.966291 0.054717 0.615229
C175  C     C_R   0.965773 0.468371 0.945280 0.615175
C176  C     C_R   0.034233 0.531628 0.054719 0.615183
C177  C     C_R   0.967640 0.466465 0.445279 0.615232
C178  C     C_R   0.032362 0.533530 0.554722 0.615221
C179  C     C_R   0.534087 0.031786 0.445283 0.615192
C180  C     C_R   0.465909 0.968214 0.554717 0.615185
C181  C     C_R   0.032368 0.533532 0.445282 0.615236
C182  C     C_R   0.967632 0.466465 0.554719 0.615232
C183  C     C_R   0.465910 0.968221 0.445280 0.615176
C184  C     C_R   0.534084 0.031779 0.554721 0.615173
C185  C     C_R   0.532888 0.034399 0.972574 -0.049831
C186  C     C_R   0.467111 0.965604 0.027426 -0.049824
C187  C     C_R   0.965068 0.467678 0.972570 -0.049683
C188  C     C_R   0.034937 0.532322 0.027428 -0.049683
C189  C     C_R   0.467115 0.965605 0.972570 -0.049829
C190  C     C_R   0.532885 0.034398 0.027430 -0.049833
C191  C     C_R   0.034938 0.532325 0.972574 -0.049680
C192  C     C_R   0.965067 0.467674 0.027424 -0.049692
C193  C     C_R   0.033076 0.534212 0.472574 -0.049867
C194  C     C_R   0.966924 0.465784 0.527427 -0.049870
C195  C     C_R   0.465211 0.967524 0.472571 -0.049719
C196  C     C_R   0.534784 0.032476 0.527430 -0.049724
C197  C     C_R   0.966928 0.465784 0.472570 -0.049875
C198  C     C_R   0.033072 0.534212 0.527431 -0.049868
C199  C     C_R   0.534785 0.032479 0.472574 -0.049727
C200  C     C_R   0.465210 0.967521 0.527426 -0.049723
C201  C     C_R   0.500001 0.000002 0.986270 -0.006280
C202  C     C_R   0.499999 0.000002 0.013730 -0.006280
C203  C     C_R   0.000003 0.500001 0.986269 -0.006321
C204  C     C_R   0.000003 0.499999 0.013729 -0.006327
C205  C     C_R   0.000001 0.499998 0.486270 -0.006267
C206  C     C_R   0.999999 0.499998 0.513731 -0.006262
C207  C     C_R   0.499998 0.000001 0.486270 -0.006293
C208  C     C_R   0.499997 0.999999 0.513730 -0.006291
H1    H     H_    0.174701 0.757351 0.780147 0.151341
H2    H     H_    0.825205 0.242744 0.219788 0.151334
H3    H     H_    0.245927 0.177961 0.782217 0.152006
H4    H     H_    0.756474 0.824440 0.219274 0.151809
H5    H     H_    0.825301 0.242661 0.780149 0.151332
H6    H     H_    0.175923 0.756114 0.219039 0.151397
H7    H     H_    0.752379 0.820344 0.783177 0.152132
H8    H     H_    0.246901 0.178936 0.217221 0.152083
H9    H     H_    0.178939 0.246897 0.217221 0.152082
H10   H     H_    0.820341 0.752383 0.783177 0.152134
H11   H     H_    0.243883 0.824075 0.219039 0.151415
H12   H     H_    0.757342 0.174701 0.780150 0.151342
H13   H     H_    0.824436 0.756478 0.219273 0.151818
H14   H     H_    0.177964 0.245922 0.782218 0.152009
H15   H     H_    0.757243 0.174786 0.219790 0.151317
H16   H     H_    0.242662 0.825309 0.780146 0.151332
H17   H     H_    0.674795 0.257256 0.280212 0.151335
H18   H     H_    0.325299 0.742649 0.719853 0.151341
H19   H     H_    0.743527 0.675560 0.280726 0.151808
H20   H     H_    0.254073 0.322039 0.717782 0.152005
H21   H     H_    0.324077 0.743886 0.280961 0.151399
H22   H     H_    0.674699 0.257339 0.719851 0.151333
H23   H     H_    0.253098 0.321064 0.282779 0.152082
H24   H     H_    0.747621 0.679656 0.716823 0.152131
H25   H     H_    0.679659 0.747617 0.716822 0.152134
H26   H     H_    0.321060 0.253103 0.282779 0.152080
H27   H     H_    0.742658 0.325299 0.719850 0.151344
H28   H     H_    0.256117 0.675925 0.280961 0.151416
H29   H     H_    0.322035 0.254078 0.717782 0.152007
H30   H     H_    0.675564 0.743522 0.280727 0.151817
H31   H     H_    0.257338 0.674691 0.719854 0.151334
H32   H     H_    0.742757 0.325214 0.280210 0.151318
H33   H     H_    0.591146 0.095352 0.976360 0.194341
H34   H     H_    0.408853 0.904651 0.023640 0.194333
H35   H     H_    0.903160 0.410425 0.976350 0.194330
H36   H     H_    0.096845 0.589575 0.023648 0.194323
H37   H     H_    0.408856 0.904652 0.976350 0.194339
H38   H     H_    0.591143 0.095352 0.023649 0.194341
H39   H     H_    0.096846 0.589578 0.976360 0.194327
H40   H     H_    0.903159 0.410422 0.023638 0.194330
H41   H     H_    0.091667 0.594843 0.476361 0.194335
H42   H     H_    0.908333 0.405153 0.523640 0.194343
H43   H     H_    0.403564 0.909996 0.476351 0.194327
H44   H     H_    0.596431 0.090005 0.523650 0.194335
H45   H     H_    0.908336 0.405153 0.476351 0.194344
H46   H     H_    0.091664 0.594842 0.523650 0.194341
H47   H     H_    0.596432 0.090008 0.476361 0.194334
H48   H     H_    0.403563 0.909992 0.523640 0.194331
N1    N     N_R   0.500004 0.000003 0.932286 -0.290412
N2    N     N_R   0.499996 0.000000 0.067713 -0.290411
N3    N     N_R   0.000003 0.500004 0.932290 -0.290277
N4    N     N_R   0.000002 0.499996 0.067709 -0.290286
N5    N     N_R   0.000004 0.499999 0.432285 -0.290450
N6    N     N_R   0.999996 0.499997 0.567716 -0.290446
N7    N     N_R   0.499999 0.000004 0.432289 -0.290295
N8    N     N_R   0.499996 0.999996 0.567712 -0.290294
O1    O     O_3   0.000000 0.500000 0.750000 -0.516930
O2    O     O_3   0.000000 0.500000 0.250000 -0.516925
O3    O     O_3   0.500000 0.000000 0.750000 -0.516930
O4    O     O_3   0.500000 0.000000 0.250000 -0.516923
O5    O     O_R   0.000000 0.542800 0.808290 -0.599496
O6    O     O_R   0.000000 0.457200 0.191710 -0.599456
O7    O     O_R   0.457200 0.000000 0.808290 -0.599683
O8    O     O_R   0.542800 0.000000 0.191710 -0.599668
O9    O     O_R   1.000000 0.457200 0.808290 -0.599480
O10   O     O_R   0.000000 0.542800 0.191710 -0.599449
O11   O     O_R   0.542800 0.000000 0.808290 -0.599699
O12   O     O_R   0.457200 0.000000 0.191710 -0.599706
O13   O     O_R   0.500000 0.042800 0.308290 -0.599577
O14   O     O_R   0.500000 0.957200 0.691710 -0.599592
O15   O     O_R   0.957200 0.500000 0.308290 -0.599759
O16   O     O_R   0.042800 0.500000 0.691710 -0.599790
O17   O     O_R   0.500000 0.957200 0.308290 -0.599569
O18   O     O_R   0.500000 0.042800 0.691710 -0.599576
O19   O     O_R   0.042800 0.500000 0.308290 -0.599796
O20   O     O_R   0.957200 0.500000 0.691710 -0.599806
O21   O     O_R   0.060260 0.397270 0.765470 -0.625740
O22   O     O_R   0.939740 0.602730 0.234530 -0.625733
O23   O     O_R   0.602730 0.060260 0.765470 -0.634716
O24   O     O_R   0.397270 0.939740 0.234530 -0.634720
O25   O     O_R   0.939740 0.602730 0.765470 -0.625736
O26   O     O_R   0.060260 0.397270 0.234530 -0.625743
O27   O     O_R   0.397270 0.939740 0.765470 -0.634730
O28   O     O_R   0.602730 0.060260 0.234530 -0.634753
O29   O     O_R   0.060260 0.602730 0.234530 -0.634712
O30   O     O_R   0.939740 0.397270 0.765470 -0.634693
O31   O     O_R   0.602730 0.939740 0.234530 -0.625737
O32   O     O_R   0.397270 0.060260 0.765470 -0.625730
O33   O     O_R   0.939740 0.397270 0.234530 -0.634675
O34   O     O_R   0.060260 0.602730 0.765470 -0.634679
O35   O     O_R   0.397270 0.060260 0.234530 -0.625718
O36   O     O_R   0.602730 0.939740 0.765470 -0.625726
O37   O     O_R   0.560260 0.897270 0.265470 -0.625730
O38   O     O_R   0.439740 0.102730 0.734530 -0.625737
O39   O     O_R   0.102730 0.560260 0.265470 -0.634740
O40   O     O_R   0.897270 0.439740 0.734530 -0.634738
O41   O     O_R   0.439740 0.102730 0.265470 -0.625740
O42   O     O_R   0.560260 0.897270 0.734530 -0.625734
O43   O     O_R   0.897270 0.439740 0.265470 -0.634773
O44   O     O_R   0.102730 0.560260 0.734530 -0.634752
O45   O     O_R   0.560260 0.102730 0.734530 -0.634713
O46   O     O_R   0.439740 0.897270 0.265470 -0.634737
O47   O     O_R   0.102730 0.439740 0.734530 -0.625727
O48   O     O_R   0.897270 0.560260 0.265470 -0.625734
O49   O     O_R   0.439740 0.897270 0.734530 -0.634699
O50   O     O_R   0.560260 0.102730 0.265470 -0.634699
O51   O     O_R   0.897270 0.560260 0.734530 -0.625723
O52   O     O_R   0.102730 0.439740 0.265470 -0.625715
O53   O     O_2   0.436763 0.933520 0.931800 -0.537526
O54   O     O_2   0.563236 0.066484 0.068200 -0.537519
O55   O     O_2   0.067498 0.562166 0.931805 -0.537781
O56   O     O_2   0.932506 0.437835 0.068193 -0.537756
O57   O     O_2   0.563244 0.066486 0.931806 -0.537515
O58   O     O_2   0.436756 0.933516 0.068193 -0.537539
O59   O     O_2   0.932509 0.437842 0.931798 -0.537788
O60   O     O_2   0.067497 0.562156 0.068200 -0.537795
O61   O     O_2   0.936406 0.433859 0.431800 -0.537442
O62   O     O_2   0.063597 0.566134 0.568201 -0.537457
O63   O     O_2   0.567217 0.062462 0.431806 -0.537721
O64   O     O_2   0.432779 0.937537 0.568195 -0.537733
O65   O     O_2   0.063603 0.566138 0.431807 -0.537460
O66   O     O_2   0.936395 0.433860 0.568194 -0.537446
O67   O     O_2   0.432781 0.937546 0.431799 -0.537760
O68   O     O_2   0.567213 0.062455 0.568202 -0.537740
Zn1   Zn    Zn3+2 0.061160 0.500000 0.728500 1.013589
Zn2   Zn    Zn3+2 0.938840 0.500000 0.271500 1.013574
Zn3   Zn    Zn3+2 0.500000 0.061160 0.728500 1.013609
Zn4   Zn    Zn3+2 0.500000 0.938840 0.271500 1.013595
Zn5   Zn    Zn3+2 0.938840 0.500000 0.728500 1.013598
Zn6   Zn    Zn3+2 0.061160 0.500000 0.271500 1.013586
Zn7   Zn    Zn3+2 0.500000 0.938840 0.728500 1.013619
Zn8   Zn    Zn3+2 0.500000 0.061160 0.271500 1.013613
Zn9   Zn    Zn3+2 0.561160 0.000000 0.228500 1.013585
Zn10  Zn    Zn3+2 0.438840 0.000000 0.771500 1.013596
Zn11  Zn    Zn3+2 0.000000 0.561160 0.228500 1.013602
Zn12  Zn    Zn3+2 0.000000 0.438840 0.771500 1.013618
Zn13  Zn    Zn3+2 0.438840 0.000000 0.228500 1.013596
Zn14  Zn    Zn3+2 0.561160 0.000000 0.771500 1.013606
Zn15  Zn    Zn3+2 0.000000 0.438840 0.228500 1.013620
Zn16  Zn    Zn3+2 0.000000 0.561160 0.771500 1.013628
O69   O     O_3   0.074273 0.444298 0.594583 -0.732314
H49   H     H_    0.087225 0.414941 0.605291 0.353166
O70   O     O_3   0.925702 0.555662 0.405418 -0.732279
H50   H     H_    0.912734 0.585012 0.394711 0.353201
O71   O     O_3   0.555207 0.925365 0.594571 -0.732519
H51   H     H_    0.584484 0.912222 0.605275 0.353272
O72   O     O_3   0.444808 0.074649 0.405429 -0.732516
H52   H     H_    0.415535 0.087799 0.394725 0.353277
O73   O     O_3   0.925717 0.555693 0.594583 -0.732325
H53   H     H_    0.912764 0.585050 0.605291 0.353140
O74   O     O_3   0.074308 0.444339 0.405417 -0.732322
H54   H     H_    0.087275 0.414990 0.394709 0.353146
O75   O     O_3   0.444781 0.074624 0.594571 -0.732508
H55   H     H_    0.415506 0.087768 0.605275 0.353299
O76   O     O_3   0.555194 0.925361 0.405430 -0.732479
H56   H     H_    0.584468 0.912211 0.394726 0.353337
O77   O     O_3   0.574447 0.944539 0.094577 -0.732332
H57   H     H_    0.587498 0.915226 0.105285 0.353243
O78   O     O_3   0.425558 0.055470 0.905422 -0.732360
H58   H     H_    0.412506 0.084783 0.894714 0.353208
O79   O     O_3   0.054938 0.425163 0.094566 -0.732540
H59   H     H_    0.084165 0.411909 0.105270 0.353304
O80   O     O_3   0.945000 0.574787 0.905433 -0.732553
H60   H     H_    0.915759 0.588014 0.894730 0.353301
O81   O     O_3   0.425544 0.055458 0.094578 -0.732375
H61   H     H_    0.412491 0.084770 0.105287 0.353190
O82   O     O_3   0.574452 0.944539 0.905422 -0.732372
H62   H     H_    0.587503 0.915225 0.894714 0.353182
O83   O     O_3   0.945062 0.574827 0.094565 -0.732504
H63   H     H_    0.915833 0.588080 0.105267 0.353364
O84   O     O_3   0.055010 0.425223 0.905433 -0.732541
H64   H     H_    0.084251 0.411997 0.894730 0.353326
O85   O     O_3   0.081071 0.452760 0.650490 -0.727557
H65   H     H_    0.113176 0.453886 0.639797 0.355638
O86   O     O_3   0.918906 0.547199 0.349512 -0.727456
H66   H     H_    0.886803 0.546054 0.360205 0.355673
O87   O     O_3   0.546749 0.918635 0.650475 -0.727346
H67   H     H_    0.545392 0.886533 0.639785 0.355510
O88   O     O_3   0.453271 0.081378 0.349525 -0.727321
H68   H     H_    0.454635 0.113479 0.360215 0.355519
O89   O     O_3   0.918924 0.547237 0.650489 -0.727613
H69   H     H_    0.886818 0.546107 0.639797 0.355614
O90   O     O_3   0.081099 0.452802 0.349511 -0.727575
H70   H     H_    0.113203 0.453947 0.360205 0.355614
O91   O     O_3   0.453246 0.081360 0.650475 -0.727291
H71   H     H_    0.454601 0.113461 0.639786 0.355534
O92   O     O_3   0.546731 0.918627 0.349525 -0.727201
H72   H     H_    0.545368 0.886528 0.360216 0.355564
O93   O     O_3   0.581217 0.953007 0.150482 -0.727346
H73   H     H_    0.613319 0.954253 0.139792 0.355635
O94   O     O_3   0.418787 0.047001 0.849517 -0.727428
H74   H     H_    0.386683 0.045757 0.860207 0.355597
O95   O     O_3   0.046463 0.418463 0.150467 -0.727181
H75   H     H_    0.044975 0.386364 0.139780 0.355488
O96   O     O_3   0.953465 0.581494 0.849531 -0.727232
H76   H     H_    0.954922 0.613594 0.860219 0.355481
O97   O     O_3   0.418778 0.046990 0.150483 -0.727465
H77   H     H_    0.386674 0.045742 0.139792 0.355575
O98   O     O_3   0.581218 0.953003 0.849517 -0.727485
H78   H     H_    0.613322 0.954250 0.860208 0.355574
O99   O     O_3   0.953535 0.581532 0.150467 -0.727061
H79   H     H_    0.955022 0.613629 0.139779 0.355533
O100  O     O_3   0.046539 0.418511 0.849530 -0.727179
H80   H     H_    0.045086 0.386413 0.860218 0.355506

loop_
_geom_bond_atom_site_label_1
_geom_bond_atom_site_label_2
_ccdc_geom_bond_type
C4    O8    A    
O73   H53   S    
C37   C69   A    
C198  C206  A    
C18   C21   A    
C65   N6    S    
C42   C58   A    
C89   H16   S    
C31   C67   A    
C45   C57   A    
O4    Zn9   S    
C93   H12   S    
C86   C153  S    
C180  N8    A    
C130  C146  S    
C74   O22   A    
C112  H25   S    
C182  N6    A    
C77   C162  S    
C186  C202  A    
O39   Zn6   S    
C55   O99   S    
C177  N5    A    
C179  N7    A    
C182  C194  A    
C129  C145  S    
C33   C69   A    
C85   O43   A    
C86   O44   A    
C118  C124  A    
C171  O55   S    
C200  C208  A    
C6    O18   A    
C191  C203  A    
C7    O15   A    
C103  H2    S    
C136  C152  S    
C124  C140  S    
C78   O26   A    
C16   H40   S    
C101  H4    S    
C77   O51   A    
C78   O52   A    
C39   O83   S    
O4    Zn13  S    
C33   O77   S    
C82   O30   A    
C25   C41   A    
C142  C163  T    
O3    Zn7   S    
C4    C61   S    
C28   C44   A    
C29   C45   A    
C4    O12   A    
C173  N1    A    
C8    C57   S    
C2    O10   A    
C114  C128  A    
O72   H52   S    
C183  O67   S    
C192  C204  A    
C5    O13   A    
C170  N2    A    
C127  C143  S    
C44   O88   S    
C128  C144  S    
C93   C100  A    
C179  O63   S    
C84   O38   A    
C42   O86   S    
C106  H31   S    
C35   C51   A    
O85   H65   S    
O88   H68   S    
C6    O14   A    
C7    O19   A    
C110  H27   S    
C113  H24   S    
C140  C165  T    
C82   C157  S    
C15   C191  A    
C81   C158  S    
C46   O90   S    
O29   Zn11  S    
C80   O28   A    
O51   Zn5   S    
C21   C197  A    
C32   O76   S    
C49   O93   S    
C30   O74   S    
O82   H62   S    
C100  C132  A    
C83   C156  S    
C101  C133  A    
O28   Zn9   S    
O91   H71   S    
O18   Zn3   S    
C90   H15   S    
C35   C71   A    
O77   H57   S    
C34   O78   S    
O47   Zn1   S    
O4    Zn4   S    
C94   H11   S    
C184  N8    A    
C173  O57   S    
C47   C59   A    
C108  H29   S    
C24   C200  A    
O74   H54   S    
C39   C71   A    
C75   C164  S    
O99   H79   S    
O97   H77   S    
C137  C168  T    
O80   H60   S    
C88   O42   A    
O69   H49   S    
C18   C194  A    
O9    Zn12  S    
C11   H35   S    
O70   H50   S    
C169  C189  A    
C9    H33   S    
O95   H75   S    
C178  O62   S    
C29   O73   S    
C95   C127  A    
C172  C192  A    
C173  C185  A    
C89   C121  A    
C28   C68   A    
C52   O96   S    
O38   Zn3   S    
C102  H3    S    
C20   H44   S    
C1    O5    A    
O94   H74   S    
C123  C139  S    
C111  H26   S    
C3    O7    A    
C50   O94   S    
O4    Zn8   S    
O32   Zn10  S    
C26   O70   S    
C24   H48   S    
O21   Zn12  S    
C80   O50   A    
O52   Zn6   S    
C70   N1    S    
C85   O33   A    
C125  C141  S    
C12   H36   S    
C97   H8    S    
C55   C63   A    
C56   C64   A    
C105  C120  A    
C131  C147  S    
C54   O98   S    
O37   Zn4   S    
C66   N5    S    
C107  C118  A    
C48   O92   S    
C43   C59   A    
C105  C135  A    
C37   C53   A    
C106  C136  A    
C91   C123  A    
C46   C58   A    
C81   O39   A    
C199  C207  A    
C82   O40   A    
C174  O58   S    
C83   O37   A    
C90   C103  A    
C107  H30   S    
O2    Zn11  S    
C193  C205  A    
C26   C66   A    
C178  N6    A    
C114  H23   S    
C190  C202  A    
C36   O80   S    
C188  C204  A    
O30   Zn12  S    
C196  C208  A    
C25   O69   S    
C180  C200  A    
O50   Zn8   S    
C170  O54   S    
C20   C23   A    
O23   Zn14  S    
C195  C207  A    
C91   H14   S    
C76   O46   A    
C150  C155  T    
C29   C65   A    
C51   O95   S    
C1    C64   S    
O36   Zn14  S    
C2    C63   S    
C26   C42   A    
C3    C62   S    
C176  C188  A    
C104  C136  A    
C5    C60   S    
O20   Zn5   S    
C108  C117  A    
C30   C46   A    
C174  N2    A    
C3    O11   A    
C169  O53   S    
O10   Zn11  S    
C171  N3    A    
C89   C104  A    
O93   H73   S    
O3    Zn14  S    
C19   H43   S    
C56   O100  S    
C17   H41   S    
C10   C186  A    
C85   C154  S    
C74   C165  S    
C27   C67   A    
C21   H45   S    
C14   C190  A    
C152  C153  T    
C141  C164  T    
C75   O23   A    
C73   O21   A    
O31   Zn9   S    
C76   O24   A    
C76   C163  S    
C112  C130  A    
O22   Zn11  S    
C147  C158  T    
C36   C72   A    
C119  H18   S    
O1    Zn5   S    
C13   H37   S    
C98   H7    S    
C38   C70   A    
C117  H20   S    
C106  C119  A    
C197  C205  A    
C47   O91   S    
O71   H51   S    
O84   H64   S    
O35   Zn13  S    
O41   Zn8   S    
C92   H13   S    
C92   C124  A    
O1    Zn12  S    
C8    O20   A    
O27   Zn10  S    
O3    Zn10  S    
C33   C49   A    
C96   H9    S    
C187  C203  A    
O48   Zn2   S    
O40   Zn5   S    
C96   C128  A    
C185  C201  A    
C40   O84   S    
C27   O71   S    
C115  H22   S    
C109  C116  A    
C111  C129  A    
C39   C55   A    
O78   H58   S    
C40   C56   A    
C109  C131  A    
C183  C195  A    
O76   H56   S    
C110  C132  A    
C88   O36   A    
C40   C72   A    
C34   C70   A    
C45   O89   S    
C31   C47   A    
C32   C48   A    
C6    C59   S    
O42   Zn7   S    
C35   O79   S    
C2    O6    A    
C100  H5    S    
C49   C61   A    
C207  C208  A    
C51   C63   A    
C122  C138  S    
C52   C64   A    
O25   Zn16  S    
C176  N4    A    
C54   C62   A    
C86   O34   A    
C126  C142  S    
C9    C14   A    
C108  C134  A    
C11   C16   A    
C38   C54   A    
C12   C15   A    
C98   C130  A    
C171  C191  A    
C41   O85   S    
O1    Zn1   S    
O3    Zn3   S    
C92   C101  A    
C180  O64   S    
O33   Zn15  S    
C15   H39   S    
O2    Zn15  S    
O8    Zn9   S    
C5    O17   A    
O44   Zn1   S    
C80   C167  S    
O87   H67   S    
O45   Zn3   S    
C22   C198  A    
O92   H72   S    
C84   O32   A    
C99   H6    S    
C99   C131  A    
C118  H19   S    
O12   Zn13  S    
C17   C22   A    
O14   Zn7   S    
C19   C24   A    
O43   Zn2   S    
C41   C57   A    
C107  C133  A    
C184  C196  A    
C176  O60   S    
O17   Zn4   S    
C53   O97   S    
C179  C199  A    
C44   C60   A    
C135  C151  S    
O2    Zn6   S    
C111  C114  A    
O34   Zn16  S    
C73   O47   A    
C93   C125  A    
O6    Zn15  S    
C74   O48   A    
C27   C43   A    
O16   Zn1   S    
C43   O87   S    
C181  N5    A    
O100  H80   S    
C25   C65   A    
C79   O49   A    
O81   H61   S    
C110  C115  A    
C181  O65   S    
C79   O27   A    
C134  C150  S    
C203  C204  A    
C19   C195  A    
C116  H21   S    
C201  C202  A    
C17   C193  A    
O96   H76   S    
C10   H34   S    
C67   N8    S    
O2    Zn2   S    
C95   C98   A    
O90   H70   S    
C205  C206  A    
C11   C187  A    
C38   O82   S    
C28   O72   S    
C149  C156  T    
C9    C185  A    
C77   O25   A    
C84   C155  S    
C151  C154  T    
C121  C137  S    
C12   C188  A    
C23   C199  A    
C95   H10   S    
C13   C189  A    
C87   C160  S    
C88   C159  S    
C103  C135  A    
O26   Zn15  S    
C81   O29   A    
C16   C192  A    
C83   O31   A    
O98   H78   S    
C184  O68   S    
C79   C168  S    
C172  N4    A    
C143  C162  T    
C1    O9    A    
C148  C157  T    
C178  C198  A    
C37   O81   S    
C116  C126  A    
C172  O56   S    
C169  N1    A    
C90   C122  A    
C53   C61   A    
C104  H1    S    
O1    Zn16  S    
C112  C113  A    
C8    O16   A    
C120  C122  A    
C48   C60   A    
O46   Zn4   S    
C94   C126  A    
C194  C206  A    
C34   C50   A    
C132  C148  S    
C133  C149  S    
C23   H47   S    
C145  C160  T    
C177  O61   S    
C146  C159  T    
C189  C201  A    
C71   N4    S    
C182  O66   S    
C175  C187  A    
C138  C167  T    
C75   O45   A    
C139  C166  T    
C102  C134  A    
O24   Zn13  S    
O13   Zn8   S    
C96   C97   A    
O49   Zn7   S    
O83   H63   S    
C30   C66   A    
C119  C121  A    
C78   C161  S    
O7    Zn10  S    
C175  O59   S    
O5    Zn16  S    
C50   C62   A    
C91   C102  A    
O79   H59   S    
C7    C58   S    
O19   Zn6   S    
C73   C166  S    
C10   C13   A    
C36   C52   A    
C113  C127  A    
C87   O41   A    
C144  C161  T    
O75   H55   S    
C170  C190  A    
C115  C125  A    
C32   C68   A    
C87   O35   A    
C117  C123  A    
C97   C129  A    
O11   Zn14  S    
C72   N3    S    
C174  C186  A    
C31   O75   S    
O89   H69   S    
C94   C99   A    
C18   H42   S    
C183  N7    A    
C105  H32   S    
O15   Zn2   S    
C22   H46   S    
C109  H28   S    
C177  C197  A    
C181  C193  A    
C120  H17   S    
C20   C196  A    
C68   N7    S    
O86   H66   S    
C175  N3    A    
C69   N2    S    
C14   H38   S    
