data_mof_unit_18067.cif
_audit_creation_date              2012-10-26T18:40:21-0400
_audit_creation_method            fapswitch 2.2
_symmetry_space_group_name_H-M    P1
_symmetry_Int_Tables_number       1
_space_group_crystal_system       triclinic
_cell_length_a                    8.693691
_cell_length_b                    15.110473
_cell_length_c                    13.894929
_cell_angle_alpha                 89.923472
_cell_angle_beta                  97.683846
_cell_angle_gamma                 91.032115
_cell_volume                      1808.63403301

loop_
_atom_site_label
_atom_site_type_symbol
_atom_type_description
_atom_site_fract_x
_atom_site_fract_y
_atom_site_fract_z
_atom_type_partial_charge
C1    C     C_R   0.500893 0.329806 0.500049 0.545648
C2    C     C_R   0.572474 0.569390 0.897589 -0.164234
C3    C     C_R   0.494861 0.502676 0.054100 -0.011477
C4    C     C_R   0.494974 0.502738 0.944881 -0.013736
C5    C     C_R   0.203827 0.500124 0.475232 0.538782
C6    C     C_R   0.796160 0.501303 0.524736 0.537483
C7    C     C_2   0.038025 0.499315 0.461504 -0.166375
C8    C     C_2   0.961906 0.504548 0.538277 -0.177000
C9    C     C_R   0.488148 0.092747 0.580931 -0.150328
C10   C     C_R   0.440575 0.905174 0.421473 -0.149336
C11   C     C_R   0.481496 0.184504 0.582082 -0.166576
C12   C     C_R   0.501397 0.669983 0.500026 0.536057
C13   C     C_R   0.434002 0.813321 0.421200 -0.174483
C14   C     C_R   0.507580 0.233198 0.499858 -0.041494
C15   C     C_R   0.508563 0.766280 0.500151 -0.036852
C16   C     C_R   0.542038 0.189139 0.416913 -0.112104
C17   C     C_R   0.592592 0.811462 0.578549 -0.110039
C18   C     C_R   0.556091 0.097519 0.416367 0.260369
C19   C     C_R   0.607396 0.903507 0.577304 0.262489
C20   C     C_R   0.525639 0.048388 0.498719 0.031336
C21   C     C_R   0.526800 0.951149 0.498920 0.028717
C22   C     C_3   0.743033 0.032532 0.338806 0.002248
C23   C     C_R   0.617039 0.542471 0.116595 -0.127958
C24   C     C_3   0.852782 0.112370 0.331375 -0.278187
C25   C     C_3   0.018321 0.082791 0.325561 -0.475670
C26   C     C_3   0.835357 0.976793 0.636062 0.009220
C27   C     C_3   0.952530 0.901787 0.636990 -0.279528
C28   C     C_3   0.112739 0.937317 0.621043 -0.479114
C29   C     C_3   0.745040 0.671859 0.268106 0.010329
C30   C     C_3   0.863248 0.710004 0.349587 -0.239642
C31   C     C_3   0.868673 0.810772 0.346778 -0.505300
C32   C     C_3   0.187538 0.361206 0.731692 0.002425
C33   C     C_3   0.143359 0.269153 0.766129 -0.283031
C34   C     C_R   0.419605 0.435021 0.886175 -0.126111
C35   C     C_3   0.967530 0.257491 0.760490 -0.472473
C36   C     C_R   0.616125 0.543008 0.218237 0.410396
C37   C     C_R   0.418840 0.435724 0.784273 0.421992
C38   C     C_R   0.380429 0.460255 0.199787 -0.001511
C39   C     C_R   0.574909 0.566268 0.796518 -0.002133
C40   C     C_R   0.374775 0.461638 0.097980 -0.163108
Cu1   Cu    Cu3+1 0.500000 0.499990 0.596430 0.976412
Cu2   Cu    Cu3+1 0.500000 0.500010 0.403570 0.972998
H1    H     H_    0.978478 0.493328 0.387827 0.168278
H2    H     H_    0.363698 0.380259 0.918685 0.095129
H3    H     H_    0.287791 0.427404 0.231499 0.131282
H4    H     H_    0.636517 0.617666 0.762207 0.124437
H5    H     H_    0.275697 0.431055 0.054363 0.098248
H6    H     H_    0.630387 0.624451 0.937846 0.097838
H7    H     H_    0.753017 0.987518 0.276939 0.157593
H8    H     H_    0.779827 0.994028 0.405696 0.118193
H9    H     H_    0.811141 0.151509 0.265544 0.175437
H10   H     H_    0.854307 0.155493 0.396200 0.149839
H11   H     H_    0.062612 0.043928 0.390968 0.141780
H12   H     H_    0.021440 0.511476 0.611858 0.116502
H13   H     H_    0.095306 0.141755 0.321545 0.158806
H14   H     H_    0.021965 0.041573 0.259799 0.148931
H15   H     H_    0.880507 0.025163 0.693570 0.154328
H16   H     H_    0.826428 0.014002 0.566723 0.118709
H17   H     H_    0.961741 0.866891 0.707928 0.171870
H18   H     H_    0.912338 0.853324 0.578622 0.149598
H19   H     H_    0.106549 0.971118 0.549699 0.141298
H20   H     H_    0.194622 0.881659 0.621837 0.162456
H21   H     H_    0.158056 0.984727 0.679500 0.146466
H22   H     H_    0.629256 0.700565 0.273792 0.145531
H23   H     H_    0.461603 0.056211 0.643958 0.157509
H24   H     H_    0.781880 0.690850 0.197123 0.106874
H25   H     H_    0.831738 0.688401 0.421044 0.178792
H26   H     H_    0.980338 0.684508 0.342364 0.164750
H27   H     H_    0.898398 0.834361 0.275686 0.141090
H28   H     H_    0.958306 0.836287 0.405037 0.141527
H29   H     H_    0.754259 0.836948 0.358661 0.156756
H30   H     H_    0.128890 0.370020 0.656447 0.164288
H31   H     H_    0.142192 0.412912 0.777396 0.101753
H32   H     H_    0.187657 0.218024 0.719886 0.164957
H33   H     H_    0.197522 0.259074 0.842292 0.155608
H34   H     H_    0.375863 0.940451 0.361799 0.159068
H35   H     H_    0.920476 0.307108 0.807206 0.158391
H36   H     H_    0.939290 0.190213 0.786027 0.145421
H37   H     H_    0.911192 0.265242 0.684388 0.154169
H38   H     H_    0.453503 0.217081 0.646685 0.174685
H39   H     H_    0.367476 0.779042 0.360508 0.127854
H40   H     H_    0.561461 0.225794 0.352425 0.145831
H41   H     H_    0.650705 0.775165 0.639825 0.126058
H42   H     H_    0.715912 0.571298 0.087624 0.093098
N1    N     N_R   0.500000 0.500020 0.258690 -0.212077
N2    N     N_R   0.500000 0.499980 0.741310 -0.211564
O1    O     O_R   0.500010 0.371450 0.581430 -0.443871
O2    O     O_3   0.689353 0.945285 0.657562 -0.585396
O3    O     O_3   0.741333 0.578923 0.277849 -0.552898
O4    O     O_3   0.349650 0.366370 0.728581 -0.551336
O5    O     O_R   0.499990 0.628550 0.418570 -0.494306
O6    O     O_R   0.500010 0.371460 0.418560 -0.517504
O7    O     O_R   0.499990 0.628540 0.581440 -0.517657
O8    O     O_R   0.274840 0.499990 0.562640 -0.484596
O9    O     O_R   0.725160 0.500010 0.437360 -0.443173
O10   O     O_R   0.274840 0.500000 0.399770 -0.514670
O11   O     O_R   0.725160 0.500000 0.600230 -0.514075
O12   O     O_3   0.585725 0.057434 0.331302 -0.587004

loop_
_geom_bond_atom_site_label_1
_geom_bond_atom_site_label_2
_ccdc_geom_bond_type
C36   O3    S    
C24   H10   S    
C40   H5    S    
C1    O1    A    
C22   O12   S    
C34   C37   A    
Cu1   Cu2   S    
C12   O5    A    
C3    C23   A    
C25   H14   S    
C29   O3    S    
C5    O8    A    
C7    C8    D    
C32   H30   S    
Cu1   N2    S    
C26   C27   S    
C37   O4    S    
Cu2   O10   S    
C22   C24   S    
C19   C21   A    
C25   H11   S    
C27   H18   S    
C30   C31   S    
C11   C14   A    
C13   H39   S    
C18   C20   A    
Cu2   O5    S    
C38   H3    S    
C33   C35   S    
C10   H34   S    
C2    C39   A    
C33   H33   S    
C31   H28   S    
C32   O4    S    
C7    H1    S    
Cu2   O6    S    
C30   H25   S    
C22   H8    S    
C28   H19   S    
C24   H9    S    
C31   H29   S    
C29   H22   S    
C10   C21   A    
Cu1   O1    S    
C4    C34   A    
C23   H42   S    
C38   N1    A    
Cu2   O9    S    
C6    O11   A    
C37   N2    A    
C34   H2    S    
C24   C25   S    
C19   O2    S    
C8    H12   S    
C32   H31   S    
C5    C7    S    
C6    C8    S    
C2    H6    S    
C35   H35   S    
C17   H41   S    
C2    C4    A    
C29   C30   S    
C9    C11   A    
C9    C20   A    
Cu1   O8    S    
C12   C15   S    
C16   H40   S    
Cu2   N1    S    
C26   H16   S    
C22   H7    S    
C26   O2    S    
C3    C40   A    
C23   C36   A    
C1    O6    A    
C13   C15   A    
C14   C16   A    
C12   O7    A    
C3    C4    S    
C5    O10   A    
C15   C17   A    
C25   H13   S    
C10   C13   A    
C36   N1    A    
C35   H36   S    
Cu1   O7    S    
C32   C33   S    
C27   H17   S    
C38   C40   A    
C35   H37   S    
C17   C19   A    
C39   H4    S    
Cu1   O11   S    
C26   H15   S    
C9    H23   S    
C11   H38   S    
C29   H24   S    
C28   H21   S    
C33   H32   S    
C31   H27   S    
C20   C21   S    
C16   C18   A    
C6    O9    A    
C27   C28   S    
C1    C14   S    
C18   O12   S    
C39   N2    A    
C30   H26   S    
C28   H20   S    
