data_mof_unit_37090.cif
_audit_creation_date              2012-12-10T17:50:39-0500
_audit_creation_method            fapswitch 2.2
_symmetry_space_group_name_H-M    P1
_symmetry_Int_Tables_number       1
_space_group_crystal_system       triclinic
_cell_length_a                    15.706764
_cell_length_b                    10.63404
_cell_length_c                    9.933963
_cell_angle_alpha                 89.958589
_cell_angle_beta                  89.942616
_cell_angle_gamma                 91.706743
_cell_volume                      1658.49624571

loop_
_atom_site_label
_atom_site_type_symbol
_atom_type_description
_atom_site_fract_x
_atom_site_fract_y
_atom_site_fract_z
_atom_type_partial_charge
C1    C     C_R   0.502390 0.260770 0.500078 0.845554
C2    C     C_R   0.710409 0.074530 0.688820 -0.137823
C3    C     C_R   0.710358 0.943685 0.689001 -0.143590
C4    C     C_R   0.338021 0.499382 0.500039 0.891240
C5    C     C_R   0.644182 0.875136 0.627266 -0.189240
C6    C     C_R   0.576005 0.937328 0.565461 0.095570
C7    C     C_R   0.575967 0.069221 0.565517 0.098633
C8    C     C_R   0.508453 0.128688 0.499818 -0.086484
C9    C     C_R   0.444964 0.061784 0.430683 -0.217537
C10   C     C_R   0.445039 0.933341 0.430434 -0.199347
C11   C     C_R   0.508614 0.871994 0.499507 -0.098929
C12   C     C_3   0.082544 0.495647 0.500284 0.210301
C13   C     C_R   0.387302 0.336479 0.139960 -0.158070
C14   C     C_R   0.330674 0.256390 0.070136 0.227075
C15   C     C_R   0.331848 0.256081 0.930316 -0.210401
C16   C     C_R   0.502650 0.739405 0.499920 0.865626
C17   C     C_R   0.387994 0.335826 0.860457 -0.199296
C18   C     C_R   0.444781 0.419085 0.927903 0.169974
C19   C     C_R   0.444653 0.419220 0.072268 0.120494
C20   C     C_R   0.552905 0.577355 0.071272 -0.101335
C21   C     C_R   0.552852 0.577375 0.928297 -0.107356
C22   C     C_R   0.661976 0.500217 0.499968 0.878629
C23   C     C_3   0.973821 0.593253 0.574239 -0.166908
C24   C     C_3   0.969330 0.387361 0.553266 -0.167836
C25   C     C_3   0.026048 0.398577 0.426115 -0.164950
C26   C     C_1   0.248954 0.497677 0.500177 -0.185329
C27   C     C_1   0.750981 0.498790 0.499916 -0.190868
C28   C     C_3   0.027674 0.484418 0.627424 -0.165000
C29   C     C_3   0.268464 0.171138 0.143777 -0.947487
C30   C     C_3   0.917290 0.496236 0.500084 0.211155
C31   C     C_3   0.030453 0.604458 0.447121 -0.163066
C32   C     C_3   0.972166 0.507431 0.372956 -0.160731
C33   C     C_1   0.173531 0.496358 0.500263 -0.083117
C34   C     C_1   0.826346 0.497414 0.499979 -0.085191
C35   C     C_R   0.644195 0.137300 0.627155 -0.172312
H1    H     H_    0.049662 0.319066 0.365603 0.132723
H2    H     H_    0.942068 0.298698 0.596617 0.129626
H3    H     H_    0.947299 0.516845 0.268975 0.132838
H4    H     H_    0.057613 0.693168 0.403749 0.132361
H5    H     H_    0.950270 0.672820 0.634726 0.129169
H6    H     H_    0.052565 0.474994 0.731391 0.133908
H7    H     H_    0.394256 0.109303 0.379397 0.146261
H8    H     H_    0.647942 0.238910 0.626482 0.153370
H9    H     H_    0.762367 0.127612 0.735342 0.132835
H10   H     H_    0.271817 0.185356 0.254386 0.225914
H11   H     H_    0.202631 0.190604 0.110715 0.244564
H12   H     H_    0.762248 0.895126 0.735753 0.130754
H13   H     H_    0.282251 0.071518 0.121301 0.249155
H14   H     H_    0.647940 0.773796 0.626604 0.141904
H15   H     H_    0.394338 0.881384 0.378853 0.154507
H16   H     H_    0.596152 0.640677 0.124669 0.145538
H17   H     H_    0.384820 0.331503 0.246726 0.202234
H18   H     H_    0.288700 0.193982 0.874773 0.156373
H19   H     H_    0.384733 0.329704 0.753706 0.213250
H20   H     H_    0.596039 0.640746 0.874573 0.142949
N1    N     N_R   0.499210 0.498800 0.142780 -0.115189
N2    N     N_R   0.499180 0.498720 0.857170 -0.114848
O1    O     O_R   0.500000 0.316780 0.614690 -0.640268
O2    O     O_R   0.499990 0.316750 0.385360 -0.629409
O3    O     O_R   0.376780 0.500000 0.614650 -0.626231
O4    O     O_R   0.376770 0.499980 0.385310 -0.631798
O5    O     O_R   0.500010 0.683250 0.614640 -0.614868
O6    O     O_R   0.500000 0.683220 0.385310 -0.612088
O7    O     O_R   0.623230 0.500020 0.614690 -0.627371
O8    O     O_R   0.623220 0.500000 0.385350 -0.605726
Zn1   Zn    Zn3+2 0.500010 0.500020 0.653130 0.933999
Zn2   Zn    Zn3+2 0.499990 0.499980 0.346870 0.941518

loop_
_geom_bond_atom_site_label_1
_geom_bond_atom_site_label_2
_ccdc_geom_bond_type
C2    C35   A    
C19   N1    A    
C29   H11   S    
C4    C26   S    
C22   O8    A    
C21   N2    A    
C6    C7    A    
C16   O6    A    
C32   H3    S    
N1    Zn2   S    
C35   H8    S    
C9    C10   A    
N2    Zn1   S    
C26   C33   T    
C31   C32   S    
C12   C25   S    
C20   N1    A    
C30   C34   S    
C4    O3    A    
C25   C32   S    
C17   C18   A    
C12   C33   S    
O3    Zn1   S    
C7    C8    A    
C27   C34   T    
C13   C14   A    
C24   C25   S    
C30   C32   S    
C17   H19   S    
C5    H14   S    
C9    H7    S    
C16   O5    A    
C12   C28   S    
C15   H18   S    
C3    H12   S    
C31   H4    S    
C24   H2    S    
C20   H16   S    
C24   C30   S    
C22   C27   S    
C1    O2    A    
C12   C31   S    
C5    C6    A    
O6    Zn2   S    
O8    Zn2   S    
C10   C11   A    
O5    Zn1   S    
C13   H17   S    
C22   O7    A    
C23   H5    S    
C10   H15   S    
C23   C30   S    
C1    O1    A    
C28   H6    S    
C29   H13   S    
C20   C21   A    
C21   H20   S    
C18   C19   A    
C11   C16   S    
C2    H9    S    
C6    C11   A    
C15   C17   A    
O4    Zn2   S    
C14   C15   A    
C8    C9    A    
C13   C19   A    
C2    C3    A    
C18   N2    A    
O2    Zn2   S    
C25   H1    S    
C23   C28   S    
C7    C35   A    
C4    O4    A    
O1    Zn1   S    
C24   C28   S    
C1    C8    S    
C29   H10   S    
C14   C29   S    
C3    C5    A    
C23   C31   S    
O7    Zn1   S    
