data_mof_unit_35612.cif
_audit_creation_date              2012-12-10T18:11:38-0500
_audit_creation_method            fapswitch 2.2
_symmetry_space_group_name_H-M    P1
_symmetry_Int_Tables_number       1
_space_group_crystal_system       triclinic
_cell_length_a                    10.564436
_cell_length_b                    12.699846
_cell_length_c                    13.214602
_cell_angle_alpha                 81.128759
_cell_angle_beta                  93.091731
_cell_angle_gamma                 103.971232
_cell_volume                      1699.67062417

loop_
_atom_site_label
_atom_site_type_symbol
_atom_type_description
_atom_site_fract_x
_atom_site_fract_y
_atom_site_fract_z
_atom_type_partial_charge
C1    C     C_R   0.476991 0.438194 0.690840 0.929955
C2    C     C_R   0.482099 0.449615 0.971793 -0.071881
C3    C     C_R   0.445291 0.471623 0.867957 0.022103
C4    C     C_R   0.742571 0.502655 0.499652 0.998272
C5    C     C_R   0.490976 0.534246 0.031968 0.137444
C6    C     C_R   0.493559 0.642789 0.986586 0.099051
C7    C     C_R   0.438195 0.657699 0.888534 -0.108282
C8    C     C_R   0.405062 0.569994 0.833078 -0.066170
C9    C     C_R   0.483457 0.512488 0.136819 -0.167892
C10   C     C_R   0.584974 0.702262 0.147368 -0.177984
C11   C     C_R   0.456572 0.398184 0.800607 -0.335699
C12   C     C_3   0.056530 0.558345 0.417296 0.566306
C13   C     C_R   0.282468 0.074671 0.379368 -0.250683
C14   C     C_R   0.656736 0.800826 0.632206 0.083402
C15   C     C_R   0.680265 0.900911 0.668689 -0.244528
C16   C     C_R   0.519441 0.561199 0.308468 0.963546
C17   C     C_R   0.611703 0.977875 0.628990 -0.079702
C18   C     C_R   0.520313 0.957405 0.549341 0.039138
C19   C     C_R   0.496552 0.853083 0.514099 0.130946
C20   C     C_R   0.452995 0.036847 0.500770 -0.114420
C21   C     C_R   0.343006 0.000308 0.438393 0.048150
C22   C     C_R   0.306172 0.891606 0.421998 -0.177612
C23   C     C_3   0.997233 0.603848 0.499390 -0.135835
C24   C     C_R   0.399732 0.830642 0.437531 -0.030691
C25   C     C_R   0.493102 0.151360 0.505065 0.746015
C26   C     C_R   0.332393 0.186075 0.378593 0.004138
C27   C     C_R   0.257531 0.497136 0.500569 0.977775
C28   C     C_3   0.943283 0.438211 0.586168 -0.141878
C29   C     C_3   0.062771 0.536899 0.585355 -0.269659
C30   C     C_3   0.121400 0.491861 0.501583 -0.290001
C31   C     C_3   0.004082 0.392969 0.503722 -0.219322
C32   C     C_3   0.938740 0.460453 0.419369 0.619815
C33   C     C_2   0.587608 0.326193 0.106788 1.029756
C34   C     C_3   0.878760 0.505973 0.501402 -0.311645
C35   C     C_2   0.279922 0.259262 0.297764 0.946311
C36   C     C_2   0.726518 0.721344 0.686574 1.007865
C37   C     C_2   0.875010 0.375912 0.681609 1.033367
C38   C     C_2   0.435514 0.807647 0.339490 0.985369
C39   C     C_2   0.010851 0.276199 0.504847 1.078472
C40   C     C_2   0.005517 0.723859 0.494463 1.075998
C41   C     C_2   0.700719 0.772831 0.193546 1.075043
C42   C     C_2   0.557726 0.846020 0.998342 1.023565
C43   C     C_R   0.545066 0.729804 0.044162 -0.154879
C44   C     C_R   0.529247 0.595262 0.196955 -0.112239
C45   C     C_R   0.471063 0.292576 0.840711 0.536741
C46   C     C_R   0.497771 0.266934 0.944305 0.580939
C47   C     C_R   0.515782 0.347304 0.008836 -0.293462
F1    F     F_    0.472621 0.217021 0.778657 -0.579275
F2    F     F_    0.523672 0.167644 0.978529 -0.550367
F3    F     F_    0.595607 0.195362 0.563306 -0.632085
F4    F     F_    0.873339 0.423690 0.333246 -0.559219
F5    F     F_    0.113738 0.617483 0.328151 -0.579071
H1    H     H_    0.116286 0.566751 0.654019 0.204403
H2    H     H_    0.224718 0.286696 0.149139 0.352762
H3    H     H_    0.748267 0.620996 0.816989 0.368152
H4    H     H_    0.778722 0.381648 0.807581 0.346581
H5    H     H_    0.371215 0.752102 0.206263 0.354833
H6    H     H_    0.963510 0.141460 0.434739 0.335774
H7    H     H_    0.958051 0.859629 0.418877 0.335329
H8    H     H_    0.832349 0.918354 0.186911 0.367133
H9    H     H_    0.611579 0.964358 0.877939 0.379185
H10   H     H_    0.442022 0.429369 0.170899 0.167729
H11   H     H_    0.355519 0.582521 0.759977 0.149010
H12   H     H_    0.225764 0.867988 0.368915 0.199431
H13   H     H_    0.201977 0.046322 0.327943 0.192047
H14   H     H_    0.627975 0.049890 0.665911 0.254475
H15   H     H_    0.750392 0.918425 0.730440 0.214447
H16   H     H_    0.418876 0.735526 0.854674 0.170542
H17   H     H_    0.605560 0.221276 0.234994 0.360434
N1    N     N_R   0.432930 0.222190 0.444670 -0.189569
N2    N     N_R   0.566370 0.776980 0.554790 -0.173708
O1    O     O_R   0.467970 0.366730 0.627150 -0.520267
O2    O     O_R   0.549466 0.225722 0.170471 -0.690334
O3    O     O_2   0.243675 0.337765 0.317150 -0.574080
O4    O     O_R   0.263673 0.232812 0.198195 -0.772921
O5    O     O_2   0.825065 0.709719 0.650714 -0.588605
O6    O     O_R   0.690391 0.671018 0.785684 -0.780033
O7    O     O_2   0.862923 0.276857 0.701830 -0.555079
O8    O     O_R   0.824150 0.432043 0.746376 -0.801909
O9    O     O_2   0.544081 0.851854 0.306524 -0.599410
O10   O     O_R   0.340710 0.749267 0.278064 -0.722250
O11   O     O_2   0.068588 0.231540 0.574835 -0.588550
O12   O     O_R   0.510820 0.544830 0.662520 -0.645574
O13   O     O_R   0.951562 0.219236 0.425775 -0.722885
O14   O     O_2   0.068318 0.773867 0.559871 -0.597074
O15   O     O_R   0.944537 0.778730 0.414106 -0.728220
O16   O     O_2   0.755078 0.734463 0.269274 -0.552533
O17   O     O_R   0.752957 0.880661 0.148295 -0.730591
O18   O     O_2   0.524300 0.909020 0.046906 -0.491889
O19   O     O_R   0.608170 0.883691 0.900343 -0.796240
O20   O     O_R   0.664630 0.410960 0.482340 -0.551570
O21   O     O_R   0.707470 0.589060 0.517710 -0.583986
O22   O     O_R   0.489180 0.455170 0.337480 -0.618051
O23   O     O_R   0.532030 0.633270 0.372850 -0.603019
O24   O     O_R   0.292530 0.410940 0.482290 -0.577514
O25   O     O_R   0.335370 0.589040 0.517660 -0.645360
O26   O     O_2   0.682284 0.395421 0.130318 -0.549581
Zn1   Zn    Zn3+2 0.471390 0.381080 0.476380 1.099151
Zn2   Zn    Zn3+2 0.528610 0.618920 0.523620 1.014379

loop_
_geom_bond_atom_site_label_1
_geom_bond_atom_site_label_2
_ccdc_geom_bond_type
C35   O3    D    
C14   N2    A    
C19   N2    A    
C1    C11   S    
H8    O17   S    
O24   Zn1   S    
C7    C8    A    
O1    Zn1   S    
C45   C46   A    
C37   O8    S    
C12   C23   S    
C35   O4    S    
C16   O22   A    
H4    O8    S    
C29   H1    S    
C23   C29   S    
C22   C24   A    
C28   C29   S    
C39   O13   S    
C36   O6    S    
C14   C36   S    
C30   C31   S    
H3    O6    S    
C20   C25   A    
C23   C40   S    
O25   Zn2   S    
C18   C19   A    
C40   O15   S    
C25   F3    S    
C36   O5    D    
C7    H16   S    
C27   O24   A    
C24   C38   S    
H17   O2    S    
C16   C44   S    
C18   C20   A    
C4    O20   A    
C28   C34   S    
O12   Zn2   S    
C21   C22   A    
C12   C32   S    
C10   C41   S    
C27   O25   A    
C12   F5    S    
C41   O16   D    
C4    C34   S    
C1    O1    A    
C10   C44   A    
C9    H10   S    
C3    C8    A    
C27   C30   S    
C13   H13   S    
N2    Zn2   S    
C42   O19   S    
C32   C34   S    
C40   O14   D    
C32   F4    S    
C5    C9    A    
C29   C30   S    
H6    O13   S    
C31   C32   S    
C46   F2    S    
C23   C34   S    
C15   H15   S    
C17   C18   A    
C17   H14   S    
C13   C21   A    
C33   O2    S    
C6    C43   A    
C38   O10   S    
C33   C47   S    
H5    O10   S    
C13   C26   A    
C11   C45   A    
C2    C5    A    
C42   C43   S    
H9    O19   S    
C45   F1    S    
C15   C17   A    
C41   O17   S    
C46   C47   A    
C9    C44   A    
C12   C30   S    
C10   C43   A    
C28   C31   S    
C39   O11   D    
C6    C7    A    
C2    C47   A    
C1    O12   A    
C37   O7    D    
C16   O23   A    
C42   O18   D    
O23   Zn2   S    
C2    C3    A    
H7    O15   S    
C5    C6    A    
C38   O9    D    
C28   C37   S    
C26   N1    A    
C31   C39   S    
C19   C24   A    
C33   O26   D    
O20   Zn1   S    
C3    C11   A    
C8    H11   S    
C22   H12   S    
H2    O4    S    
C26   C35   S    
C20   C21   A    
C14   C15   A    
C25   N1    A    
O22   Zn1   S    
N1    Zn1   S    
O21   Zn2   S    
C4    O21   A    
