data_mof_unit_61037.cif
_audit_creation_date              2012-12-11T14:24:10-0500
_audit_creation_method            fapswitch 2.2
_symmetry_space_group_name_H-M    P1
_symmetry_Int_Tables_number       1
_space_group_crystal_system       triclinic
_cell_length_a                    6.951324
_cell_length_b                    17.458876
_cell_length_c                    18.889294
_cell_angle_alpha                 105.263229
_cell_angle_beta                  89.653311
_cell_angle_gamma                 90.436325
_cell_volume                      2211.50213747

loop_
_atom_site_label
_atom_site_type_symbol
_atom_type_description
_atom_site_fract_x
_atom_site_fract_y
_atom_site_fract_z
_atom_type_partial_charge
O1    O     O_R   0.494360 0.416740 0.414860 -0.532775
O2    O     O_R   0.818980 0.432970 0.557290 -0.528955
O3    O     O_R   0.994290 0.583260 0.585140 -0.542932
C1    C     C_R   0.649958 0.415935 0.580608 0.727989
O4    O     O_R   0.823740 0.407570 0.413690 -0.528227
O5    O     O_R   0.999090 0.557670 0.440510 -0.528161
C2    C     C_R   0.655370 0.386842 0.385915 0.806889
O6    O     O_R   0.489560 0.442330 0.559490 -0.531209
O7    O     O_3   0.662450 0.549280 0.508970 -0.359663
V1    V     V_3+5 0.935350 0.490860 0.498340 1.547154
O8    O     O_R   0.329100 0.567030 0.442710 -0.523361
C3    C     C_R   0.161015 0.583955 0.419293 0.724318
O9    O     O_R   0.324330 0.592430 0.586310 -0.500242
C4    C     C_R   0.155092 0.615006 0.613514 0.813082
V2    V     V_3+5 0.435960 0.509140 0.501660 1.572486
O10   O     O_3   0.158990 0.450720 0.491030 -0.368264
C5    C     C_2   0.281178 0.788698 0.784494 0.558889
C6    C     C_2   0.115809 0.816739 0.819979 -0.491686
H1    H     H_    0.978915 0.789308 0.800835 0.141823
C7    C     C_2   0.293392 0.719884 0.717977 0.563890
C8    C     C_2   0.139828 0.682937 0.679821 -0.497983
H2    H     H_    0.995301 0.702485 0.696742 0.140019
C9    C     C_1   0.110643 0.863762 0.132504 -0.170866
C10   C     C_1   0.118249 0.821183 0.176057 0.027983
C11   C     C_1   0.127855 0.770926 0.227911 0.026086
C12   C     C_1   0.136069 0.728609 0.271681 0.024680
C13   C     C_1   0.145649 0.678384 0.323561 0.028161
C14   C     C_1   0.153212 0.635854 0.367158 -0.159278
C15   C     C_1   0.641265 0.364009 0.632654 -0.175190
C16   C     C_1   0.636889 0.321433 0.676237 0.023981
C17   C     C_1   0.633229 0.271212 0.728141 0.021869
C18   C     C_1   0.630466 0.228905 0.771967 0.022074
C19   C     C_1   0.626809 0.178677 0.823865 0.024339
C20   C     C_1   0.622439 0.136088 0.867436 -0.176398
C21   C     C_2   0.759848 0.200086 0.231360 0.408265
C22   C     C_2   0.608414 0.173950 0.186395 -0.328612
H3    H     H_    0.467490 0.196492 0.205893 0.200299
C23   C     C_2   0.727318 0.257234 0.303850 0.386838
C24   C     C_2   0.649749 0.330068 0.313128 0.101441
O11   O     O_R   0.774180 0.057760 0.940580 -0.531548
O12   O     O_R   0.439830 0.092440 0.086330 -0.512789
O13   O     O_R   0.264640 0.942310 0.059470 -0.533577
C25   C     C_R   0.608134 0.112694 0.115134 0.816272
O14   O     O_R   0.444740 0.067040 0.942730 -0.532316
O15   O     O_R   0.269590 0.916730 0.914840 -0.504838
C26   C     C_R   0.613764 0.084132 0.919454 0.721731
O16   O     O_R   0.769230 0.083340 0.085210 -0.495534
O17   O     O_3   0.601340 0.950770 0.991070 -0.370039
V3    V     V_3+5 0.328370 0.009130 0.001660 1.621257
O18   O     O_R   0.939550 0.907490 0.913620 -0.541052
C27   C     C_R   0.108804 0.884914 0.886424 0.798435
O19   O     O_R   0.934640 0.932890 0.057220 -0.530124
C28   C     C_R   0.102783 0.915731 0.080430 0.756925
V4    V     V_3+5 0.827780 0.990750 0.998250 1.590607
O20   O     O_3   0.104690 0.049230 0.008930 -0.340177
F1    F     F_    0.451866 0.823434 0.810224 -0.636984
F2    F     F_    0.473932 0.694958 0.695218 -0.637399
S1    S     S_3+6 0.997995 0.164683 0.212883 0.085773
O21   O     O_2   0.000429 0.076212 0.201321 -0.329020
O22   O     O_2   0.072929 0.184847 0.145151 -0.305951
O23   O     O_3   0.142428 0.206403 0.283956 -0.457604
H4    H     H_    0.140715 0.264006 0.287516 0.361714
F3    F     F_    0.793091 0.236093 0.363790 -0.647267
S2    S     S_3+6 0.577545 0.368706 0.239441 -0.015343
O24   O     O_2   0.714857 0.343320 0.175912 -0.313241
O25   O     O_2   0.378540 0.339515 0.215202 -0.324156
O26   O     O_3   0.575325 0.468479 0.267857 -0.514272
H5    H     H_    0.523271 0.485823 0.225933 0.371764

loop_
_geom_bond_atom_site_label_1
_geom_bond_atom_site_label_2
_ccdc_geom_bond_type
O14   V3    S    
O5    V1    S    
O17   V3    S    
O2    C1    A    
O8    C3    A    
C10   C11   S    
C15   C16   T    
O1    V2    S    
O7    V1    S    
V4    O20   S    
O11   V4    S    
C1    C15   S    
O15   V3    S    
C9    C10   T    
V3    O20   S    
S2    O24   D    
O23   H4    S    
S1    O23   S    
O9    V2    S    
C5    C6    D    
O7    V2    S    
O4    V1    S    
O3    V1    S    
O1    C2    A    
O9    C4    A    
C18   C19   S    
O11   C26   A    
C24   S2    S    
O12   C25   A    
C5    F1    S    
S2    O25   D    
C12   C13   S    
O18   V4    S    
O3    C4    A    
C25   O16   A    
C3    C14   S    
C21   S1    S    
C20   C26   S    
C4    C8    S    
O12   V3    S    
C22   H3    S    
C11   C12   T    
O19   V4    S    
C6    C27   S    
C9    C28   S    
O6    V2    S    
C7    F2    S    
O16   V4    S    
O13   C28   A    
O5    C3    A    
C16   C17   S    
V2    O10   S    
O15   C27   A    
O13   V3    S    
S1    O22   D    
O26   H5    S    
O2    V1    S    
S2    O26   S    
O17   V4    S    
C13   C14   T    
C5    C7    S    
C19   C20   T    
O19   C28   A    
C7    C8    D    
C23   F3    S    
C1    O6    A    
O4    C2    A    
C2    C24   S    
C21   C23   S    
C6    H1    S    
C22   C25   S    
V1    O10   S    
O18   C27   A    
S1    O21   D    
C8    H2    S    
O8    V2    S    
C17   C18   T    
C21   C22   D    
O14   C26   A    
C23   C24   D    
