data_mof_unit_46455.cif
_audit_creation_date              2012-12-11T17:33:25-0500
_audit_creation_method            fapswitch 2.2
_symmetry_space_group_name_H-M    P1
_symmetry_Int_Tables_number       1
_space_group_crystal_system       triclinic
_cell_length_a                    6.94353
_cell_length_b                    21.935358
_cell_length_c                    22.062723
_cell_angle_alpha                 107.59101
_cell_angle_beta                  89.818954
_cell_angle_gamma                 91.391661
_cell_volume                      3202.23536044

loop_
_atom_site_label
_atom_site_type_symbol
_atom_type_description
_atom_site_fract_x
_atom_site_fract_y
_atom_site_fract_z
_atom_type_partial_charge
O1    O     O_R   0.505730 0.449200 0.552060 -0.540313
O2    O     O_R   0.171560 0.427840 0.423150 -0.537954
O3    O     O_R   0.005630 0.550800 0.447940 -0.541327
C1    C     C_R   0.338594 0.408275 0.399615 0.729365
O4    O     O_R   0.175730 0.441570 0.550050 -0.541059
O5    O     O_R   0.009820 0.564620 0.575740 -0.541942
C2    C     C_R   0.343734 0.428060 0.568451 0.689229
O6    O     O_R   0.501530 0.435380 0.424260 -0.528517
O7    O     O_3   0.340640 0.540360 0.508280 -0.372350
V1    V     V_3+5 0.064080 0.492510 0.498460 1.395454
O8    O     O_R   0.680360 0.572160 0.576850 -0.542546
C3    C     C_R   0.850177 0.589588 0.601318 0.731329
O9    O     O_R   0.676190 0.558430 0.449950 -0.540126
C4    C     C_R   0.847713 0.571821 0.431131 0.723302
V2    V     V_3+5 0.564610 0.507490 0.501540 1.398121
O10   O     O_3   0.837920 0.459640 0.491720 -0.364798
C5    C     C_R   0.070388 0.862488 0.204584 0.421227
C6    C     C_R   0.082379 0.893671 0.157514 -0.304998
H1    H     H_    0.209273 0.922747 0.155710 0.166976
C7    C     C_R   0.930490 0.889857 0.114226 -0.123057
C8    C     C_R   0.761833 0.852637 0.118661 0.129103
C9    C     C_R   0.754839 0.820119 0.164682 -0.118051
H2    H     H_    0.630589 0.789954 0.166751 0.191673
C10   C     C_R   0.905287 0.824932 0.207744 -0.049583
C11   C     C_1   0.890562 0.786679 0.251107 0.200388
C12   C     C_1   0.880485 0.750741 0.283395 0.174411
C13   C     C_R   0.019050 0.656373 0.307310 0.440866
C14   C     C_R   0.023126 0.615742 0.347439 -0.001716
C15   C     C_R   0.865464 0.616007 0.390271 -0.114558
C16   C     C_R   0.720738 0.660961 0.395487 -0.221189
H3    H     H_    0.601806 0.663455 0.427978 0.139960
C17   C     C_R   0.730463 0.705447 0.361723 -0.121122
H4    H     H_    0.620429 0.741161 0.369419 0.189800
C18   C     C_R   0.877271 0.703727 0.317834 -0.051662
C19   C     C_R   0.861775 0.642381 0.662411 -0.134971
C20   C     C_R   0.933914 0.857970 0.837275 -0.170925
C21   C     C_R   0.979367 0.818838 0.723118 -0.240597
C22   C     C_R   0.985361 0.869238 0.779924 0.441180
C23   C     C_R   0.874011 0.796153 0.836047 -0.288235
C24   C     C_R   0.871174 0.743866 0.778920 0.079771
C25   C     C_R   0.925716 0.755607 0.721185 0.034172
C26   C     C_R   0.925418 0.704516 0.662912 0.068018
C27   C     C_R   0.804395 0.630387 0.719709 0.065409
C28   C     C_R   0.815290 0.680682 0.778552 0.126032
H5    H     H_    0.016818 0.830420 0.680457 0.164520
H6    H     H_    0.830633 0.790194 0.880794 0.131179
C29   C     C_R   0.338045 0.352762 0.340029 -0.151267
C30   C     C_R   0.454678 0.144722 0.161621 -0.090654
C31   C     C_R   0.569375 0.195866 0.269916 -0.048578
C32   C     C_R   0.560873 0.141665 0.215554 0.109968
C33   C     C_R   0.356161 0.201627 0.164167 0.116433
C34   C     C_R   0.329675 0.249031 0.224408 -0.051839
C35   C     C_R   0.454908 0.248928 0.275147 0.058355
C36   C     C_R   0.465248 0.302112 0.330928 -0.151425
C37   C     C_R   0.192294 0.346675 0.294704 -0.232954
C38   C     C_R   0.185228 0.296531 0.237379 0.446442
H7    H     H_    0.568533 0.303203 0.368013 0.125938
H8    H     H_    0.077922 0.380523 0.304824 0.179040
H9    H     H_    0.660980 0.196641 0.309689 0.120437
C39   C     C_R   0.594287 0.207014 0.862108 0.472025
C40   C     C_R   0.597753 0.163733 0.898173 -0.227568
H10   H     H_    0.714512 0.167136 0.931568 0.175470
C41   C     C_R   0.448452 0.117952 0.893531 -0.146228
C42   C     C_R   0.295357 0.116096 0.851626 -0.053937
H11   H     H_    0.175011 0.083288 0.848430 0.221144
C43   C     C_R   0.297921 0.155437 0.812056 -0.100213
H12   H     H_    0.181599 0.150504 0.778185 0.171873
C44   C     C_R   0.446815 0.200983 0.816299 -0.015250
C45   C     C_1   0.441384 0.240152 0.773279 0.072362
C46   C     C_1   0.427073 0.271501 0.736466 -0.043910
C47   C     C_R   0.550100 0.318046 0.654290 -0.197419
H13   H     H_    0.684195 0.295270 0.654579 0.137051
C48   C     C_R   0.531287 0.356410 0.614544 -0.165997
H14   H     H_    0.655362 0.363156 0.587167 0.135029
C49   C     C_R   0.355705 0.385048 0.609539 -0.076394
C50   C     C_R   0.197420 0.372608 0.644616 -0.199545
H15   H     H_    0.059280 0.392706 0.640111 0.119083
C51   C     C_R   0.217261 0.334613 0.686030 0.170949
C52   C     C_R   0.397868 0.308574 0.692235 0.112745
O11   O     O_R   0.294110 0.064720 0.075690 -0.543197
O12   O     O_R   0.619980 0.058360 0.949870 -0.529365
O13   O     O_R   0.785810 0.935300 0.924300 -0.525616
C53   C     C_R   0.452607 0.072879 0.932540 0.798838
O14   O     O_R   0.624080 0.072230 0.076800 -0.540767
O15   O     O_R   0.789930 0.949270 0.052130 -0.548859
C54   C     C_R   0.457110 0.090089 0.101386 0.661759
O16   O     O_R   0.289980 0.050750 0.947860 -0.521199
O17   O     O_3   0.454970 0.959660 0.991750 -0.376738
V3    V     V_3+5 0.731560 0.007480 0.001530 1.503188
O18   O     O_R   0.119360 0.941610 0.050140 -0.552104
C55   C     C_R   0.948024 0.928649 0.068929 0.685259
O19   O     O_R   0.115260 0.927740 0.923220 -0.522339
C56   C     C_R   0.945233 0.909872 0.898887 0.807587
V4    V     V_3+5 0.231020 0.992470 0.998490 1.491033
O20   O     O_3   0.957740 0.040330 0.008250 -0.362421
S1    S     S_3+6 0.261347 0.872339 0.259842 0.004201
O21   O     O_2   0.350434 0.808715 0.251675 -0.278463
O22   O     O_2   0.413213 0.918524 0.250175 -0.358052
O23   O     O_3   0.174341 0.899593 0.334102 -0.477744
H16   H     H_    0.108312 0.939516 0.335473 0.331726
C57   C     C_3   0.733598 0.563068 0.717349 -0.355314
C58   C     C_3   0.901675 0.520239 0.719798 -0.760126
H17   H     H_    0.995772 0.514104 0.677738 0.222598
H18   H     H_    0.989106 0.541149 0.763501 0.229022
H19   H     H_    0.845214 0.472452 0.719811 0.216964
H20   H     H_    0.630697 0.563475 0.755863 0.190173
H21   H     H_    0.647156 0.540280 0.673965 0.182135
C59   C     C_3   0.768168 0.666786 0.840857 -0.346592
C60   C     C_3   0.558091 0.681131 0.859516 -0.749842
H22   H     H_    0.527405 0.731946 0.865143 0.230463
H23   H     H_    0.459587 0.650515 0.822627 0.224383
H24   H     H_    0.528225 0.671386 0.905218 0.230774
H25   H     H_    0.797028 0.616743 0.838518 0.196577
H26   H     H_    0.866142 0.693898 0.879756 0.172625
S2    S     S_3+6 0.057376 0.946301 0.777634 -0.020771
O24   O     O_2   0.916876 0.994428 0.814741 -0.335461
O25   O     O_2   0.253739 0.962246 0.807502 -0.365608
O26   O     O_3   0.065594 0.949816 0.702515 -0.487363
H27   H     H_    0.194355 0.934130 0.686554 0.346600
S3    S     S_3+6 0.968474 0.289896 0.192878 -0.051924
O27   O     O_2   0.987099 0.329187 0.147766 -0.328781
O28   O     O_2   0.921416 0.221331 0.156596 -0.355883
O29   O     O_3   0.787651 0.319401 0.243091 -0.519357
H28   H     H_    0.688616 0.331493 0.216890 0.362026
C61   C     C_3   0.670713 0.081349 0.212716 -0.331256
C62   C     C_3   0.743864 0.076377 0.276344 -0.717253
H29   H     H_    0.861929 0.112069 0.295332 0.218074
H30   H     H_    0.624367 0.083303 0.311187 0.239159
H31   H     H_    0.802608 0.028048 0.269188 0.236311
H32   H     H_    0.574114 0.038948 0.192194 0.173417
H33   H     H_    0.796229 0.077796 0.180582 0.202854
C63   C     C_3   0.320312 0.216532 0.101961 -0.332411
C64   C     C_3   0.508315 0.225176 0.068751 -0.658220
H34   H     H_    0.600515 0.263119 0.101207 0.288570
H35   H     H_    0.589652 0.180422 0.052868 0.218005
H36   H     H_    0.475192 0.240081 0.026167 0.236140
H37   H     H_    0.227134 0.178884 0.069532 0.207138
H38   H     H_    0.249705 0.262343 0.109885 0.267307
S4    S     S_3+6 0.772232 0.268911 0.877850 0.023771
O30   O     O_2   0.838140 0.285230 0.945839 -0.274469
O31   O     O_2   0.941971 0.246121 0.835465 -0.373798
O32   O     O_3   0.685012 0.335138 0.865467 -0.475481
H39   H     H_    0.752588 0.339645 0.827423 0.341968
C65   C     C_3   0.045021 0.321156 0.722315 -0.379031
C66   C     C_3   0.978854 0.250818 0.696536 -0.664518
H40   H     H_    0.960116 0.236621 0.644089 0.207763
H41   H     H_    0.083681 0.218529 0.707701 0.238059
H42   H     H_    0.839971 0.243510 0.718587 0.233578
H43   H     H_    0.082090 0.332911 0.773572 0.232515
H44   H     H_    0.924433 0.352338 0.719126 0.160226
C67   C     C_3   0.586467 0.845066 0.075790 -0.299594
C68   C     C_3   0.630089 0.806248 0.007442 -0.733518
H45   H     H_    0.675655 0.757543 0.005633 0.231524
H46   H     H_    0.745722 0.829654 0.987206 0.204717
H47   H     H_    0.498391 0.802021 0.977920 0.213211
H48   H     H_    0.466539 0.819630 0.092372 0.187552
H49   H     H_    0.527450 0.892188 0.078190 0.195045
S5    S     S_3+6 0.190236 0.648555 0.244052 0.016329
O33   O     O_2   0.114533 0.673543 0.192642 -0.310096
O34   O     O_2   0.370091 0.685864 0.271689 -0.331610
O35   O     O_3   0.246710 0.571805 0.209310 -0.500553
H50   H     H_    0.364157 0.573622 0.184252 0.384416
C69   C     C_3   0.196584 0.573979 0.344782 -0.305362
C70   C     C_3   0.148718 0.504259 0.309148 -0.609080
H51   H     H_    0.037493 0.485121 0.334899 0.197426
H52   H     H_    0.091153 0.498886 0.260974 0.279400
H53   H     H_    0.281320 0.476031 0.304520 0.193812
H54   H     H_    0.322816 0.589570 0.322141 0.234019
H55   H     H_    0.254064 0.579416 0.392878 0.177464
C71   C     C_3   0.986765 0.716157 0.600550 -0.363967
C72   C     C_3   0.820331 0.741154 0.570481 -0.730495
H56   H     H_    0.700381 0.705033 0.558427 0.216014
H57   H     H_    0.766170 0.786359 0.603308 0.244695
H58   H     H_    0.870095 0.750360 0.526098 0.226350
H59   H     H_    0.114198 0.749015 0.607520 0.178085
H60   H     H_    0.038532 0.672332 0.565182 0.180692

loop_
_geom_bond_atom_site_label_1
_geom_bond_atom_site_label_2
_ccdc_geom_bond_type
C57   H21   S    
C53   O16   A    
C72   H56   S    
O16   V4    S    
C62   H29   S    
C48   C49   A    
C48   H14   S    
C43   C44   A    
C69   C70   S    
C1    O6    A    
C47   C52   A    
C66   H40   S    
O15   C55   A    
O29   H28   S    
C71   H60   S    
C35   C36   A    
S3    O27   D    
C13   S5    S    
C72   H57   S    
C65   H43   S    
O13   V3    S    
C21   C25   A    
C67   H49   S    
C70   H51   S    
C21   C22   A    
C50   C51   A    
C60   H23   S    
O5    C3    A    
C16   H3    S    
S4    O32   S    
C71   C72   S    
C63   H38   S    
V2    O10   S    
S1    O23   S    
C59   C60   S    
C58   H19   S    
C6    H1    S    
C25   C26   A    
C59   H26   S    
C40   C41   A    
C19   C26   A    
O26   H27   S    
C33   C63   S    
O11   C54   A    
C26   C71   S    
S5    O35   S    
O12   C53   A    
O8    V2    S    
C20   C56   S    
C12   C18   S    
C30   C33   A    
C63   C64   S    
S2    O25   D    
S1    O22   D    
C64   H36   S    
C65   H44   S    
C67   C68   S    
S5    O33   D    
O1    V2    S    
C19   C27   A    
O7    V1    S    
C32   C61   S    
C40   H10   S    
S3    O29   S    
O12   V3    S    
C30   C32   A    
C43   H12   S    
O13   C56   A    
C8    C9    A    
S5    O34   D    
C38   S3    S    
C58   H17   S    
C61   H32   S    
C66   H41   S    
S3    O28   D    
O18   V4    S    
C71   H59   S    
C28   C59   S    
C13   C18   A    
C72   H58   S    
O17   V4    S    
C5    C10   A    
O32   H39   S    
C33   C34   A    
C57   C58   S    
C50   H15   S    
C60   H24   S    
C23   C24   A    
O4    C2    A    
O15   V3    S    
C51   C52   A    
C44   C45   S    
C2    C49   S    
C62   H31   S    
C11   C12   T    
C20   C23   A    
C41   C53   S    
C39   C40   A    
C42   C43   A    
C59   H25   S    
V3    O20   S    
O2    C1    A    
C49   C50   A    
C27   C57   S    
C15   C16   A    
C51   C65   S    
C61   H33   S    
O23   H16   S    
C68   H47   S    
C24   C28   A    
S4    O30   D    
S2    O26   S    
S1    O21   D    
C7    C8    A    
C37   C38   A    
O19   V4    S    
C5    C6    A    
V4    O20   S    
C5    S1    S    
C67   H48   S    
C10   C11   S    
C3    C19   S    
C58   H18   S    
O3    C4    A    
C29   C36   A    
C24   C25   A    
C68   H46   S    
O6    V2    S    
C23   H6    S    
C27   C28   A    
C61   C62   S    
C30   C54   S    
O14   V3    S    
C4    C15   S    
O11   V4    S    
C20   C22   A    
O2    V1    S    
C66   H42   S    
C34   C35   A    
C29   C37   A    
C57   H20   S    
C14   C15   A    
C62   H30   S    
C46   C52   S    
O1    C2    A    
C70   H53   S    
O14   C54   A    
C65   C66   S    
O5    V1    S    
C6    C7    A    
O8    C3    A    
C31   H9    S    
C42   H11   S    
O9    V2    S    
C69   H54   S    
C63   H37   S    
O4    V1    S    
O3    V1    S    
V1    O10   S    
C60   H22   S    
C17   H4    S    
C16   C17   A    
C22   S2    S    
S4    O31   D    
O18   C55   A    
C64   H34   S    
O35   H50   S    
C31   C35   A    
C70   H52   S    
O19   C56   A    
C9    C10   A    
C8    C67   S    
O7    V2    S    
C45   C46   T    
C69   H55   S    
C39   S4    S    
C41   C42   A    
C34   C38   A    
C7    C55   S    
C47   H13   S    
O17   V3    S    
C39   C44   A    
C31   C32   A    
C37   H8    S    
C47   C48   A    
C13   C14   A    
C64   H35   S    
C9    H2    S    
C68   H45   S    
O9    C4    A    
C21   H5    S    
C36   H7    S    
S2    O24   D    
C14   C69   S    
C17   C18   A    
C1    C29   S    
