data_mof_unit_27483.cif
_audit_creation_date              2012-10-26T19:23:02-0400
_audit_creation_method            fapswitch 2.2
_symmetry_space_group_name_H-M    P1
_symmetry_Int_Tables_number       1
_space_group_crystal_system       triclinic
_cell_length_a                    17.205425
_cell_length_b                    12.961032
_cell_length_c                    11.689404
_cell_angle_alpha                 100.098441
_cell_angle_beta                  90.101387
_cell_angle_gamma                 91.356511
_cell_volume                      2565.58848344

loop_
_atom_site_label
_atom_site_type_symbol
_atom_type_description
_atom_site_fract_x
_atom_site_fract_y
_atom_site_fract_z
_atom_type_partial_charge
C1    C     C_R   0.504130 0.299608 0.477859 0.521954
C2    C     C_R   0.522457 0.862420 0.450715 -0.144234
C3    C     C_R   0.474283 0.030073 0.541953 0.022285
C4    C     C_R   0.515905 0.969220 0.450441 0.023043
C5    C     C_R   0.421274 0.403974 0.030581 -0.019748
C6    C     C_R   0.581245 0.591588 0.968745 -0.023261
C7    C     C_R   0.431868 0.412993 0.152666 0.474694
C8    C     C_R   0.569796 0.584405 0.847085 0.457990
C9    C     C_R   0.532972 0.540422 0.154797 0.478520
C10   C     C_R   0.466746 0.459776 0.845110 0.480701
C11   C     C_R   0.529241 0.533294 0.031217 -0.109793
C12   C     C_R   0.496463 0.700725 0.522201 0.526529
C13   C     C_R   0.471525 0.465025 0.968455 -0.109446
C14   C     C_R   0.350431 0.498053 0.514624 0.560274
C15   C     C_R   0.649627 0.501577 0.485332 0.560092
C16   C     C_R   0.265744 0.486106 0.519642 0.007997
C17   C     C_R   0.734467 0.512457 0.480243 0.007962
C18   C     C_R   0.225534 0.436935 0.419426 -0.168064
C19   C     C_R   0.775283 0.556692 0.581900 -0.166118
C20   C     C_R   0.144714 0.424401 0.418970 0.018053
C21   C     C_R   0.856076 0.569223 0.581899 0.020307
C22   C     C_R   0.103906 0.462555 0.521764 0.060207
C23   C     C_R   0.487732 0.814307 0.535580 -0.007406
C24   C     C_R   0.896436 0.534635 0.477733 0.061214
C25   C     C_R   0.144050 0.508599 0.622877 -0.071549
C26   C     C_R   0.855808 0.493265 0.375481 -0.075143
C27   C     C_R   0.224661 0.520350 0.622309 0.363333
C28   C     C_R   0.775136 0.482225 0.376227 0.358443
C29   C     C_2   0.019170 0.462966 0.523690 0.340070
C30   C     C_2   0.981206 0.533584 0.475316 0.340703
C31   C     C_3   0.357777 0.331413 0.965354 -0.226056
C32   C     C_3   0.303526 0.270324 0.034313 -0.408517
C33   C     C_3   0.648908 0.656893 0.032560 -0.224217
C34   C     C_R   0.510988 0.186222 0.464166 -0.001136
C35   C     C_3   0.709073 0.706309 0.961057 -0.408087
C36   C     C_3   0.897121 0.620435 0.693045 -0.259721
C37   C     C_3   0.924404 0.732100 0.686370 -0.427915
C38   C     C_3   0.104806 0.367110 0.309483 -0.258793
C39   C     C_3   0.108591 0.430907 0.211366 -0.415299
C40   C     C_3   0.398357 0.816800 0.710435 -0.246810
C41   C     C_3   0.445331 0.813157 0.821162 -0.399725
C42   C     C_3   0.616004 0.182763 0.308547 -0.263017
C43   C     C_3   0.699697 0.159324 0.338181 -0.428830
C44   C     C_3   0.580631 0.949391 0.249358 -0.279748
C45   C     C_R   0.552051 0.016580 0.361872 0.041694
C46   C     C_3   0.512298 0.896720 0.175644 -0.430389
C47   C     C_3   0.392297 0.049142 0.727830 -0.283705
C48   C     C_3   0.310604 0.071609 0.688325 -0.424358
C49   C     C_R   0.437354 0.982617 0.629957 0.038996
C50   C     C_R   0.557316 0.127677 0.377290 0.016753
C51   C     C_R   0.443331 0.872729 0.625584 0.006607
C52   C     C_R   0.469805 0.137502 0.542708 -0.143124
Cu1   Cu    Cu3+1 0.505800 0.507690 0.615350 1.108684
Cu2   Cu    Cu3+1 0.494200 0.492310 0.384650 1.114691
F1    F     F_    0.613142 0.642652 0.784619 -0.659875
F2    F     F_    0.389291 0.354227 0.215478 -0.648470
F3    F     F_    0.737486 0.439331 0.276404 -0.627160
F4    F     F_    0.261862 0.567889 0.720736 -0.625731
F5    F     F_    0.020348 0.603899 0.421614 -0.677262
F6    F     F_    0.980078 0.392900 0.577913 -0.663021
F7    F     F_    0.415092 0.395103 0.778634 -0.635658
F8    F     F_    0.582845 0.607861 0.221449 -0.636638
H1    H     H_    0.257225 0.406809 0.341130 0.184813
H2    H     H_    0.319507 0.379612 0.920279 0.218394
H3    H     H_    0.386258 0.272050 0.899888 0.182658
H4    H     H_    0.734887 0.645677 0.893856 0.189582
H5    H     H_    0.682899 0.769356 0.921501 0.199545
H6    H     H_    0.756887 0.743091 0.019364 0.124277
H7    H     H_    0.624947 0.721718 0.096359 0.185607
H8    H     H_    0.682221 0.605016 0.079995 0.224768
H9    H     H_    0.967783 0.732387 0.616308 0.206513
H10   H     H_    0.874153 0.779761 0.669652 0.165429
H11   H     H_    0.951930 0.768573 0.770177 0.142753
H12   H     H_    0.743992 0.583044 0.661590 0.183474
H13   H     H_    0.857501 0.623997 0.768566 0.138399
H14   H     H_    0.947283 0.573736 0.711769 0.184331
H15   H     H_    0.080086 0.385506 0.132418 0.140741
H16   H     H_    0.077899 0.505701 0.236251 0.228272
H17   H     H_    0.169790 0.448334 0.189974 0.151583
H18   H     H_    0.133679 0.291179 0.280803 0.145545
H19   H     H_    0.042939 0.347841 0.324864 0.163322
H20   H     H_    0.504817 0.785173 0.800212 0.217796
H21   H     H_    0.450833 0.891573 0.876695 0.120178
H22   H     H_    0.415797 0.759162 0.872139 0.159008
H23   H     H_    0.112492 0.538124 0.701529 0.141117
H24   H     H_    0.341673 0.853536 0.733510 0.146039
H25   H     H_    0.380933 0.735946 0.668900 0.188605
H26   H     H_    0.711307 0.074345 0.317835 0.148435
H27   H     H_    0.740612 0.200818 0.287341 0.184347
H28   H     H_    0.711260 0.187666 0.432117 0.164616
H29   H     H_    0.604580 0.161941 0.213808 0.148946
H30   H     H_    0.613040 0.268977 0.328052 0.197956
H31   H     H_    0.533566 0.856809 0.090008 0.133756
H32   H     H_    0.481948 0.837546 0.218582 0.173930
H33   H     H_    0.470132 0.956492 0.160191 0.159437
H34   H     H_    0.887015 0.466746 0.295674 0.143435
H35   H     H_    0.613279 0.994884 0.193148 0.145325
H36   H     H_    0.622512 0.890564 0.267717 0.143569
H37   H     H_    0.312435 0.111727 0.611981 0.166876
H38   H     H_    0.276239 0.997308 0.664682 0.157574
H39   H     H_    0.280652 0.122684 0.760210 0.148869
H40   H     H_    0.386480 0.012365 0.805703 0.142541
H41   H     H_    0.424846 0.122950 0.761914 0.144888
H42   H     H_    0.556369 0.814168 0.385466 0.164538
H43   H     H_    0.434988 0.186705 0.605774 0.161630
H44   H     H_    0.336411 0.212949 0.074351 0.202617
H45   H     H_    0.271377 0.324453 0.100855 0.191610
H46   H     H_    0.259862 0.225239 0.974181 0.115889
N1    N     N_R   0.514530 0.519260 0.788680 -0.206999
N2    N     N_R   0.485470 0.480740 0.211320 -0.207896
O1    O     O_R   0.504120 0.354440 0.581590 -0.473117
O2    O     O_R   0.495880 0.645560 0.418410 -0.473265
O3    O     O_R   0.494320 0.341440 0.386760 -0.469930
O4    O     O_R   0.505680 0.658560 0.613240 -0.475800
O5    O     O_R   0.391870 0.507230 0.608700 -0.403551
O6    O     O_R   0.608130 0.492770 0.391300 -0.406304
O7    O     O_R   0.382070 0.494240 0.413880 -0.487063
O8    O     O_R   0.617930 0.505760 0.586120 -0.483373

loop_
_geom_bond_atom_site_label_1
_geom_bond_atom_site_label_2
_ccdc_geom_bond_type
C22   C29   S    
C3    C49   A    
C47   C49   S    
C21   C36   S    
Cu1   Cu2   S    
C44   C45   S    
C12   C23   S    
C43   H27   S    
C43   H26   S    
C39   H15   S    
C40   H25   S    
C36   C37   S    
C19   C21   A    
C24   C26   A    
C38   C39   S    
C18   H1    S    
C41   H20   S    
C14   O5    A    
C41   H21   S    
Cu2   O3    S    
Cu2   N2    S    
C10   N1    A    
C31   H3    S    
C42   H29   S    
C40   H24   S    
C36   H14   S    
C17   C19   A    
C44   H36   S    
C7    N2    A    
C46   H33   S    
C31   C32   S    
C49   C51   A    
C22   C25   A    
Cu2   O6    S    
C35   H5    S    
C5    C13   A    
C33   H7    S    
Cu1   O1    S    
C16   C27   A    
C47   H40   S    
C32   H44   S    
C1    O3    A    
C7    F2    S    
C8    F1    S    
C44   C46   S    
C1    C34   S    
C12   O4    A    
C4    C45   A    
C26   H34   S    
C48   H38   S    
C34   C50   A    
C43   H28   S    
C47   H41   S    
C9    F8    S    
C39   H16   S    
C6    C11   A    
C5    C7    A    
Cu1   O8    S    
C6    C8    A    
C35   H4    S    
C28   F3    S    
C41   H22   S    
C32   H45   S    
C39   H17   S    
C2    C4    A    
C29   C30   D    
C36   H13   S    
C20   C38   S    
C44   H35   S    
C23   C51   A    
C47   C48   S    
C46   H32   S    
C29   F6    S    
C2    H42   S    
C14   O7    A    
C30   F5    S    
C25   H23   S    
Cu2   O2    S    
C9    C11   A    
C33   H8    S    
C42   C50   S    
C40   C41   S    
C20   C22   A    
C52   H43   S    
C37   H9    S    
C38   H19   S    
C14   C16   S    
C37   H10   S    
C10   F7    S    
C42   C43   S    
C3    C4    A    
C12   O2    A    
Cu1   O4    S    
Cu1   N1    S    
C9    N2    A    
C15   C17   S    
C48   H37   S    
C37   H11   S    
C17   C28   A    
C34   C52   A    
C31   H2    S    
C19   H12   S    
C10   C13   A    
C18   C20   A    
C3    C52   A    
C15   O8    A    
C25   C27   A    
C40   C51   S    
C26   C28   A    
C6    C33   S    
C8    N1    A    
C1    O1    A    
C45   C50   A    
C11   C13   A    
C46   H31   S    
C38   H18   S    
C35   H6    S    
C27   F4    S    
C48   H39   S    
C33   C35   S    
C42   H30   S    
C24   C30   S    
C16   C18   A    
C32   H46   S    
C21   C24   A    
C2    C23   A    
C15   O6    A    
Cu2   O7    S    
Cu1   O5    S    
C5    C31   S    
