data_mof_unit_43054.cif
_audit_creation_date              2012-12-10T19:06:26-0500
_audit_creation_method            fapswitch 2.2
_symmetry_space_group_name_H-M    P1
_symmetry_Int_Tables_number       1
_space_group_crystal_system       triclinic
_cell_length_a                    23.539062
_cell_length_b                    10.859722
_cell_length_c                    9.552249
_cell_angle_alpha                 89.694565
_cell_angle_beta                  88.892703
_cell_angle_gamma                 90.236499
_cell_volume                      2441.30661605

loop_
_atom_site_label
_atom_site_type_symbol
_atom_type_description
_atom_site_fract_x
_atom_site_fract_y
_atom_site_fract_z
_atom_type_partial_charge
C1    C     C_R   0.499762 0.262761 0.500111 0.811700
C2    C     C_R   0.968482 0.270705 0.421053 -0.214199
C3    C     C_R   0.027835 0.265755 0.423077 -0.032966
C4    C     C_R   0.059060 0.371094 0.466099 -0.059049
C5    C     C_R   0.029504 0.481536 0.497170 -0.068759
C6    C     C_R   0.059905 0.589634 0.528507 -0.141872
C7    C     C_R   0.030331 0.697539 0.570325 0.399402
C8    C     C_R   0.970769 0.702103 0.560032 -0.138538
C9    C     C_R   0.118512 0.370168 0.484805 0.560897
C10   C     C_R   0.119368 0.587906 0.512219 0.544964
C11   C     C_R   0.237083 0.547965 0.607357 -0.153989
C12   C     C_R   0.391059 0.500115 0.500900 0.846641
C13   C     C_R   0.296022 0.564732 0.600056 -0.065116
C14   C     C_R   0.328534 0.496548 0.502293 -0.103407
C15   C     C_R   0.300796 0.422596 0.404571 -0.222582
C16   C     C_R   0.241634 0.416007 0.404048 -0.070278
C17   C     C_R   0.209131 0.477983 0.506121 0.303042
C18   C     C_R   0.757941 0.384243 0.554563 -0.182868
C19   C     C_R   0.698502 0.384759 0.552390 0.405599
C20   C     C_R   0.670410 0.489508 0.500700 -0.116953
C21   C     C_R   0.701656 0.592116 0.455630 -0.390049
C22   C     C_R   0.760697 0.589119 0.453038 -0.112075
C23   C     C_R   0.499073 0.737333 0.500146 0.821260
C24   C     C_R   0.789620 0.485715 0.503921 0.266114
C25   C     C_R   0.492207 0.062451 0.621564 0.088323
C26   C     C_R   0.498123 0.130221 0.498879 -0.072865
C27   C     C_R   0.501848 0.064881 0.371872 -0.188806
C28   C     C_R   0.501326 0.935919 0.372506 -0.195423
C29   C     C_R   0.496859 0.870054 0.500086 -0.091209
C30   C     C_R   0.490723 0.938038 0.623253 0.065893
C31   C     C_3   0.489405 0.933903 0.780994 -0.218387
C32   C     C_3   0.490206 0.075986 0.776212 -0.520978
C33   C     C_R   0.531080 0.585194 0.070915 0.138318
C34   C     C_R   0.608580 0.495156 0.499436 0.820395
C35   C     C_R   0.466158 0.421756 0.076489 -0.026278
C36   C     C_R   0.466460 0.421127 0.927651 -0.039856
C37   C     C_R   0.529212 0.589251 0.924013 0.242605
C38   C     C_3   0.591317 0.618868 0.910737 0.128279
C39   C     C_3   0.594173 0.605626 0.069158 0.203077
C40   C     C_R   0.880225 0.584439 0.550230 0.576391
C41   C     C_R   0.879716 0.383014 0.452816 0.543722
C42   C     C_R   0.939161 0.378033 0.458359 -0.008150
C43   C     C_R   0.969573 0.483759 0.497521 -0.018399
C44   C     C_R   0.939947 0.591983 0.534494 -0.151330
Cu1   Cu    Cu3+1 0.500000 0.499980 0.640670 0.979598
Cu2   Cu    Cu3+1 0.500000 0.500020 0.359330 0.992260
H1    H     H_    0.945091 0.190239 0.387372 0.212788
H2    H     H_    0.680086 0.673367 0.418375 0.157781
H3    H     H_    0.783924 0.667585 0.410769 0.186575
H4    H     H_    0.506052 0.112659 0.272356 0.169827
H5    H     H_    0.505467 0.888486 0.273375 0.169332
H6    H     H_    0.528532 0.896240 0.826082 0.183767
H7    H     H_    0.450787 0.123080 0.811932 0.239599
H8    H     H_    0.529977 0.116179 0.817109 0.178267
H9    H     H_    0.439528 0.356822 0.133919 0.132308
H10   H     H_    0.440187 0.355582 0.873499 0.137279
H11   H     H_    0.616027 0.547631 0.853494 0.110771
H12   H     H_    0.605331 0.691010 0.127125 0.098744
H13   H     H_    0.212269 0.598123 0.684751 0.167296
H14   H     H_    0.324976 0.371237 0.327052 0.160342
H15   H     H_    0.221168 0.363565 0.323045 0.177136
H16   H     H_    0.779427 0.303298 0.592930 0.174816
N1    N     N_R   0.851058 0.483908 0.502542 -0.449443
N2    N     N_R   0.147763 0.478391 0.500760 -0.461891
N3    N     N_R   0.500360 0.500930 0.147930 -0.170641
N4    N     N_R   0.500360 0.500890 0.852020 -0.200548
O1    O     O_R   0.500000 0.319640 0.618810 -0.595930
O2    O     O_2   0.850988 0.288046 0.396790 -0.545958
O3    O     O_2   0.146596 0.262486 0.492488 -0.500591
O4    O     O_2   0.148539 0.695055 0.504677 -0.499087
O5    O     O_R   0.500010 0.319680 0.381230 -0.588887
O6    O     O_R   0.417880 0.499940 0.618820 -0.559843
O7    O     O_R   0.417880 0.499980 0.381240 -0.576911
O8    O     O_R   0.499990 0.680320 0.618770 -0.548080
O9    O     O_R   0.500000 0.680360 0.381190 -0.593449
O10   O     O_R   0.582120 0.500020 0.618760 -0.634495
O11   O     O_R   0.582120 0.500060 0.381180 -0.534555
O12   O     O_2   0.851729 0.674087 0.618711 -0.540047
O13   O     O_3   0.669038 0.276292 0.579068 -0.617487
C45   C     C_3   0.653149 0.267744 0.722305 0.064162
H17   H     H_    0.613932 0.210893 0.728591 0.176507
H18   H     H_    0.642053 0.357979 0.769342 0.132107
C46   C     C_3   0.699226 0.204368 0.807941 -0.407708
H19   H     H_    0.714358 0.120696 0.753143 0.245327
H20   H     H_    0.736190 0.266994 0.819178 0.211730
C47   C     C_3   0.676781 0.168360 0.953608 -0.871375
H21   H     H_    0.661345 0.250795 0.010873 0.281981
H22   H     H_    0.711365 0.125398 0.014091 0.269791
H23   H     H_    0.641357 0.101014 0.945601 0.247262
C48   C     C_2   0.436543 0.877100 0.845592 0.883188
O14   O     O_2   0.432641 0.765082 0.853566 -0.557957
O15   O     O_R   0.392923 0.950736 0.900209 -0.767013
H24   H     H_    0.360294 0.900502 0.941801 0.361247
C49   C     C_2   0.054616 0.152314 0.367089 0.931403
O16   O     O_2   0.093885 0.159429 0.281660 -0.555194
O17   O     O_R   0.032613 0.037112 0.406172 -0.728656
H25   H     H_    0.053574 0.966634 0.359272 0.355235
O18   O     O_3   0.601403 0.743226 0.871687 -0.644270
C50   C     C_3   0.631631 0.751785 0.742736 0.066800
H26   H     H_    0.603276 0.727020 0.656169 0.170973
H27   H     H_    0.669510 0.690782 0.740097 0.144069
C51   C     C_3   0.652160 0.884350 0.720179 -0.357086
H28   H     H_    0.616078 0.949065 0.732005 0.223750
H29   H     H_    0.684000 0.906970 0.800565 0.233039
C52   C     C_3   0.678784 0.902586 0.574557 -0.871930
H30   H     H_    0.717607 0.845579 0.562880 0.276364
H31   H     H_    0.690802 0.000577 0.558637 0.284159
H32   H     H_    0.647887 0.877569 0.492873 0.240362
O19   O     O_3   0.623876 0.497605 0.106624 -0.602709
C53   C     C_3   0.681820 0.524194 0.131575 0.095203
H33   H     H_    0.697568 0.450677 0.202003 0.201919
H34   H     H_    0.687984 0.613340 0.185619 0.131563
C54   C     C_3   0.718133 0.524760 0.996764 -0.431653
H35   H     H_    0.705544 0.447447 0.929243 0.225409
H36   H     H_    0.711443 0.612302 0.939376 0.223088
C55   C     C_3   0.781269 0.513868 0.027914 -0.828529
H37   H     H_    0.794912 0.590720 0.096017 0.258798
H38   H     H_    0.806355 0.517875 0.928295 0.267087
H39   H     H_    0.789972 0.424785 0.080894 0.268374
O20   O     O_3   0.059196 0.801619 0.614921 -0.534318
C56   C     C_3   0.082004 0.780829 0.749751 0.153975
H40   H     H_    0.122136 0.834583 0.755791 0.196711
H41   H     H_    0.093523 0.682927 0.770334 0.102486
C57   C     C_3   0.041202 0.825613 0.865307 -0.353650
H42   H     H_    0.032775 0.925343 0.850101 0.273635
H43   H     H_    0.000407 0.774162 0.859878 0.234606
C58   C     C_3   0.066008 0.806343 0.010260 -0.863595
H44   H     H_    0.073838 0.706932 0.029534 0.258010
H45   H     H_    0.035567 0.840185 0.091433 0.271024
H46   H     H_    0.106545 0.858160 0.019381 0.275365
C59   C     C_2   0.942745 0.824885 0.556787 1.011006
O21   O     O_2   0.908088 0.847400 0.466427 -0.571234
O22   O     O_R   0.957141 0.916111 0.652459 -0.736399
H47   H     H_    0.935767 0.995754 0.636977 0.342263
C60   C     C_2   0.320461 0.670828 0.674029 0.913868
O23   O     O_2   0.304965 0.694874 0.793676 -0.581737
O24   O     O_R   0.357479 0.749965 0.600625 -0.753858
H48   H     H_    0.362801 0.831471 0.649398 0.342138

loop_
_geom_bond_atom_site_label_1
_geom_bond_atom_site_label_2
_ccdc_geom_bond_type
C9    N2    A    
C41   C42   A    
C19   C20   A    
C31   H6    S    
C38   O18   S    
C33   N3    A    
C7    C8    A    
Cu1   Cu2   S    
C52   H31   S    
C26   C27   A    
C29   C30   A    
C40   N1    A    
Cu1   O10   S    
C18   C24   A    
C23   C29   S    
C28   C29   A    
C9    O3    S    
C17   N2    S    
C30   C31   S    
C28   H5    S    
C36   N4    A    
C35   N3    A    
C15   C16   A    
C55   H37   S    
C51   C52   S    
C18   C19   A    
C15   H14   S    
C53   H33   S    
C56   C57   S    
C33   C39   S    
C46   H19   S    
C16   C17   A    
Cu1   O1    S    
C13   C14   A    
C27   H4    S    
C54   C55   S    
C20   C34   S    
C25   C32   S    
C5    C43   A    
C21   C22   A    
C37   N4    A    
Cu1   O6    S    
C13   C60   S    
C49   O16   D    
C45   C46   S    
C11   H13   S    
C32   H8    S    
Cu2   O9    S    
C41   O2    S    
C38   C39   S    
C52   H32   S    
C1    C26   S    
C35   H9    S    
C60   O23   D    
Cu2   N3    S    
C45   H18   S    
C47   H21   S    
C18   H16   S    
C25   C26   A    
C39   H12   S    
C33   C37   A    
Cu1   O8    S    
C35   C36   A    
C49   O17   S    
C43   C44   A    
C58   H45   S    
C37   C38   S    
C36   H10   S    
C38   H11   S    
C48   O15   S    
C31   C32   S    
C40   C44   A    
C31   C48   S    
O17   H25   S    
C46   C47   S    
C8    C59   S    
C56   H40   S    
C1    O5    A    
C51   H29   S    
C53   C54   S    
Cu2   O5    S    
C6    C7    A    
C57   C58   S    
C10   O4    S    
C40   O12   S    
C50   H27   S    
C12   C14   S    
C59   O21   D    
C24   N1    S    
C22   H3    S    
O22   H47   S    
C22   C24   A    
C42   C43   A    
C41   N1    A    
C23   O8    A    
C3    C4    A    
C32   H7    S    
Cu1   N4    S    
O20   C56   S    
C57   H43   S    
C54   H35   S    
O24   H48   S    
C25   C30   A    
C60   O24   S    
C11   C17   A    
C46   H20   S    
C7    O20   S    
C10   N2    A    
C8    C44   A    
C23   O9    A    
C45   H17   S    
C59   O22   S    
C47   H23   S    
C6    C10   A    
Cu2   O11   S    
C58   H44   S    
C2    H1    S    
C52   H30   S    
C55   H39   S    
C21   H2    S    
C2    C3    A    
C58   H46   S    
C34   O11   A    
C50   H26   S    
C11   C13   A    
C48   O14   D    
C5    C6    A    
C2    C42   A    
C4    C5    A    
O15   H24   S    
C1    O1    A    
C55   H38   S    
C3    C49   S    
C47   H22   S    
C12   O6    A    
C51   H28   S    
C53   H34   S    
C56   H41   S    
O13   C45   S    
C39   O19   S    
C50   C51   S    
C20   C21   A    
O18   C50   S    
C16   H15   S    
O19   C53   S    
C27   C28   A    
C14   C15   A    
C4    C9    A    
C12   O7    A    
Cu2   O7    S    
C19   O13   S    
C34   O10   A    
C57   H42   S    
C54   H36   S    
