data_mof_unit_59115.cif
_audit_creation_date              2012-12-10T16:59:19-0500
_audit_creation_method            fapswitch 2.2
_symmetry_space_group_name_H-M    P1
_symmetry_Int_Tables_number       1
_space_group_crystal_system       triclinic
_cell_length_a                    7.73731
_cell_length_b                    8.549145
_cell_length_c                    27.701355
_cell_angle_alpha                 91.03604
_cell_angle_beta                  86.843819
_cell_angle_gamma                 94.051729
_cell_volume                      1824.83476159

loop_
_atom_site_label
_atom_site_type_symbol
_atom_type_description
_atom_site_fract_x
_atom_site_fract_y
_atom_site_fract_z
_atom_type_partial_charge
C1    C     C_R   0.546120 0.794870 0.498753 0.971007
C2    C     C_R   0.514071 0.667249 0.129360 -0.122698
C3    C     C_R   0.513562 0.503633 0.646296 -0.077964
C4    C     C_R   0.485074 0.502215 0.353643 -0.102550
C5    C     C_R   0.538895 0.673422 0.026605 -0.084742
C6    C     C_R   0.430674 0.389779 0.974960 -0.068875
C7    C     C_R   0.398754 0.402522 0.025675 0.066836
C8    C     C_R   0.556388 0.666276 0.974875 0.059431
C9    C     C_R   0.465035 0.537402 0.051352 -0.003393
C10   C     C_R   0.500682 0.525537 0.949723 0.005993
C11   C     C_R   0.585020 0.811065 0.055151 0.477065
C12   C     C_R   0.453884 0.205131 0.501275 0.972086
C13   C     C_R   0.401491 0.245001 0.948481 0.452046
C14   C     C_R   0.572338 0.803953 0.105635 -0.233030
C15   C     C_R   0.430243 0.243295 0.898196 -0.268093
C16   C     C_R   0.503973 0.500512 0.593859 0.895672
C17   C     C_R   0.495915 0.499897 0.406097 0.903196
C18   C     C_R   0.631415 0.792912 0.946707 -0.133508
C19   C     C_R   0.297234 0.286039 0.051940 -0.112291
C20   C     C_2   0.570287 0.958609 0.498037 -0.373079
C21   C     C_2   0.429725 0.041393 0.502037 -0.373538
C22   C     C_R   0.572764 0.652004 0.821820 0.554661
C23   C     C_R   0.516132 0.520493 0.898456 -0.054719
C24   C     C_R   0.381375 0.399134 0.177799 0.466799
C25   C     C_R   0.490005 0.378336 0.822455 0.552764
C26   C     C_R   0.510015 0.660526 0.179856 0.619579
C27   C     C_R   0.370129 0.477908 0.725455 -0.199527
C28   C     C_R   0.310752 0.508061 0.283867 -0.162134
C29   C     C_R   0.362001 0.475449 0.675667 -0.214522
C30   C     C_R   0.322071 0.500776 0.333569 -0.212841
C31   C     C_R   0.673704 0.535680 0.667264 -0.362439
C32   C     C_R   0.636613 0.509335 0.323333 -0.299534
C33   C     C_R   0.681958 0.544435 0.717796 0.556681
C34   C     C_R   0.453158 0.536075 0.102635 -0.057009
C35   C     C_R   0.625441 0.514737 0.273402 0.526971
C36   C     C_R   0.528781 0.512049 0.746564 0.231613
C37   C     C_R   0.461823 0.516303 0.253772 0.205848
C38   C     C_3   0.937756 0.702496 0.720339 0.093550
C39   C     C_3   0.050526 0.778660 0.758833 -0.721759
C40   C     C_3   0.817535 0.380552 0.226612 0.071394
C41   C     C_3   0.919484 0.399259 0.178391 -0.768752
C42   C     C_3   0.778606 0.030569 0.046737 0.057356
C43   C     C_3   0.756909 0.190590 0.070234 -0.801568
C44   C     C_3   0.220033 0.018619 0.955318 0.083593
C45   C     C_R   0.572446 0.655855 0.872305 -0.016306
C46   C     C_3   0.160942 0.886377 0.989866 -0.818045
C47   C     C_R   0.377726 0.403616 0.127464 -0.010410
C48   C     C_R   0.631281 0.790539 0.896804 -0.199492
C49   C     C_R   0.294621 0.281786 0.101792 -0.185061
C50   C     C_R   0.477273 0.380016 0.873045 -0.090933
H1    H     H_    0.791241 0.554479 0.644452 0.154274
H2    H     H_    0.252763 0.452605 0.747871 0.180441
H3    H     H_    0.604164 0.909365 0.126495 0.206696
H4    H     H_    0.417863 0.133071 0.878512 0.197594
H5    H     H_    0.695653 0.896334 0.960965 0.199671
H6    H     H_    0.212779 0.199730 0.034901 0.177891
H7    H     H_    0.702754 0.010415 0.494218 0.180182
H8    H     H_    0.297258 0.989587 0.505861 0.179577
H9    H     H_    0.856317 0.794196 0.707325 0.161066
H10   H     H_    0.023799 0.662363 0.689831 0.135154
H11   H     H_    0.131564 0.691540 0.773955 0.241166
H12   H     H_    0.763491 0.512270 0.338168 0.175989
H13   H     H_    0.136858 0.875571 0.742763 0.221740
H14   H     H_    0.967640 0.827084 0.788674 0.269742
H15   H     H_    0.701901 0.298046 0.220672 0.161596
H16   H     H_    0.899459 0.327562 0.252800 0.171177
H17   H     H_    0.034256 0.483063 0.182266 0.262431
H18   H     H_    0.963076 0.283890 0.165757 0.223298
H19   H     H_    0.836206 0.444723 0.151176 0.241088
H20   H     H_    0.858217 0.050208 0.012637 0.150821
H21   H     H_    0.855044 0.960039 0.070285 0.122265
H22   H     H_    0.673499 0.179413 0.104053 0.260881
H23   H     H_    0.013423 0.383476 0.463443 0.191079
H24   H     H_    0.885966 0.245762 0.078799 0.196330
H25   H     H_    0.697947 0.267369 0.044872 0.272690
H26   H     H_    0.246147 0.963464 0.919295 0.159671
H27   H     H_    0.111412 0.096942 0.953289 0.111402
H28   H     H_    0.150598 0.930302 0.027752 0.243690
H29   H     H_    0.032612 0.832708 0.979934 0.192714
H30   H     H_    0.253894 0.794054 0.987324 0.271661
H31   H     H_    0.986579 0.616511 0.536563 0.187300
H32   H     H_    0.684103 0.893616 0.877367 0.190540
H33   H     H_    0.223236 0.184513 0.120118 0.185862
H34   H     H_    0.203206 0.495124 0.356223 0.172221
H35   H     H_    0.237573 0.448997 0.660173 0.173164
H36   H     H_    0.184828 0.508905 0.268684 0.179134
N1    N     N_R   0.532602 0.514078 0.798034 -0.337614
N2    N     N_R   0.449627 0.525873 0.202731 -0.342118
N3    N     N_2   0.950320 0.457960 0.486880 -0.175111
N4    N     N_2   0.049680 0.542040 0.513120 -0.176238
O1    O     O_R   0.389250 0.738570 0.503220 -0.611828
O2    O     O_2   0.319161 0.268926 0.201636 -0.564718
O3    O     O_2   0.567195 0.786755 0.205977 -0.530643
O4    O     O_2   0.458186 0.242668 0.797734 -0.545823
O5    O     O_3   0.837554 0.572191 0.740383 -0.614089
O6    O     O_3   0.774995 0.530210 0.243868 -0.605294
O7    O     O_3   0.614174 0.958905 0.035248 -0.575168
O8    O     O_3   0.371602 0.101851 0.971781 -0.571805
O9    O     O_R   0.610750 0.261430 0.496780 -0.611310
O10   O     O_R   0.678390 0.711630 0.494810 -0.630482
O11   O     O_R   0.321610 0.288370 0.505190 -0.630528
O12   O     O_R   0.355440 0.513440 0.575450 -0.626044
O13   O     O_R   0.644560 0.486560 0.424550 -0.620464
O14   O     O_R   0.644590 0.486500 0.567040 -0.627716
O15   O     O_R   0.355410 0.513500 0.432960 -0.630284
O16   O     O_2   0.610356 0.785091 0.796721 -0.560190
Zn1   Zn    Zn3+2 0.306940 0.517990 0.505620 0.943466
Zn2   Zn    Zn3+2 0.693060 0.482010 0.494380 0.946473

loop_
_geom_bond_atom_site_label_1
_geom_bond_atom_site_label_2
_ccdc_geom_bond_type
C19   H6    S    
O11   Zn1   S    
C43   H22   S    
C23   C45   A    
C27   C29   A    
C37   N2    S    
C42   H20   S    
C47   C49   A    
C35   O6    S    
C39   H14   S    
O15   Zn1   S    
C44   H27   S    
C35   C37   A    
N4    Zn1   S    
C5    C11   A    
C46   H29   S    
C11   C14   A    
C33   O5    S    
C25   N1    A    
C33   C36   A    
C44   H26   S    
C15   C50   A    
C13   O8    S    
C3    C29   A    
C25   C50   A    
C12   O9    A    
C44   O8    S    
C16   O14   A    
C38   O5    S    
C31   C33   A    
O13   Zn2   S    
C29   H35   S    
C2    C34   A    
C26   O3    S    
C25   O4    S    
C1    O1    A    
C40   H16   S    
C40   O6    S    
C24   O2    S    
C1    O10   A    
C44   C46   S    
C41   H18   S    
C36   N1    S    
C43   H25   S    
C39   H11   S    
O10   Zn2   S    
C15   H4    S    
O1    Zn1   S    
C41   H17   S    
C42   O7    S    
C46   H28   S    
C23   C50   A    
C22   O16   S    
C12   C21   S    
C8    C18   A    
C32   C35   A    
C5    C9    A    
O9    Zn2   S    
C17   O15   A    
C19   C49   A    
C22   C45   A    
O12   Zn1   S    
C2    C26   A    
C22   N1    A    
C3    C31   A    
C24   N2    A    
C4    C32   A    
C18   H5    S    
C38   H10   S    
H31   N4    S    
C16   O12   A    
C40   C41   S    
C7    C19   A    
C40   H15   S    
C13   C15   A    
C28   H36   S    
C9    C34   A    
C27   C36   A    
C42   C43   S    
C4    C17   S    
O14   Zn2   S    
C27   H2    S    
C41   H19   S    
C45   C48   A    
C7    C9    A    
C1    C20   S    
C24   C47   A    
C20   H7    S    
C8    C10   A    
C31   H1    S    
C18   C48   A    
C6    C10   A    
C5    C8    A    
C6    C7    A    
C10   C23   A    
C39   H13   S    
C11   O7    S    
C49   H33   S    
C28   C30   A    
C17   O13   A    
H23   N3    S    
C12   O11   A    
C6    C13   A    
C46   H30   S    
C38   C39   S    
C28   C37   A    
C43   H24   S    
N3    Zn2   S    
C42   H21   S    
C48   H32   S    
C30   H34   S    
C2    C14   A    
C32   H12   S    
C38   H9    S    
C21   H8    S    
C14   H3    S    
C20   C21   D    
C26   N2    A    
C34   C47   A    
N3    N4    D    
C4    C30   A    
C3    C16   S    
