data_mof_unit_57163.cif
_audit_creation_date              2012-12-11T15:55:39-0500
_audit_creation_method            fapswitch 2.2
_symmetry_space_group_name_H-M    P1
_symmetry_Int_Tables_number       1
_space_group_crystal_system       triclinic
_cell_length_a                    6.96286
_cell_length_b                    14.830208
_cell_length_c                    15.913461
_cell_angle_alpha                 89.974629
_cell_angle_beta                  90.555144
_cell_angle_gamma                 90.781017
_cell_volume                      1643.00465034

loop_
_atom_site_label
_atom_site_type_symbol
_atom_type_description
_atom_site_fract_x
_atom_site_fract_y
_atom_site_fract_z
_atom_type_partial_charge
O1    O     O_R   0.505680 0.583900 0.413320 -0.549819
O2    O     O_R   0.176010 0.594950 0.586080 -0.541579
O3    O     O_R   0.005680 0.416100 0.586680 -0.514087
C1    C     C_R   0.346978 0.612645 0.618062 0.806932
O4    O     O_R   0.175960 0.594930 0.413930 -0.511589
O5    O     O_R   0.005640 0.416080 0.413300 -0.508699
C2    C     C_R   0.344805 0.618431 0.386076 0.751595
O6    O     O_R   0.505720 0.583920 0.586700 -0.517299
O7    O     O_3   0.339190 0.441320 0.500000 -0.335418
V1    V     V_3+5 0.064350 0.510890 0.500000 1.673813
O8    O     O_R   0.675920 0.405050 0.413920 -0.545789
C3    C     C_R   0.844529 0.385114 0.383048 0.744708
O9    O     O_R   0.675960 0.405070 0.586070 -0.522729
C4    C     C_R   0.844371 0.385723 0.616758 0.815781
V2    V     V_3+5 0.564340 0.489110 0.500000 1.654067
O10   O     O_3   0.839370 0.558680 0.500000 -0.365634
C5    C     C_R   0.006651 0.317626 0.743672 0.104547
C6    C     C_R   0.851195 0.321264 0.688090 -0.108003
C7    C     C_R   0.705008 0.257417 0.698239 -0.221468
H1    H     H_    0.586157 0.261871 0.656051 0.199709
C8    C     C_R   0.717989 0.185667 0.756914 0.410822
C9    C     C_R   0.873475 0.185839 0.816352 -0.152770
C10   C     C_R   0.015340 0.253499 0.808345 -0.089781
C11   C     C_3   0.223729 0.238848 0.793425 -0.400674
C12   C     C_3   0.210528 0.305129 0.721157 0.616657
H2    H     H_    0.249497 0.168506 0.774328 0.220665
H3    H     H_    0.314474 0.262701 0.846916 0.186918
C13   C     C_R   0.034445 0.250961 0.194736 0.369329
C14   C     C_R   0.024499 0.314839 0.260271 0.308827
C15   C     C_R   0.857717 0.320047 0.311272 -0.177147
C16   C     C_R   0.702929 0.261267 0.293241 -0.154040
H4    H     H_    0.573264 0.263450 0.330185 0.191731
C17   C     C_R   0.714348 0.197118 0.229011 -0.177512
H5    H     H_    0.592699 0.152062 0.218625 0.177901
C18   C     C_R   0.880924 0.189424 0.180197 -0.213137
C19   C     C_R   0.199669 0.721888 0.714085 -0.259149
H6    H     H_    0.066504 0.709952 0.680340 0.190333
C20   C     C_R   0.203228 0.784831 0.779712 0.475470
C21   C     C_R   0.375346 0.804809 0.823732 -0.214907
C22   C     C_R   0.537205 0.753012 0.804953 -0.267172
H7    H     H_    0.668432 0.762247 0.841136 0.215611
C23   C     C_R   0.531294 0.687494 0.740931 0.406883
C24   C     C_R   0.362581 0.675134 0.691260 -0.168310
C25   C     C_R   0.200221 0.747486 0.300401 0.378203
C26   C     C_R   0.213219 0.809178 0.233823 -0.173834
H8    H     H_    0.093840 0.853670 0.221882 0.155573
C27   C     C_R   0.378820 0.815733 0.184406 -0.116612
C28   C     C_R   0.533005 0.758709 0.203017 -0.120483
H9    H     H_    0.663119 0.762046 0.166331 0.144820
C29   C     C_R   0.520144 0.695495 0.268356 -0.127984
H10   H     H_    0.640616 0.651487 0.279449 0.172215
C30   C     C_R   0.354085 0.688177 0.318023 -0.124484
O11   O     O_R   0.229200 0.915950 0.913350 -0.509904
O12   O     O_R   0.559090 0.905000 0.086080 -0.545844
O13   O     O_R   0.729280 0.083880 0.086680 -0.546375
C31   C     C_R   0.390048 0.883041 0.114999 0.703326
O14   O     O_R   0.558920 0.904980 0.913920 -0.549714
O15   O     O_R   0.729110 0.083860 0.913300 -0.520858
C32   C     C_R   0.388082 0.879016 0.888206 0.748722
O16   O     O_R   0.229360 0.915970 0.086730 -0.543401
O17   O     O_3   0.395680 0.058580 0.000030 -0.367277
V3    V     V_3+5 0.670570 0.989070 0.999990 1.455079
O18   O     O_R   0.058820 0.094950 0.913870 -0.544461
C33   C     C_R   0.888890 0.117685 0.885306 0.700207
O19   O     O_R   0.058990 0.094970 0.086020 -0.518202
C34   C     C_R   0.890842 0.118230 0.113957 0.725069
V4    V     V_3+5 0.170560 0.010930 0.999930 1.489772
O20   O     O_3   0.895590 0.941310 0.999960 -0.376628
O21   O     O_3   0.034783 0.823514 0.803972 -0.542959
C35   C     C_3   0.949030 0.868015 0.735231 0.013926
H11   H     H_    0.844973 0.821902 0.703033 0.158007
H12   H     H_    0.053971 0.892954 0.687607 0.114962
C36   C     C_3   0.844458 0.947510 0.769479 -0.601379
H13   H     H_    0.902817 0.010527 0.741638 0.154451
H14   H     H_    0.689437 0.938765 0.757071 0.194446
H15   H     H_    0.864512 0.951018 0.838201 0.267475
Cl1   Cl    Cl    0.733642 0.618496 0.730791 -0.634649
Cl2   Cl    Cl    0.990615 0.751857 0.361546 -0.689746
O22   O     O_3   0.578729 0.117200 0.758401 -0.557566
C37   C     C_3   0.541093 0.080548 0.676860 0.083553
H16   H     H_    0.668910 0.046199 0.652061 0.119182
H17   H     H_    0.502102 0.130497 0.628798 0.177947
C38   C     C_3   0.372292 0.014122 0.680279 -0.712664
H18   H     H_    0.234412 0.050715 0.677763 0.225094
H19   H     H_    0.376607 0.967591 0.625695 0.187006
H20   H     H_    0.375897 0.974234 0.738937 0.209125
Cl3   Cl    Cl    0.230136 0.254413 0.619130 -0.727119
Cl4   Cl    Cl    0.349330 0.406071 0.735555 -0.621556
O23   O     O_3   0.200079 0.246781 0.147562 -0.532316
C39   C     C_3   0.179038 0.302328 0.075966 0.157101
H21   H     H_    0.133882 0.371711 0.093160 0.143392
H22   H     H_    0.071460 0.272641 0.031373 0.089055
C40   C     C_3   0.371207 0.310049 0.031686 -0.639705
H23   H     H_    0.416862 0.242673 0.009782 0.218120
H24   H     H_    0.358186 0.355703 0.976667 0.187019
H25   H     H_    0.482123 0.337982 0.075452 0.232239
Cl5   Cl    Cl    0.224399 0.389001 0.272903 -0.664955

loop_
_geom_bond_atom_site_label_1
_geom_bond_atom_site_label_2
_ccdc_geom_bond_type
O15   V3    S    
C40   H23   S    
C36   H13   S    
C4    C6    S    
C7    H1    S    
C11   H3    S    
C1    O6    A    
O11   C32   A    
O14   V3    S    
C26   H8    S    
C5    C10   A    
C13   C14   A    
C7    C8    A    
C11   H2    S    
C2    C30   S    
O5    C3    A    
C15   C16   A    
O14   C32   A    
V2    O10   S    
O13   V3    S    
C12   Cl3   S    
C6    C7    A    
O8    V2    S    
C38   H18   S    
O16   V4    S    
O19   V4    S    
C29   C30   A    
C10   C11   S    
C16   C17   A    
C13   O23   S    
O1    V2    S    
O7    V1    S    
C25   C30   A    
C28   C29   A    
C20   O21   S    
C40   H24   S    
C8    C9    A    
C36   H14   S    
O17   V3    S    
C37   C38   S    
C17   H5    S    
O12   C31   A    
C26   C27   A    
O15   C33   A    
O18   V4    S    
V4    O20   S    
C11   C12   S    
C13   C18   A    
C37   H17   S    
C21   C22   A    
O4    C2    A    
O12   V3    S    
C18   C34   S    
C29   H10   S    
O18   C33   A    
C12   Cl4   S    
C31   O16   A    
O2    C1    A    
C25   Cl2   S    
C14   C15   A    
O17   V4    S    
C39   H22   S    
C27   C28   A    
C21   C32   S    
C8    O22   S    
C35   C36   S    
C5    C6    A    
C35   H11   S    
O3    C4    A    
C22   H7    S    
C38   H19   S    
O6    V2    S    
O9    V2    S    
C36   H15   S    
C23   C24   A    
O2    V1    S    
O13   C34   A    
C25   C26   A    
C39   C40   S    
C28   H9    S    
C3    C15   S    
O1    C2    A    
C16   H4    S    
C37   H16   S    
O5    V1    S    
O8    C3    A    
C1    C24   S    
V3    O20   S    
C40   H25   S    
C14   Cl5   S    
C5    C12   S    
C19   C20   A    
O7    V2    S    
O4    V1    S    
O3    V1    S    
V1    O10   S    
C39   H21   S    
C20   C21   A    
C22   C23   A    
C17   C18   A    
O21   C35   S    
O11   V4    S    
C9    C33   S    
O22   C37   S    
C38   H20   S    
C23   Cl1   S    
C19   H6    S    
O19   C34   A    
C9    C10   A    
C19   C24   A    
C35   H12   S    
O23   C39   S    
O9    C4    A    
C27   C31   S    
