data_mof_unit_38564.cif
_audit_creation_date              2012-12-10T20:35:51-0500
_audit_creation_method            fapswitch 2.2
_symmetry_space_group_name_H-M    P1
_symmetry_Int_Tables_number       1
_space_group_crystal_system       triclinic
_cell_length_a                    15.767386
_cell_length_b                    10.671237
_cell_length_c                    9.932592
_cell_angle_alpha                 88.492827
_cell_angle_beta                  89.581522
_cell_angle_gamma                 91.867047
_cell_volume                      1669.71242906

loop_
_atom_site_label
_atom_site_type_symbol
_atom_type_description
_atom_site_fract_x
_atom_site_fract_y
_atom_site_fract_z
_atom_type_partial_charge
C1    C     C_R   0.502776 0.260793 0.501322 0.911024
C2    C     C_3   0.945651 0.363948 0.537829 -0.188442
C3    C     C_3   0.916460 0.501344 0.501070 0.200591
C4    C     C_3   0.950045 0.604622 0.604984 0.246157
C5    C     C_3   0.051677 0.595278 0.617085 0.229017
C6    C     C_1   0.825008 0.503632 0.497245 0.022549
C7    C     C_1   0.174225 0.495941 0.504197 -0.032655
C8    C     C_1   0.249546 0.497281 0.501791 -0.228853
C9    C     C_R   0.444749 0.058779 0.570905 0.019509
C10   C     C_R   0.507244 0.128995 0.501875 -0.145183
C11   C     C_R   0.566173 0.070870 0.418585 0.136755
C12   C     C_R   0.338435 0.499161 0.500509 0.898712
C13   C     C_R   0.565618 0.939444 0.417758 0.020818
C14   C     C_R   0.502855 0.871222 0.492958 -0.113008
C15   C     C_R   0.440180 0.931346 0.562400 0.011198
C16   C     C_3   0.408891 0.910979 0.704157 -0.468013
C17   C     C_3   0.418326 0.052307 0.716558 0.051352
C18   C     C_R   0.447346 0.419617 0.074187 0.119138
C19   C     C_R   0.555904 0.573506 0.071135 0.139050
C20   C     C_R   0.555052 0.576619 0.927443 0.089889
C21   C     C_R   0.447804 0.418638 0.932018 0.054235
C22   C     C_3   0.352986 0.412880 0.928504 0.019638
C23   C     C_R   0.501782 0.739316 0.498255 0.921084
C24   C     C_3   0.352869 0.415883 0.082624 -0.183385
C25   C     C_R   0.661383 0.501284 0.499295 0.903532
C26   C     C_3   0.045546 0.358225 0.534799 0.348803
C27   C     C_3   0.051737 0.542218 0.364802 -0.562062
C28   C     C_3   0.953216 0.539405 0.357882 -0.073698
C29   C     C_1   0.749923 0.503270 0.497474 -0.190202
C30   C     C_3   0.082235 0.497420 0.507918 0.146929
H1    H     H_    0.923318 0.337855 0.639858 0.135693
H2    H     H_    0.341572 0.876489 0.707207 0.167077
H3    H     H_    0.451287 0.855686 0.769828 0.222419
H4    H     H_    0.356558 0.096184 0.733671 0.127799
H5    H     H_    0.326549 0.497540 0.878488 0.145835
H6    H     H_    0.326417 0.502471 0.124051 0.154329
H7    H     H_    0.075960 0.639515 0.341919 0.172548
H8    H     H_    0.079355 0.485302 0.284296 0.197886
H9    H     H_    0.933235 0.635146 0.329433 0.154291
N1    N     N_R   0.499430 0.499140 0.142800 -0.131434
N2    N     N_R   0.499430 0.499180 0.857150 -0.138216
O1    O     O_R   0.500010 0.316790 0.614690 -0.615631
O2    O     O_R   0.500000 0.316760 0.385350 -0.604335
O3    O     O_R   0.377150 0.500020 0.614720 -0.606759
O4    O     O_R   0.377140 0.499990 0.385380 -0.630677
O5    O     O_R   0.500000 0.683240 0.614650 -0.659742
O6    O     O_R   0.499990 0.683210 0.385310 -0.584666
O7    O     O_R   0.622860 0.500010 0.614620 -0.636636
O8    O     O_R   0.622850 0.499980 0.385280 -0.585575
Zn1   Zn    Zn3+2 0.500010 0.500020 0.653130 0.930984
Zn2   Zn    Zn3+2 0.499990 0.499980 0.346870 0.959730
N3    N     N_3   0.905406 0.268736 0.452172 -0.452895
H10   H     H_    0.925407 0.180395 0.484357 0.184385
H11   H     H_    0.839856 0.265531 0.469199 0.189225
N4    N     N_3   0.074569 0.303658 0.664255 -0.472961
H12   H     H_    0.042151 0.336537 0.746919 0.176946
H13   H     H_    0.058869 0.207587 0.667397 0.184845
N5    N     N_3   0.926915 0.729103 0.547138 -0.477780
H14   H     H_    0.922479 0.797079 0.620444 0.185608
H15   H     H_    0.969560 0.766238 0.474602 0.189338
N6    N     N_2   0.629747 0.144086 0.346694 -0.309357
H16   H     H_    0.691233 0.117596 0.362708 0.207505
C31   C     C_3   0.611484 0.173251 0.206705 -0.707370
H17   H     H_    0.647697 0.112022 0.140045 0.196400
H18   H     H_    0.631075 0.272330 0.183332 0.252142
H19   H     H_    0.542669 0.160989 0.184584 0.249856
N7    N     N_3   0.631323 0.874994 0.350235 -0.447220
H20   H     H_    0.689028 0.896933 0.396570 0.168879
H21   H     H_    0.634987 0.908264 0.250559 0.193235
N8    N     N_2   0.483638 0.091070 0.812333 -0.278958
H22   H     H_    0.478216 0.181439 0.844029 0.245170
C32   C     C_3   0.571458 0.057213 0.794589 -0.747083
H23   H     H_    0.603453 0.058326 0.893688 0.219206
H24   H     H_    0.605244 0.126551 0.726515 0.236578
H25   H     H_    0.576975 0.962336 0.753506 0.237712
N9    N     N_3   0.614190 0.652079 0.142540 -0.374728
H26   H     H_    0.675784 0.630518 0.113540 0.181705
H27   H     H_    0.603873 0.744883 0.113062 0.169188
N10   N     N_2   0.075127 0.278064 0.425980 -0.287479
H28   H     H_    0.045171 0.274037 0.334861 0.229776
C33   C     C_3   0.148561 0.200249 0.440745 -0.809446
H29   H     H_    0.178976 0.188832 0.340929 0.226020
H30   H     H_    0.128095 0.106072 0.481208 0.235041
H31   H     H_    0.196510 0.242311 0.508667 0.262694
N11   N     N_3   0.610850 0.667621 0.860746 -0.470573
H32   H     H_    0.612781 0.657100 0.758205 0.264415
H33   H     H_    0.586210 0.755908 0.875935 0.153485
N12   N     N_2   0.321889 0.295396 0.873852 -0.280127
H34   H     H_    0.340293 0.215064 0.923995 0.247407
C34   C     C_3   0.233879 0.292266 0.835824 -0.795312
H35   H     H_    0.217080 0.200241 0.791826 0.233723
H36   H     H_    0.223405 0.366804 0.758700 0.269039
H37   H     H_    0.192512 0.306126 0.924797 0.238561
N13   N     N_3   0.320082 0.300651 0.150035 -0.447174
H38   H     H_    0.339159 0.301366 0.250528 0.223592
H39   H     H_    0.253935 0.304240 0.151473 0.186857
N14   N     N_3   0.918705 0.460637 0.250280 -0.427077
H40   H     H_    0.921617 0.512490 0.159346 0.168461
H41   H     H_    0.955117 0.382964 0.234392 0.204312
N15   N     N_3   0.076665 0.549861 0.752331 -0.476961
H42   H     H_    0.142826 0.552390 0.759084 0.191814
H43   H     H_    0.055483 0.607132 0.828258 0.197470
N16   N     N_2   0.094202 0.719300 0.590033 -0.316921
H44   H     H_    0.147326 0.723465 0.528934 0.232122
C35   C     C_3   0.099270 0.811494 0.694803 -0.871100
H45   H     H_    0.111990 0.905957 0.648094 0.241667
H46   H     H_    0.152192 0.790166 0.764041 0.241659
H47   H     H_    0.039292 0.814098 0.753176 0.237984
N17   N     N_2   0.907524 0.596804 0.738643 -0.289158
H48   H     H_    0.921806 0.670249 0.800973 0.214100
C36   C     C_3   0.877732 0.484951 0.812497 -0.826068
H49   H     H_    0.846168 0.512684 0.907044 0.236940
H50   H     H_    0.931315 0.426389 0.842483 0.230363
H51   H     H_    0.828548 0.432584 0.755838 0.250920

loop_
_geom_bond_atom_site_label_1
_geom_bond_atom_site_label_2
_ccdc_geom_bond_type
C28   N14   S    
N4    H12   S    
C5    N16   S    
C18   C21   A    
C36   H49   S    
C4    N17   S    
C3    C6    S    
C26   N4    S    
C31   H18   S    
C20   N2    A    
C7    C8    T    
N11   H32   S    
C22   H5    S    
C35   H46   S    
C24   H6    S    
C18   C24   S    
C3    C28   S    
N9    H27   S    
N17   C36   S    
O4    Zn2   S    
C27   H8    S    
N5    H15   S    
C15   C16   S    
N6    C31   S    
C18   N1    A    
N14   H41   S    
N16   C35   S    
C19   C20   A    
N3    H11   S    
C16   C17   S    
O8    Zn2   S    
N8    H22   S    
C22   N12   S    
C9    C10   A    
O7    Zn1   S    
C31   H19   S    
C17   N8    S    
C23   O5    A    
C21   C22   S    
C27   C30   S    
N6    H16   S    
C32   H25   S    
C33   H30   S    
C1    O2    A    
N14   H40   S    
N11   H33   S    
C25   C29   S    
C35   H47   S    
C23   O6    A    
N7    H20   S    
N9    H26   S    
C32   H24   S    
C19   N1    A    
N10   C33   S    
C32   H23   S    
O6    Zn2   S    
C28   H9    S    
N5    H14   S    
C33   H29   S    
N10   H28   S    
C2    H1    S    
N7    H21   S    
C14   C23   S    
C24   N13   S    
C16   H3    S    
C34   H36   S    
C5    N15   S    
C8    C12   S    
C20   N11   S    
N15   H43   S    
C36   H50   S    
N13   H39   S    
C25   O7    A    
C2    N3    S    
O1    Zn1   S    
C21   N2    A    
C9    C17   S    
N12   C34   S    
C26   C30   S    
N4    H13   S    
C22   C24   S    
C17   H4    S    
C3    C4    S    
N2    Zn1   S    
N16   H44   S    
C33   H31   S    
N3    H10   S    
C34   H37   S    
C5    C30   S    
C13   N7    S    
O3    Zn1   S    
C19   N9    S    
C1    C10   S    
C4    C5    S    
C11   N6    S    
C2    C26   S    
C12   O4    A    
C16   H2    S    
N1    Zn2   S    
C35   H45   S    
O5    Zn1   S    
C26   N10   S    
C2    C3    S    
C9    C15   A    
C12   O3    A    
N17   H48   S    
C11   C13   A    
O2    Zn2   S    
C34   H35   S    
C27   H7    S    
N15   H42   S    
C36   H51   S    
N13   H38   S    
C25   O8    A    
C10   C11   A    
C31   H17   S    
C1    O1    A    
C6    C29   T    
N12   H34   S    
C4    N5    S    
C27   C28   S    
C7    C30   S    
C14   C15   A    
N8    C32   S    
C13   C14   A    
