data_mof_unit_45321.cif
_audit_creation_date              2012-12-10T17:55:03-0500
_audit_creation_method            fapswitch 2.2
_symmetry_space_group_name_H-M    P1
_symmetry_Int_Tables_number       1
_space_group_crystal_system       triclinic
_cell_length_a                    8.724305
_cell_length_b                    10.828221
_cell_length_c                    9.626807
_cell_angle_alpha                 89.990072
_cell_angle_beta                  97.891185
_cell_angle_gamma                 92.482233
_cell_volume                      899.959637433

loop_
_atom_site_label
_atom_site_type_symbol
_atom_type_description
_atom_site_fract_x
_atom_site_fract_y
_atom_site_fract_z
_atom_type_partial_charge
C1    C     C_R   0.500003 0.262396 0.499971 0.817982
C2    C     C_R   0.499997 0.737604 0.500029 0.817982
C3    C     C_R   0.204118 0.499648 0.463951 0.902178
C4    C     C_R   0.795882 0.500352 0.536049 0.902177
C5    C     C_2   0.038019 0.498689 0.444373 -0.309601
C6    C     C_2   0.961981 0.501311 0.555627 -0.309601
C7    C     C_R   0.499626 0.063874 0.373760 -0.132476
C8    C     C_R   0.500374 0.936126 0.626240 -0.132476
C9    C     C_R   0.499196 0.936102 0.373717 -0.128545
C10   C     C_R   0.500804 0.063898 0.626283 -0.128545
C11   C     C_R   0.499814 0.871626 0.499986 -0.036028
C12   C     C_R   0.500186 0.128374 0.500014 -0.036028
C13   C     C_R   0.400753 0.421882 0.061672 0.287550
C14   C     C_R   0.599247 0.578118 0.938328 0.287551
C15   C     C_R   0.400938 0.421776 0.913697 0.277543
C16   C     C_R   0.599062 0.578224 0.086303 0.277543
Cu1   Cu    Cu3+1 0.500000 0.500020 0.640660 1.046816
Cu2   Cu    Cu3+1 0.500000 0.499980 0.359340 1.046816
H1    H     H_    0.978103 0.495451 0.337632 0.214737
H2    H     H_    0.021897 0.504549 0.662368 0.214737
H3    H     H_    0.499547 0.111770 0.274993 0.190338
H4    H     H_    0.500452 0.888230 0.725007 0.190338
H5    H     H_    0.498298 0.888186 0.274863 0.191338
H6    H     H_    0.501702 0.111814 0.725137 0.191337
N1    N     N_R   0.500040 0.500030 0.852080 -0.250372
N2    N     N_R   0.499960 0.499970 0.147920 -0.250372
O1    O     O_R   0.499990 0.319660 0.618740 -0.559951
O2    O     O_R   0.500010 0.680340 0.381260 -0.559951
O3    O     O_R   0.499990 0.319630 0.381170 -0.563768
O4    O     O_R   0.500010 0.680370 0.618830 -0.563768
O5    O     O_R   0.274840 0.500010 0.591370 -0.553625
O6    O     O_R   0.725160 0.499990 0.408630 -0.553624
O7    O     O_R   0.274830 0.499980 0.353800 -0.544425
O8    O     O_R   0.725170 0.500020 0.646200 -0.544425
Br1   Br    Br    0.257334 0.309354 0.138274 -0.415261
Br2   Br    Br    0.742666 0.690646 0.861726 -0.415261
Br3   Br    Br    0.258911 0.307985 0.801844 -0.434430
Br4   Br    Br    0.741089 0.692015 0.198156 -0.434430

loop_
_geom_bond_atom_site_label_1
_geom_bond_atom_site_label_2
_ccdc_geom_bond_type
C8    H4    S    
C5    H1    S    
C6    H2    S    
Cu2   N2    S    
C2    O4    A    
Cu1   N1    S    
C1    O3    A    
Cu1   Cu2   S    
Cu2   O3    S    
C3    O5    A    
Cu1   O4    S    
C9    C11   A    
C4    O6    A    
C1    C12   S    
C10   C12   A    
C8    C11   A    
C2    C11   S    
C8    C10   A    
C13   Br1   S    
C4    O8    A    
C13   C15   A    
C14   N1    A    
C14   Br2   S    
C5    C6    D    
Cu1   O5    S    
Cu2   O7    S    
C14   C16   A    
C13   N2    A    
C15   N1    A    
Cu2   O6    S    
Cu1   O8    S    
C3    O7    A    
Cu1   O1    S    
C7    C9    A    
Cu2   O2    S    
C4    C6    S    
C1    O1    A    
C9    H5    S    
C2    O2    A    
C10   H6    S    
C7    C12   A    
C7    H3    S    
C15   Br3   S    
C16   Br4   S    
C3    C5    S    
C16   N2    A    
