data_mof_unit_15539.cif
_audit_creation_date              2012-10-26T18:52:35-0400
_audit_creation_method            fapswitch 2.2
_symmetry_space_group_name_H-M    P1
_symmetry_Int_Tables_number       1
_space_group_crystal_system       triclinic
_cell_length_a                    10.721361
_cell_length_b                    14.699327
_cell_length_c                    14.717275
_cell_angle_alpha                 65.072947
_cell_angle_beta                  103.546422
_cell_angle_gamma                 103.061976
_cell_volume                      2023.39490939

loop_
_atom_site_label
_atom_site_type_symbol
_atom_type_description
_atom_site_fract_x
_atom_site_fract_y
_atom_site_fract_z
_atom_type_partial_charge
Br1   Br    Br    0.385388 0.340345 0.786907 -0.568611
Br2   Br    Br    0.910218 0.227151 0.395098 -0.542087
C1    C     C_R   0.477464 0.119673 0.312188 0.556081
C2    C     C_R   0.455238 0.359064 0.075551 0.006729
C3    C     C_R   0.430472 0.319416 0.998969 0.064536
C4    C     C_R   0.259877 0.001157 0.498708 0.540789
C5    C     C_R   0.465366 0.465280 0.048358 0.027252
C6    C     C_R   0.466909 0.531906 0.945222 0.000240
C7    C     C_R   0.440406 0.489987 0.870861 -0.109697
C8    C     C_R   0.421082 0.385958 0.896623 0.152234
C9    C     C_R   0.471233 0.506910 0.120634 -0.120618
C10   C     C_R   0.487201 0.610864 0.093736 -0.127853
C11   C     C_R   0.499464 0.677228 0.994451 0.053534
C12   C     C_3   0.877959 0.003718 0.495733 0.051011
C13   C     C_R   0.491286 0.638542 0.919456 0.034694
C14   C     C_R   0.518738 0.782248 0.969062 -0.133435
C15   C     C_R   0.528883 0.849648 0.869545 -0.138447
C16   C     C_R   0.520868 0.880308 0.687759 0.539478
C17   C     C_R   0.509180 0.708188 0.821195 -0.131921
C18   C     C_R   0.719067 0.286598 0.666309 -0.132196
C19   C     C_R   0.684466 0.204372 0.637449 0.064622
C20   C     C_R   0.517598 0.284602 0.509771 0.052961
C21   C     C_R   0.548361 0.371284 0.535072 0.020097
C22   C     C_R   0.651274 0.370007 0.615789 0.059611
C23   C     C_3   0.927673 0.910446 0.586823 -0.271588
C24   C     C_R   0.481152 0.458059 0.484240 0.037363
C25   C     C_R   0.518035 0.541591 0.516130 0.038288
C26   C     C_R   0.620406 0.535313 0.597872 -0.114452
C27   C     C_R   0.685611 0.451499 0.646104 -0.091252
C28   C     C_R   0.739753 0.001617 0.497419 0.567912
C29   C     C_R   0.378713 0.464308 0.402542 -0.128785
C30   C     C_R   0.313755 0.548256 0.354128 -0.118065
C31   C     C_R   0.348218 0.629812 0.384371 0.039532
C32   C     C_R   0.451028 0.628467 0.465170 0.007653
C33   C     C_R   0.280653 0.713350 0.333721 -0.155389
C34   C     C_3   0.962750 0.102147 0.505282 0.041781
C35   C     C_R   0.315410 0.795636 0.362516 0.040368
C36   C     C_R   0.482077 0.715270 0.490307 0.039355
C37   C     C_3   0.039798 0.002506 0.395419 -0.237733
C38   C     C_3   0.894889 0.998011 0.396484 -0.218496
C39   C     C_3   0.070467 0.908250 0.585898 -0.244624
C40   C     C_3   0.106319 0.099267 0.509628 -0.196278
C41   C     C_3   0.122052 0.002788 0.497376 0.018044
C42   C     C_R   0.460256 0.186875 0.204302 0.001994
C43   C     C_R   0.522904 0.812609 0.794996 -0.005757
C44   C     C_R   0.416431 0.213914 0.026758 -0.106853
C45   C     C_R   0.430040 0.148300 0.128457 -0.149453
C46   C     C_R   0.473641 0.291287 0.177495 -0.119053
Cu1   Cu    Cu3+1 0.465900 0.918260 0.475680 0.922493
Cu2   Cu    Cu3+1 0.534100 0.081740 0.524320 0.964036
H1    H     H_    0.052401 0.936133 0.382259 0.127533
H2    H     H_    0.502637 0.318384 0.237854 0.132501
H3    H     H_    0.072732 0.072064 0.331366 0.130792
H4    H     H_    0.429367 0.536024 0.790798 0.140963
H5    H     H_    0.459106 0.461095 0.198407 0.101460
H6    H     H_    0.523901 0.812175 0.025935 0.107931
H7    H     H_    0.763781 0.450350 0.708351 0.117192
H8    H     H_    0.560021 0.721767 0.549351 0.113966
H9    H     H_    0.263850 0.860396 0.323094 0.119925
H10   H     H_    0.235622 0.549423 0.291849 0.124271
H11   H     H_    0.798082 0.284810 0.728113 0.104448
H12   H     H_    0.952084 0.105961 0.577028 0.142252
H13   H     H_    0.736201 0.139707 0.676751 0.121832
H14   H     H_    0.439649 0.278071 0.450737 0.111048
H15   H     H_    0.854691 0.060929 0.328788 0.163982
H16   H     H_    0.652829 0.594159 0.626964 0.086838
H17   H     H_    0.346035 0.405327 0.373640 0.097080
H18   H     H_    0.201699 0.715194 0.271864 0.096411
H19   H     H_    0.840405 0.925951 0.391066 0.124026
H20   H     H_    0.078133 0.837920 0.577640 0.142484
H21   H     H_    0.867829 0.839031 0.583533 0.127765
H22   H     H_    0.161215 0.099797 0.583755 0.127564
H23   H     H_    0.129880 0.906134 0.659573 0.120282
H24   H     H_    0.148311 0.168069 0.449282 0.166759
H25   H     H_    0.918912 0.913551 0.659326 0.107390
H26   H     H_    0.514135 0.683181 0.763309 0.116315
H27   H     H_    0.539534 0.930324 0.850750 0.134170
H28   H     H_    0.490629 0.639446 0.151373 0.111256
H29   H     H_    0.395692 0.181004 0.970606 0.167064
H30   H     H_    0.418869 0.067518 0.147605 0.127601
N1    N     N_R   0.585360 0.204570 0.560800 -0.226202
N2    N     N_R   0.414550 0.795430 0.439160 -0.232685
O1    O     O_R   0.455060 0.022100 0.338110 -0.510695
O2    O     O_R   0.512640 0.160150 0.379180 -0.494308
O3    O     O_R   0.288900 0.930980 0.479450 -0.505965
O4    O     O_R   0.346480 0.069030 0.520520 -0.514475
O5    O     O_R   0.487360 0.839850 0.620820 -0.509674
O6    O     O_R   0.544940 0.977900 0.661890 -0.509929
O7    O     O_R   0.653520 0.930970 0.479480 -0.518122
O8    O     O_R   0.711100 0.069020 0.520550 -0.471089

loop_
_geom_bond_atom_site_label_1
_geom_bond_atom_site_label_2
_ccdc_geom_bond_type
C37   H1    S    
Cu1   O5    S    
C34   C40   S    
C28   O8    A    
C39   H23   S    
Cu2   O2    S    
C5    C6    A    
C13   C17   A    
C24   C25   A    
C4    O3    A    
C26   C27   A    
C33   C35   A    
C15   C43   A    
C28   O7    A    
C12   C34   S    
C44   H29   S    
C21   C24   A    
C18   H11   S    
C26   H16   S    
C22   C27   A    
Cu2   O8    S    
C18   C22   A    
C14   C15   A    
C10   H28   S    
C21   C22   A    
C23   H21   S    
C7    C8    A    
C42   C45   A    
Cu2   O6    S    
C24   C29   A    
C36   H8    S    
C36   N2    A    
C39   C41   S    
C45   H30   S    
C12   C28   S    
C2    C5    A    
C34   H12   S    
C40   H22   S    
C25   C32   A    
C1    C42   S    
C40   H24   S    
C38   H19   S    
C27   H7    S    
C20   N1    A    
Cu1   O3    S    
C23   C39   S    
C37   C38   S    
Cu2   O4    S    
C6    C7    A    
C37   C41   S    
C20   H14   S    
C16   O6    A    
C23   H25   S    
Cu1   N2    S    
C5    C9    A    
C14   H6    S    
C29   C30   A    
C15   H27   S    
C31   C32   A    
C18   C19   A    
C35   H9    S    
C19   N1    A    
C6    C13   A    
C4    C41   S    
C11   C13   A    
C1    O1    A    
C35   N2    A    
C40   C41   S    
C30   H10   S    
C16   C43   S    
C25   C26   A    
C9    H5    S    
C2    C46   A    
Br2   C34   S    
C44   C45   A    
C17   H26   S    
C32   C36   A    
Br1   C8    S    
Cu1   O7    S    
C2    C3    A    
C9    C10   A    
C17   C43   A    
C3    C44   A    
C16   O5    A    
C4    O4    A    
C38   H15   S    
C30   C31   A    
Cu1   O1    S    
C3    C8    A    
C37   H3    S    
C33   H18   S    
C31   C33   A    
C12   C23   S    
C19   H13   S    
C29   H17   S    
C12   C38   S    
C46   H2    S    
C10   C11   A    
Cu1   Cu2   S    
C11   C14   A    
C1    O2    A    
C20   C21   A    
C7    H4    S    
C42   C46   A    
Cu2   N1    S    
C39   H20   S    
