data_mof_unit_8321.cif
_audit_creation_date              2012-12-10T20:28:46-0500
_audit_creation_method            fapswitch 2.2
_symmetry_space_group_name_H-M    P1
_symmetry_Int_Tables_number       1
_space_group_crystal_system       triclinic
_cell_length_a                    10.715921
_cell_length_b                    10.646005
_cell_length_c                    9.861145
_cell_angle_alpha                 89.866609
_cell_angle_beta                  91.310059
_cell_angle_gamma                 90.244827
_cell_volume                      1124.66954089

loop_
_atom_site_label
_atom_site_type_symbol
_atom_type_description
_atom_site_fract_x
_atom_site_fract_y
_atom_site_fract_z
_atom_type_partial_charge
C1    C     C_R   0.502313 0.260462 0.499689 0.888653
C2    C     C_R   0.428027 0.935192 0.402648 -0.216693
C3    C     C_R   0.501777 0.871282 0.499177 -0.113890
C4    C     C_R   0.261158 0.515119 0.499101 0.873728
C5    C     C_R   0.588886 0.936826 0.578615 0.061863
C6    C     C_3   0.639493 0.933080 0.722494 0.345279
C7    C     C_3   0.653152 0.076724 0.709331 -0.494957
C8    C     C_R   0.391960 0.479636 0.069282 0.161365
C9    C     C_R   0.602077 0.538230 0.074337 -0.113879
C10   C     C_R   0.601270 0.540037 0.930423 -0.174310
C11   C     C_R   0.392602 0.475658 0.927256 0.199200
C12   C     C_R   0.066960 0.555034 0.621826 0.109332
C13   C     C_3   0.308591 0.361399 0.926235 -0.067248
C14   C     C_3   0.306490 0.370214 0.080444 -0.505423
C15   C     C_R   0.499746 0.739617 0.500188 0.878553
C16   C     C_R   0.740759 0.493355 0.502330 0.880084
C17   C     C_R   0.125074 0.611669 0.736934 -0.168656
C18   C     C_R   0.070540 0.603534 0.863614 -0.169110
C19   C     C_R   0.960002 0.536429 0.877324 -0.176683
C20   C     C_R   0.897772 0.489302 0.762289 -0.185984
C21   C     C_R   0.944278 0.511575 0.630974 0.108269
C22   C     C_3   0.764189 0.862360 0.733031 -0.857208
C23   C     C_R   0.128642 0.534931 0.498794 -0.132918
C24   C     C_3   0.367434 0.238775 0.880237 -0.821731
C25   C     C_3   0.542484 0.893496 0.829305 -0.351073
C26   C     C_3   0.583873 0.924851 0.974974 -0.874937
C27   C     C_R   0.061666 0.509209 0.379369 -0.223211
C28   C     C_R   0.935351 0.491528 0.383257 -0.217194
C29   C     C_R   0.875356 0.491792 0.507791 -0.130848
C30   C     C_R   0.597055 0.063715 0.570188 0.019523
C31   C     C_R   0.507395 0.128940 0.495027 -0.075033
C32   C     C_R   0.429391 0.065137 0.401916 -0.213052
H1    H     H_    0.106929 0.499794 0.283151 0.160057
H2    H     H_    0.117154 0.643827 0.951929 0.132274
H3    H     H_    0.921883 0.521628 0.976875 0.128991
H4    H     H_    0.816958 0.431028 0.778794 0.163983
H5    H     H_    0.885189 0.475545 0.288136 0.162154
H6    H     H_    0.365961 0.115259 0.334058 0.149727
H7    H     H_    0.365150 0.885286 0.333769 0.152963
H8    H     H_    0.826014 0.888705 0.648447 0.225079
H9    H     H_    0.813898 0.885158 0.829847 0.242227
H10   H     H_    0.747254 0.759474 0.728412 0.245642
H11   H     H_    0.318484 0.157850 0.926828 0.226611
H12   H     H_    0.593391 0.132278 0.776150 0.201902
H13   H     H_    0.355697 0.228684 0.769205 0.261873
H14   H     H_    0.467285 0.235461 0.912086 0.241972
H15   H     H_    0.667313 0.869268 0.005530 0.262019
H16   H     H_    0.605138 0.026401 0.986352 0.259519
H17   H     H_    0.507620 0.900458 0.044899 0.250221
H18   H     H_    0.451787 0.940614 0.807077 0.189856
H19   H     H_    0.525947 0.790958 0.825129 0.232983
H20   H     H_    0.751388 0.110563 0.706359 0.188492
H21   H     H_    0.685256 0.567305 0.130079 0.145365
H22   H     H_    0.682300 0.573548 0.878531 0.154513
H23   H     H_    0.215809 0.379364 0.877614 0.188740
H24   H     H_    0.213601 0.397481 0.117544 0.168641
H25   H     H_    0.350553 0.290477 0.136515 0.222623
H26   H     H_    0.212739 0.661875 0.729855 0.148351
N1    N     N_R   0.499160 0.499140 0.142800 -0.099218
N2    N     N_R   0.499160 0.499180 0.857150 -0.106932
O1    O     O_R   0.500020 0.316790 0.614690 -0.620444
O2    O     O_R   0.500000 0.316760 0.385350 -0.617048
O3    O     O_R   0.316770 0.500020 0.614690 -0.625106
O4    O     O_R   0.316760 0.499980 0.385350 -0.620974
O5    O     O_R   0.500000 0.683240 0.614650 -0.647771
O6    O     O_R   0.499980 0.683210 0.385310 -0.611958
O7    O     O_R   0.683240 0.500020 0.614650 -0.637343
O8    O     O_R   0.683230 0.499980 0.385310 -0.623735
Zn1   Zn    Zn3+2 0.500010 0.500020 0.653130 0.919736
Zn2   Zn    Zn3+2 0.499990 0.499980 0.346870 0.942202

loop_
_geom_bond_atom_site_label_1
_geom_bond_atom_site_label_2
_ccdc_geom_bond_type
C12   C17   A    
C22   H10   S    
C1    O1    A    
C10   N2    A    
C25   H19   S    
C6    C7    S    
C16   O8    A    
O4    Zn2   S    
C11   C13   S    
C9    C10   A    
C4    O4    A    
C14   H24   S    
C31   C32   A    
C12   C23   A    
C26   H16   S    
C17   H26   S    
C24   H14   S    
C1    O2    A    
C15   O5    A    
C17   C18   A    
C16   C29   S    
C22   H8    S    
C7    C30   S    
C19   H3    S    
C7    H12   S    
C27   H1    S    
O7    Zn1   S    
C18   H2    S    
C4    O3    A    
O6    Zn2   S    
N2    Zn1   S    
C8    C11   A    
O5    Zn1   S    
C24   H13   S    
C26   H15   S    
O8    Zn2   S    
C28   C29   A    
C14   H25   S    
C7    H20   S    
C18   C19   A    
C32   H6    S    
C23   C27   A    
C8    N1    A    
O3    Zn1   S    
C5    C6    S    
C10   H22   S    
C8    C14   S    
C22   H9    S    
C9    H21   S    
C2    H7    S    
N1    Zn2   S    
C16   O7    A    
C11   N2    A    
C6    C25   S    
C3    C5    A    
C1    C31   S    
C3    C15   S    
C20   C21   A    
O2    Zn2   S    
C2    C32   A    
C5    C30   A    
C26   H17   S    
O1    Zn1   S    
C27   C28   A    
C24   H11   S    
C4    C23   S    
C30   C31   A    
C20   H4    S    
C2    C3    A    
C13   C14   S    
C13   H23   S    
C25   C26   S    
C25   H18   S    
C15   O6    A    
C21   C29   A    
C12   C21   A    
C19   C20   A    
C13   C24   S    
C28   H5    S    
C9    N1    A    
C6    C22   S    
