data_mof_unit_40363.cif
_audit_creation_date              2012-12-10T17:28:30-0500
_audit_creation_method            fapswitch 2.2
_symmetry_space_group_name_H-M    P1
_symmetry_Int_Tables_number       1
_space_group_crystal_system       triclinic
_cell_length_a                    10.64474
_cell_length_b                    12.018291
_cell_length_c                    12.864929
_cell_angle_alpha                 93.446794
_cell_angle_beta                  90.471539
_cell_angle_gamma                 86.10219
_cell_volume                      1639.0392169

loop_
_atom_site_label
_atom_site_type_symbol
_atom_type_description
_atom_site_fract_x
_atom_site_fract_y
_atom_site_fract_z
_atom_type_partial_charge
C1    C     C_R   0.495324 0.521952 0.700013 0.883436
C2    C     C_R   0.565868 0.537471 0.130310 0.121085
C3    C     C_R   0.457255 0.462669 0.976704 0.095920
C4    C     C_R   0.542740 0.537327 0.023297 0.095922
C5    C     C_R   0.379276 0.956036 0.405483 -0.368267
C6    C     C_R   0.620724 0.043963 0.594516 -0.368269
C7    C     C_R   0.389157 0.839491 0.415136 0.365231
C8    C     C_R   0.610845 0.160509 0.584862 0.365223
C9    C     C_R   0.553174 0.857783 0.539961 -0.098729
C10   C     C_R   0.446825 0.142217 0.460039 -0.098728
C11   C     C_R   0.543946 0.975218 0.534165 0.062831
C12   C     C_R   0.504675 0.478047 0.299988 0.883438
C13   C     C_R   0.456053 0.024782 0.465835 0.062828
C14   C     C_R   0.739103 0.499859 0.499535 0.881375
C15   C     C_R   0.260897 0.500142 0.500464 0.881373
C16   C     C_R   0.872616 0.444070 0.311285 -0.145751
C17   C     C_R   0.127381 0.555986 0.688694 -0.145796
C18   C     C_R   0.939206 0.419949 0.218926 -0.158932
C19   C     C_R   0.060783 0.580170 0.781030 -0.158944
C20   C     C_R   0.069391 0.423655 0.218569 -0.150228
C21   C     C_R   0.930591 0.576485 0.781382 -0.150250
C22   C     C_R   0.133117 0.450399 0.310796 -0.160033
C23   C     C_R   0.501985 0.464807 0.189033 -0.075671
C24   C     C_R   0.866869 0.549696 0.689174 -0.160020
C25   C     C_R   0.066908 0.474148 0.405564 0.066522
C26   C     C_R   0.933087 0.525887 0.594425 0.066557
C27   C     C_R   0.935952 0.472306 0.405589 0.065670
C28   C     C_R   0.064046 0.527718 0.594404 0.065698
C29   C     C_R   0.128501 0.500731 0.500154 -0.191281
C30   C     C_R   0.871498 0.499276 0.499845 -0.191285
C31   C     C_3   0.616022 0.722717 0.202749 -0.715754
C32   C     C_3   0.384025 0.277261 0.797258 -0.715711
C33   C     C_3   0.822685 0.215206 0.614037 -0.750457
C34   C     C_R   0.498009 0.535192 0.810968 -0.075672
C35   C     C_3   0.177320 0.784786 0.385956 -0.750470
C36   C     C_R   0.600644 0.611999 0.962511 -0.224858
C37   C     C_R   0.399347 0.388000 0.037491 -0.224862
C38   C     C_R   0.577124 0.611626 0.857195 -0.278992
C39   C     C_R   0.422863 0.388376 0.142808 -0.278990
C40   C     C_R   0.434132 0.462522 0.869690 0.121086
H1    H     H_    0.878826 0.594466 0.853183 0.135717
H2    H     H_    0.765799 0.547146 0.692874 0.128847
H3    H     H_    0.374380 0.332369 0.189120 0.160506
H4    H     H_    0.625597 0.667640 0.810886 0.160493
H5    H     H_    0.665740 0.670087 0.994838 0.160543
H6    H     H_    0.334247 0.329915 0.005166 0.160539
H7    H     H_    0.379181 0.181454 0.408016 0.140449
H8    H     H_    0.620818 0.818547 0.591985 0.140447
H9    H     H_    0.745766 0.594098 0.148465 0.213532
H10   H     H_    0.670528 0.777366 0.156076 0.203302
H11   H     H_    0.633806 0.744529 0.286361 0.260242
H12   H     H_    0.121146 0.405736 0.146747 0.135718
H13   H     H_    0.514235 0.740002 0.186044 0.231071
H14   H     H_    0.254247 0.405864 0.851524 0.213529
H15   H     H_    0.329536 0.222606 0.843940 0.203301
H16   H     H_    0.485816 0.259997 0.813964 0.231059
H17   H     H_    0.366248 0.255433 0.713644 0.260223
H18   H     H_    0.681123 0.223771 0.723187 0.199354
H19   H     H_    0.875561 0.281164 0.655372 0.242361
H20   H     H_    0.832665 0.222582 0.528845 0.258198
H21   H     H_    0.864490 0.132312 0.635150 0.211999
H22   H     H_    0.318887 0.776225 0.276808 0.199355
H23   H     H_    0.311030 0.992353 0.352116 0.150237
H24   H     H_    0.124453 0.718811 0.344642 0.242379
H25   H     H_    0.135508 0.867665 0.364817 0.212002
H26   H     H_    0.167337 0.777438 0.471150 0.258191
H27   H     H_    0.688971 0.007646 0.647882 0.150235
H28   H     H_    0.771540 0.440393 0.307957 0.134241
H29   H     H_    0.228460 0.559656 0.692022 0.134241
H30   H     H_    0.889529 0.398853 0.147432 0.132751
H31   H     H_    0.110455 0.601310 0.852506 0.132785
H32   H     H_    0.234177 0.452977 0.307090 0.128855
N1    N     N_R   0.523130 0.207800 0.519340 -0.118073
N2    N     N_R   0.476870 0.792200 0.480660 -0.118070
N3    N     N_2   0.656406 0.606241 0.179252 -0.316668
N4    N     N_2   0.343613 0.393734 0.820744 -0.316647
N5    N     N_2   0.691524 0.229381 0.644133 -0.259260
N6    N     N_2   0.308482 0.770617 0.355862 -0.259264
O1    O     O_R   0.506170 0.421700 0.658830 -0.584592
O2    O     O_R   0.493830 0.578300 0.341170 -0.584603
O3    O     O_R   0.491330 0.609310 0.646410 -0.638745
O4    O     O_R   0.508670 0.390690 0.353590 -0.638734
O5    O     O_R   0.690650 0.406190 0.506220 -0.596831
O6    O     O_R   0.309350 0.593810 0.493780 -0.596833
O7    O     O_R   0.675800 0.593810 0.493800 -0.623381
O8    O     O_R   0.324200 0.406190 0.506200 -0.623371
Zn1   Zn    Zn3+2 0.509910 0.374730 0.508290 0.951068
Zn2   Zn    Zn3+2 0.490090 0.625270 0.491710 0.951057

loop_
_geom_bond_atom_site_label_1
_geom_bond_atom_site_label_2
_ccdc_geom_bond_type
C18   H30   S    
O5    Zn1   S    
C4    C36   A    
C17   H29   S    
C24   H2    S    
C19   H31   S    
O1    Zn1   S    
C12   C23   S    
C34   C40   A    
C14   O5    A    
C28   C29   A    
C19   C21   A    
C24   C26   A    
C10   N1    A    
C35   H25   S    
C1    O3    A    
O4    Zn1   S    
C5    H23   S    
N1    Zn1   S    
H18   N5    S    
C22   C25   A    
H9    N3    S    
C35   H24   S    
C16   H28   S    
C32   H15   S    
C5    C13   A    
C16   C27   A    
C33   H19   S    
O2    Zn2   S    
C27   C30   A    
C32   H17   S    
C14   C30   S    
C22   H32   S    
C1    C34   S    
C15   C29   S    
C7    N2    A    
C25   C29   A    
C37   C39   A    
C6    C11   A    
C5    C7    A    
O8    Zn1   S    
C6    C8    A    
C35   H26   S    
C40   N4    S    
C2    C4    A    
C38   H4    S    
C31   N3    S    
C12   O4    A    
C36   H5    S    
C31   H13   S    
C9    C11   A    
C15   O8    A    
H14   N4    S    
C16   C18   A    
C6    H27   S    
C20   C22   A    
C3    C40   A    
C26   C30   A    
C33   H20   S    
C7    N6    S    
C8    N5    S    
C1    O1    A    
C21   H1    S    
C9    N2    A    
C31   H10   S    
C3    C4    A    
C10   H7    S    
O7    Zn2   S    
C34   C38   A    
C17   C28   A    
H22   N6    S    
O6    Zn2   S    
C14   O7    A    
C31   H11   S    
C10   C13   A    
C32   N4    S    
C39   H3    S    
C15   O6    A    
C25   C27   A    
C35   N6    S    
C26   C28   A    
C36   C38   A    
C20   H12   S    
C11   C13   A    
C33   N5    S    
C23   C39   A    
C12   O2    A    
C8    N1    A    
C17   C19   A    
C18   C20   A    
O3    Zn2   S    
C3    C37   A    
C9    H8    S    
C33   H21   S    
C21   C24   A    
C2    C23   A    
N2    Zn2   S    
C37   H6    S    
C32   H16   S    
C2    N3    S    
