data_mof_unit_7859.cif
_audit_creation_date              2012-12-10T21:31:19-0500
_audit_creation_method            fapswitch 2.2
_symmetry_space_group_name_H-M    P1
_symmetry_Int_Tables_number       1
_space_group_crystal_system       triclinic
_cell_length_a                    14.987725
_cell_length_b                    16.063551
_cell_length_c                    16.688123
_cell_angle_alpha                 88.468414
_cell_angle_beta                  89.667619
_cell_angle_gamma                 92.613381
_cell_volume                      4012.0554542

loop_
_atom_site_label
_atom_site_type_symbol
_atom_type_description
_atom_site_fract_x
_atom_site_fract_y
_atom_site_fract_z
_atom_type_partial_charge
C1    C     C_R   0.495604 0.489559 0.653261 0.888648
C2    C     C_R   0.594001 0.464430 0.140930 0.053603
C3    C     C_R   0.459748 0.482182 0.905642 0.254409
C4    C     C_R   0.542936 0.518173 0.094494 0.253036
C5    C     C_R   0.514046 0.425279 0.869687 -0.251583
C6    C     C_R   0.487702 0.574568 0.130060 -0.241439
C7    C     C_R   0.525644 0.426151 0.787221 -0.053769
C8    C     C_R   0.475081 0.573339 0.212448 -0.053282
C9    C     C_R   0.454034 0.761796 0.464712 -0.013673
C10   C     C_R   0.550567 0.237981 0.529503 -0.010822
C11   C     C_R   0.456979 0.849042 0.466611 -0.310702
C12   C     C_R   0.504613 0.510410 0.346736 0.888300
C13   C     C_R   0.547139 0.150780 0.526898 -0.315076
C14   C     C_R   0.519273 0.891390 0.516095 0.268985
C15   C     C_R   0.479451 0.108684 0.482840 0.271684
C16   C     C_R   0.673561 0.499944 0.500539 0.907057
C17   C     C_R   0.326443 0.500040 0.499522 0.907002
C18   C     C_R   0.577147 0.843121 0.563046 -0.104623
C19   C     C_R   0.416955 0.157262 0.441664 -0.104082
C20   C     C_R   0.571227 0.755495 0.558645 -0.070813
C21   C     C_R   0.423249 0.244769 0.446964 -0.072276
C22   C     C_R   0.188737 0.574484 0.483896 -0.278013
C23   C     C_R   0.946129 0.350124 0.530072 -0.243147
C24   C     C_R   0.811261 0.425470 0.516505 -0.277803
C25   C     C_R   0.230693 0.499819 0.498619 -0.065580
C26   C     C_R   0.769319 0.500118 0.501585 -0.065898
C27   C     C_R   0.181287 0.424928 0.513017 -0.279077
C28   C     C_R   0.818752 0.574950 0.487045 -0.275412
C29   C     C_R   0.089007 0.424402 0.513786 0.119944
C30   C     C_R   0.911026 0.575469 0.486379 0.117355
C31   C     C_R   0.046391 0.499850 0.499554 0.060827
C32   C     C_R   0.953633 0.500044 0.500754 0.060370
C33   C     C_R   0.096549 0.575126 0.484248 0.099050
C34   C     C_R   0.053891 0.649758 0.470159 -0.241577
C35   C     C_R   0.903465 0.424787 0.516116 0.100992
C36   C     C_R   0.038824 0.349923 0.528885 -0.223257
C37   C     C_R   0.961207 0.649924 0.471185 -0.217884
C38   C     C_R   0.642951 0.882854 0.617862 0.129823
C39   C     C_R   0.645868 0.856518 0.698794 -0.166176
C40   C     C_R   0.706615 0.894890 0.751028 -0.131121
C41   C     C_R   0.765062 0.959577 0.722964 -0.112413
C42   C     C_R   0.763291 0.985658 0.642477 -0.163648
C43   C     C_R   0.702889 0.947288 0.589960 -0.134506
C44   C     C_R   0.344073 0.118099 0.393848 0.129361
C45   C     C_R   0.480524 0.484508 0.739737 -0.155358
C46   C     C_R   0.255112 0.139087 0.406563 -0.161562
C47   C     C_R   0.186209 0.102266 0.361653 -0.136089
C48   C     C_R   0.205470 0.044619 0.303483 -0.110682
C49   C     C_R   0.293718 0.023946 0.289870 -0.157675
C50   C     C_R   0.362864 0.060586 0.334626 -0.141711
C51   C     C_R   0.636821 0.406202 0.274544 0.145088
C52   C     C_R   0.724814 0.430917 0.294201 -0.196769
C53   C     C_R   0.779105 0.375272 0.334441 -0.119900
C54   C     C_R   0.745128 0.295680 0.357508 -0.121543
C55   C     C_R   0.657254 0.270969 0.338842 -0.136225
C56   C     C_R   0.520356 0.515394 0.260306 -0.157755
C57   C     C_R   0.603452 0.325659 0.296742 -0.082703
C58   C     C_R   0.364058 0.593486 0.726139 0.136736
C59   C     C_R   0.396447 0.674335 0.703894 -0.099849
C60   C     C_R   0.341940 0.728296 0.661655 -0.133916
C61   C     C_R   0.254143 0.702754 0.643512 -0.120113
C62   C     C_R   0.220916 0.623116 0.667321 -0.122162
C63   C     C_R   0.275936 0.568184 0.707651 -0.172089
C64   C     C_3   0.655161 0.405721 0.099267 -0.407936
C65   C     C_3   0.605045 0.323330 0.079975 -0.328985
C66   C     C_3   0.663122 0.268054 0.030543 -0.894550
C67   C     C_R   0.419361 0.537958 0.775603 -0.080576
C68   C     C_3   0.348668 0.595699 0.901926 -0.412110
C69   C     C_3   0.264319 0.548949 0.935083 -0.333299
C70   C     C_3   0.205489 0.607158 0.980367 -0.879555
C71   C     C_R   0.591097 0.369789 0.754086 0.152512
C72   C     C_R   0.573347 0.283152 0.757269 -0.136663
C73   C     C_R   0.637658 0.229424 0.731061 -0.158258
C74   C     C_R   0.720370 0.261800 0.702622 -0.148258
C75   C     C_R   0.738722 0.347932 0.700126 -0.152886
C76   C     C_R   0.674097 0.401954 0.725024 -0.142637
C77   C     C_R   0.408120 0.628529 0.244991 0.153469
C78   C     C_R   0.582479 0.462517 0.224880 -0.076122
C79   C     C_R   0.325874 0.594864 0.274422 -0.141610
C80   C     C_R   0.259767 0.647651 0.298680 -0.152504
C81   C     C_R   0.275849 0.734072 0.295088 -0.141924
C82   C     C_R   0.357762 0.767930 0.266192 -0.168186
C83   C     C_R   0.423573 0.715419 0.240715 -0.144344
C84   C     C_R   0.408999 0.536600 0.859628 0.059727
H1    H     H_    0.227769 0.632220 0.472801 0.168454
H2    H     H_    0.928803 0.708037 0.460107 0.145496
H3    H     H_    0.907850 0.292139 0.541759 0.138193
H4    H     H_    0.092166 0.707736 0.458429 0.142191
H5    H     H_    0.551791 0.383454 0.906904 0.163950
H6    H     H_    0.449923 0.616091 0.092420 0.153074
H7    H     H_    0.602737 0.269935 0.562811 0.156649
H8    H     H_    0.405860 0.729533 0.427368 0.160523
H9    H     H_    0.600350 0.807093 0.721691 0.113377
H10   H     H_    0.708131 0.874669 0.813376 0.125862
H11   H     H_    0.811842 0.989372 0.763541 0.121986
H12   H     H_    0.772205 0.367744 0.527546 0.166250
H13   H     H_    0.808826 0.035557 0.620725 0.120520
H14   H     H_    0.703112 0.967675 0.527573 0.127966
H15   H     H_    0.238994 0.183315 0.451743 0.117680
H16   H     H_    0.117839 0.118387 0.372024 0.124155
H17   H     H_    0.152052 0.016177 0.268773 0.120363
H18   H     H_    0.308580 0.979790 0.244356 0.121621
H19   H     H_    0.430995 0.044646 0.322578 0.127041
H20   H     H_    0.751885 0.492386 0.276543 0.129997
H21   H     H_    0.847519 0.393998 0.347952 0.146175
H22   H     H_    0.787006 0.253113 0.389579 0.117995
H23   H     H_    0.597195 0.117016 0.559090 0.165238
H24   H     H_    0.631095 0.209174 0.356282 0.128897
H25   H     H_    0.535968 0.305372 0.281273 0.114407
H26   H     H_    0.463709 0.695306 0.719331 0.114603
H27   H     H_    0.367467 0.790169 0.643745 0.135814
H28   H     H_    0.211707 0.744748 0.611347 0.124367
H29   H     H_    0.152558 0.603781 0.654234 0.146253
H30   H     H_    0.249511 0.506635 0.725792 0.124643
H31   H     H_    0.682175 0.299811 0.972584 0.264236
H32   H     H_    0.724479 0.253250 0.064067 0.265121
H33   H     H_    0.625290 0.208869 0.017899 0.248633
H34   H     H_    0.410653 0.882630 0.429802 0.167307
H35   H     H_    0.585023 0.289147 0.136342 0.219063
H36   H     H_    0.543375 0.335721 0.045946 0.229069
H37   H     H_    0.682294 0.435950 0.042983 0.207970
H38   H     H_    0.714588 0.392963 0.136146 0.204297
H39   H     H_    0.242308 0.633852 0.032009 0.265145
H40   H     H_    0.184418 0.658572 0.939910 0.261565
H41   H     H_    0.144893 0.571753 0.003374 0.248788
H42   H     H_    0.225545 0.521681 0.884804 0.218273
H43   H     H_    0.282655 0.497354 0.976598 0.231778
H44   H     H_    0.385997 0.626109 0.951395 0.203552
H45   H     H_    0.615249 0.717810 0.594012 0.137793
H46   H     H_    0.328452 0.647582 0.861854 0.207833
H47   H     H_    0.509977 0.257383 0.780340 0.128228
H48   H     H_    0.623592 0.162700 0.733191 0.142465
H49   H     H_    0.770329 0.220160 0.682839 0.123626
H50   H     H_    0.803386 0.372801 0.679604 0.144584
H51   H     H_    0.689361 0.468543 0.723395 0.115920
H52   H     H_    0.312331 0.528025 0.276825 0.116124
H53   H     H_    0.195720 0.621583 0.319547 0.144840
H54   H     H_    0.224751 0.774773 0.314365 0.127779
H55   H     H_    0.370196 0.834822 0.263309 0.127211
H56   H     H_    0.376033 0.282692 0.415637 0.138780
H57   H     H_    0.486343 0.742326 0.217393 0.126486
H58   H     H_    0.214518 0.367260 0.524574 0.158243
H59   H     H_    0.785539 0.632582 0.475279 0.162844
H60   H     H_    0.071236 0.291776 0.539775 0.140708
N1    N     N_2   0.462852 0.490709 0.988884 -0.197895
N2    N     N_2   0.540104 0.509266 0.011255 -0.194530
N3    N     N_R   0.511030 0.716920 0.509720 -0.090802
N4    N     N_R   0.488970 0.283080 0.490280 -0.090376
N5    N     N_2   0.525303 0.980673 0.521262 -0.186354
N6    N     N_2   0.471621 0.019332 0.478768 -0.186329
O1    O     O_R   0.496050 0.422540 0.612660 -0.606404
O2    O     O_R   0.503950 0.577460 0.387340 -0.608668
O3    O     O_R   0.503140 0.561840 0.618900 -0.619387
O4    O     O_R   0.496860 0.438160 0.381100 -0.618472
O5    O     O_R   0.628610 0.430340 0.496900 -0.614673
O6    O     O_R   0.371390 0.569660 0.503100 -0.612974
O7    O     O_R   0.635690 0.569650 0.503140 -0.635113
O8    O     O_R   0.364310 0.430350 0.496860 -0.638235
Zn1   Zn    Zn3+2 0.495270 0.406980 0.495830 0.952059
Zn2   Zn    Zn3+2 0.504730 0.593020 0.504170 0.952327

loop_
_geom_bond_atom_site_label_1
_geom_bond_atom_site_label_2
_ccdc_geom_bond_type
C46   H15   S    
O2    Zn2   S    
C40   C41   A    
C27   C29   A    
C34   C37   A    
C41   C42   A    
C14   C18   A    
C43   H14   S    
C20   H45   S    
C13   H23   S    
C8    C56   A    
C81   C82   A    
C75   H50   S    
C41   H11   S    
C53   C54   A    
C52   C53   A    
C15   C19   A    
C79   H52   S    
C29   C36   A    
C62   C63   A    
C66   H32   S    
C7    C45   A    
C19   C21   A    
C24   C26   A    
C24   H12   S    
C7    C71   S    
C38   C39   A    
C11   C14   A    
C77   C83   A    
C64   H37   S    
C74   H49   S    
C27   H58   S    
C56   C78   A    
C73   C74   A    
C22   H1    S    
C49   C50   A    
C12   O2    A    
C39   H9    S    
C46   C47   A    
C63   H30   S    
C70   H39   S    
C57   H25   S    
C47   C48   A    
C2    C64   S    
C68   C69   S    
C22   C25   A    
C45   C67   A    
C31   C33   A    
C51   C57   A    
C68   H44   S    
C73   H48   S    
C50   H19   S    
C23   H3    S    
C61   C62   A    
N3    Zn2   S    
C9    H8    S    
C76   H51   S    
C44   C46   A    
N1    N2    D    
C77   C79   A    
C16   C26   S    
C81   H54   S    
C24   C35   A    
C66   H31   S    
C54   H22   S    
O5    Zn1   S    
C51   C52   A    
C68   C84   S    
C32   C35   A    
C37   H2    S    
O6    Zn2   S    
C62   H29   S    
C4    C6    A    
C74   C75   A    
C42   H13   S    
C12   O4    A    
C49   H18   S    
C5    C7    A    
C72   C73   A    
C6    C8    A    
C58   C59   A    
C6    H6    S    
C66   H33   S    
C47   H16   S    
C30   C37   A    
C60   C61   A    
N4    Zn1   S    
O1    Zn1   S    
C2    C4    A    
C75   C76   A    
C21   N4    A    
C82   H55   S    
C2    C78   A    
C70   H40   S    
C31   C32   A    
C4    N2    S    
C16   O5    A    
C33   C34   A    
C65   H35   S    
C20   N3    A    
C28   H59   S    
C34   H4    S    
C1    O3    A    
C17   O8    A    
C9    C11   A    
C12   C56   S    
C70   H41   S    
C48   C49   A    
C69   H42   S    
C82   C83   A    
O7    Zn2   S    
C23   C35   A    
C55   C57   A    
C17   O6    A    
O8    Zn1   S    
C38   C43   A    
C42   C43   A    
C71   C76   A    
C39   C40   A    
C19   C44   S    
C72   H47   S    
C83   H57   S    
C44   C50   A    
C58   C63   A    
C22   C33   A    
C54   C55   A    
C52   H20   S    
C16   O7    A    
C40   H10   S    
C80   C81   A    
C3    C5    A    
C10   C13   A    
C10   H7    S    
C59   H26   S    
C3    N1    S    
C25   C27   A    
C26   C28   A    
C55   H24   S    
C17   C25   S    
C64   C65   S    
O3    Zn2   S    
C13   C15   A    
C18   C38   S    
C51   C78   S    
O4    Zn1   S    
C29   C31   A    
C60   H27   S    
N5    N6    D    
C30   C32   A    
C61   H28   S    
C1    C45   S    
C8    C77   S    
C67   C84   A    
C64   H38   S    
C48   H17   S    
C14   N5    S    
C28   C30   A    
C65   H36   S    
C9    N3    A    
C1    O1    A    
C18   C20   A    
C65   C66   S    
C36   H60   S    
C69   C70   S    
C79   C80   A    
C53   H21   S    
C58   C67   S    
C59   C60   A    
C71   C72   A    
C69   H43   S    
C23   C36   A    
C3    C84   A    
C68   H46   S    
C21   H56   S    
C11   H34   S    
C15   N6    S    
C5    H5    S    
C80   H53   S    
C10   N4    A    
