data_mof_unit_17579.cif
_audit_creation_date              2012-12-10T17:03:25-0500
_audit_creation_method            fapswitch 2.2
_symmetry_space_group_name_H-M    P1
_symmetry_Int_Tables_number       1
_space_group_crystal_system       triclinic
_cell_length_a                    15.006849
_cell_length_b                    10.904784
_cell_length_c                    9.785059
_cell_angle_alpha                 109.410678
_cell_angle_beta                  98.411875
_cell_angle_gamma                 90.403437
_cell_volume                      1491.36580969

loop_
_atom_site_label
_atom_site_type_symbol
_atom_type_description
_atom_site_fract_x
_atom_site_fract_y
_atom_site_fract_z
_atom_type_partial_charge
C1    C     C_R   0.499982 0.254244 0.444188 0.842336
C2    C     C_R   0.508269 0.745734 0.556406 0.841772
C3    C     C_R   0.033865 0.260503 0.375676 -0.023373
C4    C     C_R   0.967098 0.740858 0.623950 -0.020754
C5    C     C_2   0.513123 0.116226 0.423545 -0.411079
C6    C     C_2   0.516677 0.884607 0.580654 -0.394838
C7    C     C_2   0.560398 0.075281 0.528806 0.096982
C8    C     C_2   0.561692 0.933945 0.498885 0.112393
C9    C     C_2   0.510156 0.505964 0.079401 -0.081127
C10   C     C_2   0.493264 0.488179 0.918910 -0.077940
C11   C     C_R   0.329158 0.500215 0.501299 0.802501
C12   C     C_R   0.671011 0.500069 0.498709 0.775430
C13   C     C_R   0.819058 0.617926 0.557006 -0.222530
C14   C     C_R   0.181149 0.383521 0.439134 -0.215295
C15   C     C_R   0.767249 0.500871 0.496128 -0.057132
C16   C     C_R   0.233173 0.499753 0.503504 -0.064912
C17   C     C_R   0.806947 0.384383 0.436956 -0.213116
C18   C     C_R   0.193998 0.615787 0.565420 -0.207960
C19   C     C_R   0.900355 0.382814 0.439075 0.013439
C20   C     C_R   0.100378 0.618303 0.560038 0.010892
C21   C     C_R   0.953472 0.501737 0.497541 -0.041216
C22   C     C_R   0.046827 0.499953 0.498342 -0.041360
C23   C     C_R   0.913181 0.621428 0.559775 0.033600
C24   C     C_R   0.087172 0.380248 0.436372 0.031827
C25   C     C_R   0.940875 0.263092 0.387495 0.474379
C26   C     C_R   0.060666 0.738157 0.614862 0.472318
Cu1   Cu    Cu3+1 0.515770 0.521810 0.644910 0.929377
Cu2   Cu    Cu3+1 0.484230 0.478190 0.355090 0.936284
H1    H     H_    0.783867 0.705321 0.599941 0.115727
H2    H     H_    0.216347 0.296431 0.394988 0.119015
H3    H     H_    0.764419 0.294943 0.390973 0.167511
H4    H     H_    0.237260 0.704234 0.615304 0.174331
H5    H     H_    0.485784 0.949211 0.669515 0.139318
H6    H     H_    0.483831 0.045159 0.318621 0.148268
H7    H     H_    0.440702 0.417459 0.847480 0.160260
H8    H     H_    0.565732 0.571538 0.149249 0.159704
H9    H     H_    0.589220 0.620811 0.932559 0.191566
H10   H     H_    0.407907 0.383943 0.068654 0.195583
N1    N     N_2   0.460520 0.445420 0.137370 -0.283750
N2    N     N_2   0.539480 0.554580 0.862630 -0.284679
O1    O     O_R   0.508410 0.332340 0.577400 -0.588367
O2    O     O_R   0.491590 0.667660 0.422600 -0.572912
O3    O     O_R   0.481780 0.295500 0.332650 -0.565660
O4    O     O_R   0.518220 0.704500 0.667350 -0.567586
O5    O     O_R   0.383570 0.518390 0.622380 -0.571833
O6    O     O_R   0.616430 0.481610 0.377620 -0.580530
O7    O     O_R   0.356940 0.481550 0.377630 -0.566801
O8    O     O_R   0.643060 0.518450 0.622370 -0.575550
O9    O     O_3   0.890187 0.148823 0.359433 -0.602607
C27   C     C_3   0.894837 0.123004 0.492568 -0.418001
H11   H     H_    0.845765 0.180078 0.559431 0.179241
H12   H     H_    0.963878 0.142453 0.558256 0.170781
H13   H     H_    0.877293 0.018238 0.466694 0.192616
O10   O     O_3   0.114775 0.852029 0.660442 -0.599768
C28   C     C_3   0.120989 0.889433 0.536966 -0.403662
H14   H     H_    0.053116 0.900913 0.481140 0.169201
H15   H     H_    0.157858 0.818808 0.457691 0.177109
H16   H     H_    0.159289 0.985172 0.574479 0.192378
C29   C     C_3   0.079935 0.134260 0.304885 -0.388978
C30   C     C_3   0.021418 0.008253 0.218737 -0.287375
C31   C     C_3   0.078838 0.899226 0.141242 -0.905438
H17   H     H_    0.118405 0.929981 0.069656 0.263489
H18   H     H_    0.126473 0.872285 0.223172 0.252657
H19   H     H_    0.034435 0.812075 0.072761 0.254344
H20   H     H_    0.988110 0.972724 0.293130 0.247550
H21   H     H_    0.969430 0.025977 0.135856 0.248070
H22   H     H_    0.118648 0.152984 0.224495 0.200289
H23   H     H_    0.128398 0.115008 0.391781 0.181702
C32   C     C_3   0.921769 0.865811 0.701379 -0.401109
C33   C     C_3   0.981650 0.989513 0.791831 -0.272514
C34   C     C_3   0.926336 0.098199 0.874708 -0.933239
H24   H     H_    0.881901 0.133233 0.796271 0.259333
H25   H     H_    0.884371 0.063099 0.939983 0.263910
H26   H     H_    0.972163 0.181068 0.950077 0.258163
H27   H     H_    0.033125 0.967473 0.872390 0.255910
H28   H     H_    0.015144 0.027728 0.719656 0.246883
H29   H     H_    0.872761 0.889142 0.618193 0.178156
H30   H     H_    0.883353 0.843250 0.779935 0.201743
C35   C     C_3   0.611796 0.849126 0.379832 -0.376275
C36   C     C_3   0.680154 0.925766 0.332002 -0.355346
C37   C     C_3   0.741537 0.835059 0.237841 -0.850476
H31   H     H_    0.782231 0.782139 0.302106 0.248278
H32   H     H_    0.700783 0.763527 0.139388 0.241579
H33   H     H_    0.788236 0.892915 0.201353 0.269799
H34   H     H_    0.644172 0.982347 0.267535 0.229933
H35   H     H_    0.722149 0.994755 0.430647 0.225026
H36   H     H_    0.649189 0.778124 0.422240 0.193428
H37   H     H_    0.561696 0.795085 0.282441 0.203061
C38   C     C_3   0.607450 0.168772 0.677188 -0.338630
C39   C     C_3   0.669729 0.107683 0.773064 -0.407941
C40   C     C_3   0.711655 0.212418 0.916616 -0.830735
H38   H     H_    0.757373 0.281790 0.894590 0.255029
H39   H     H_    0.658195 0.266985 0.974590 0.261607
H40   H     H_    0.750635 0.166468 0.990037 0.253439
H41   H     H_    0.631268 0.035417 0.802304 0.235352
H42   H     H_    0.723892 0.058037 0.712964 0.220049
H43   H     H_    0.649635 0.243201 0.656656 0.210457
H44   H     H_    0.554739 0.216945 0.742005 0.217019

loop_
_geom_bond_atom_site_label_1
_geom_bond_atom_site_label_2
_ccdc_geom_bond_type
Cu1   O8    S    
C28   H14   S    
Cu2   O7    S    
C11   O7    A    
C12   O8    A    
C35   H36   S    
C37   H31   S    
C3    C24   A    
C7    C8    S    
Cu2   O6    S    
C1    C5    S    
C13   H1    S    
C19   C21   A    
H9    N2    S    
C32   C33   S    
H10   N1    S    
C7    C38   S    
C9    N1    D    
C13   C23   A    
C10   N2    D    
C14   C24   A    
C31   H18   S    
C35   H37   S    
C36   H35   S    
C29   H22   S    
C32   H29   S    
Cu1   O4    S    
C1    O3    A    
C2    O4    A    
C9    H8    S    
C27   H12   S    
C33   C34   S    
C9    C10   S    
C18   C20   A    
Cu1   O5    S    
C30   H21   S    
C29   C30   S    
C21   C22   A    
C32   H30   S    
C2    C6    S    
C14   H2    S    
C26   O10   S    
C4    C32   S    
C37   H32   S    
C27   H13   S    
C3    C25   A    
C12   O6    A    
C40   H38   S    
C5    C7    D    
C4    C23   A    
C6    C8    D    
Cu2   N1    S    
C38   H43   S    
C30   C31   S    
C31   H19   S    
C36   H34   S    
C29   H23   S    
C40   H39   S    
C11   C16   S    
Cu1   O1    S    
C12   C15   S    
Cu1   N2    S    
C5    H6    S    
C27   H11   S    
C28   H15   S    
C10   H7    S    
C1    O1    A    
C20   C22   A    
C30   H20   S    
C21   C23   A    
C33   H28   S    
C17   H3    S    
C14   C16   A    
C11   O5    A    
C18   H4    S    
C33   H27   S    
C37   H33   S    
C34   H25   S    
C15   C17   A    
O10   C28   S    
C36   C37   S    
C39   H41   S    
C34   H26   S    
C4    C26   A    
C39   H42   S    
Cu2   O3    S    
C6    H5    S    
C38   H44   S    
C13   C15   A    
C34   H24   S    
C8    C35   S    
C40   H40   S    
C39   C40   S    
C20   C26   A    
C2    O2    A    
Cu2   O2    S    
C17   C19   A    
C22   C24   A    
C31   H17   S    
C19   C25   A    
C25   O9    S    
C35   C36   S    
C16   C18   A    
O9    C27   S    
C28   H16   S    
Cu1   Cu2   S    
C38   C39   S    
C3    C29   S    
