data_mof_unit_40951.cif
_audit_creation_date              2013-03-05T16:19:39-0500
_audit_creation_method            fapswitch 2.2
_symmetry_space_group_name_H-M    P1
_symmetry_Int_Tables_number       1
_space_group_crystal_system       triclinic
_cell_length_a                    11.030485
_cell_length_b                    9.988541
_cell_length_c                    27.339849
_cell_angle_alpha                 88.931984
_cell_angle_beta                  90.662755
_cell_angle_gamma                 89.20589
_cell_volume                      3011.23897554

loop_
_atom_site_label
_atom_site_type_symbol
_atom_site_description
_atom_site_fract_x
_atom_site_fract_y
_atom_site_fract_z
_atom_type_partial_charge
O1    O     O_R   0.314910 0.616040 0.499990 -0.620978
O2    O     O_R   0.314910 0.383960 0.499990 -0.620898
C1    C     C_R   0.258430 0.501786 0.498826 0.892474
O3    O     O_R   0.500140 0.616020 0.428740 -0.594702
O4    O     O_R   0.500140 0.383980 0.428740 -0.621351
C2    C     C_R   0.500583 0.500820 0.405563 0.871761
Zn1   Zn    Zn3+2 0.500150 0.654960 0.499980 0.943752
Zn2   Zn    Zn3+2 0.500150 0.345040 0.499980 0.931415
O5    O     O_R   0.685320 0.616040 0.499970 -0.652920
O6    O     O_R   0.685320 0.383960 0.499970 -0.628118
O7    O     O_R   0.500090 0.616050 0.571230 -0.585168
O8    O     O_R   0.500090 0.383950 0.571230 -0.609394
C3    C     C_R   0.742000 0.498759 0.501418 0.913704
C4    C     C_R   0.496655 0.498568 0.594361 0.929449
C5    C     C_R   0.612194 0.326861 0.179235 0.562488
O9    O     O_2   0.613053 0.211011 0.205200 -0.498880
N1    N     N_R   0.619126 0.445156 0.203543 -0.338158
C6    C     C_R   0.636735 0.563035 0.178407 0.567824
C7    C     C_R   0.664481 0.527715 0.286560 0.220404
C8    C     C_R   0.614303 0.570033 0.330462 0.053578
C9    C     C_R   0.455717 0.405217 0.322117 0.149744
C10   C     C_R   0.489882 0.389382 0.273386 -0.121157
C11   C     C_R   0.595023 0.448508 0.255329 0.157510
C12   C     C_R   0.638679 0.445706 0.102330 -0.122325
C13   C     C_R   0.605259 0.327175 0.127571 -0.123544
C14   C     C_R   0.559245 0.218519 0.100576 0.211309
C15   C     C_R   0.665724 0.562068 0.128685 -0.013440
C16   C     C_R   0.517880 0.498387 0.351625 -0.142699
H1    H     H_    0.434308 0.330653 0.249158 0.183477
C17   C     C_R   0.526694 0.492185 0.647224 -0.120988
C18   C     C_R   0.636641 0.335607 0.973179 0.090067
C19   C     C_R   0.668968 0.577830 0.974318 -0.008320
C20   C     C_R   0.657602 0.458502 0.948031 0.039859
C21   C     C_R   0.645746 0.216208 0.946993 -0.234912
C22   C     C_R   0.651438 0.218667 0.896361 -0.135652
C23   C     C_R   0.653835 0.340847 0.870647 0.000920
C24   C     C_R   0.662380 0.461702 0.896359 -0.096253
C25   C     C_R   0.674107 0.584673 0.870397 -0.094584
C26   C     C_R   0.662520 0.582958 0.818736 0.561826
N2    N     N_R   0.643794 0.465318 0.795324 -0.345372
C27   C     C_R   0.644119 0.345187 0.819708 0.542973
C28   C     C_R   0.485289 0.503533 0.734081 -0.144127
C29   C     C_R   0.444425 0.514248 0.685704 0.169561
C30   C     C_R   0.646678 0.457143 0.659339 -0.252845
C31   C     C_R   0.687573 0.447280 0.707694 0.288561
C32   C     C_R   0.605919 0.470816 0.745175 0.192284
O10   O     O_2   0.630360 0.230980 0.794708 -0.524831
C33   C     C_R   0.611568 0.335478 0.024018 0.002311
C34   C     C_R   0.643799 0.449141 0.050768 0.039449
C35   C     C_R   0.679348 0.567751 0.026069 0.037202
C36   C     C_R   0.552341 0.228801 0.048947 0.105950
H2    H     H_    0.422943 0.520751 0.763723 0.172102
H3    H     H_    0.650701 0.124642 0.877379 0.186417
H4    H     H_    0.646847 0.120040 0.965517 0.169222
O11   O     O_2   0.621351 0.680727 0.201069 -0.503630
C37   C     C_R   0.719865 0.672130 0.104419 0.176993
C38   C     C_R   0.668715 0.702226 0.948049 0.187709
C39   C     C_R   0.687024 0.704687 0.896986 0.175022
O12   O     O_2   0.663456 0.697349 0.791797 -0.524325
C40   C     C_R   0.730316 0.670287 0.053695 -0.200351
H5    H     H_    0.708776 0.439250 0.630538 0.211602
H6    H     H_    0.779348 0.749706 0.035780 0.168152
C41   C     C_3   0.063547 0.642113 0.516083 -0.094653
C42   C     C_3   0.077430 0.387269 0.531424 -0.096454
H7    H     H_    0.070119 0.715549 0.485731 0.151146
H8    H     H_    0.119782 0.291676 0.519911 0.197504
C43   C     C_3   0.926491 0.625635 0.525722 -0.013553
C44   C     C_3   0.939287 0.369918 0.525156 -0.002084
H9    H     H_    0.880715 0.717029 0.510332 0.144809
H10   H     H_    0.925328 0.285425 0.500451 0.128697
C45   C     C_3   0.070271 0.481967 0.442839 0.312628
C46   C     C_3   0.121239 0.504792 0.497544 -0.003363
C47   C     C_3   0.878872 0.497950 0.499325 -0.080383
C48   C     C_3   0.923397 0.502227 0.443232 0.287335
C49   C     C_3   0.396299 0.081772 0.470375 -0.281160
C50   C     C_3   0.387046 0.923899 0.477330 -0.306792
H11   H     H_    0.407621 0.104905 0.430791 0.164629
H12   H     H_    0.366050 0.877565 0.441588 0.184300
H13   H     H_    0.308944 0.130898 0.479257 0.185467
H14   H     H_    0.308957 0.903655 0.500796 0.167551
H15   H     H_    0.622711 0.127879 0.439039 0.189767
H16   H     H_    0.581085 0.903555 0.430233 0.205886
C51   C     C_3   0.609472 0.079205 0.475488 -0.314674
C52   C     C_3   0.599426 0.921404 0.469217 -0.279846
C53   C     C_3   0.495493 0.079584 0.550302 0.368756
C54   C     C_3   0.512912 0.917274 0.550487 0.378215
N3    N     N_3   0.499750 0.138610 0.498940 -0.079516
N4    N     N_3   0.499750 0.861390 0.498940 -0.082665
H17   H     H_    0.692923 0.101570 0.496709 0.172139
H18   H     H_    0.687750 0.870631 0.477037 0.176374
C55   C     C_3   0.346000 0.331697 0.339574 -0.876387
H19   H     H_    0.308165 0.265879 0.311044 0.251535
H20   H     H_    0.368815 0.266948 0.371608 0.250733
H21   H     H_    0.274683 0.405360 0.348548 0.241708
I1    I     I_    0.845907 0.580902 0.268327 -0.336329
C56   C     C_3   0.775496 0.787341 0.131364 -0.711471
H22   H     H_    0.836064 0.748520 0.161238 0.263456
H23   H     H_    0.831030 0.851278 0.106917 0.205786
H24   H     H_    0.703702 0.852463 0.146557 0.298931
C57   C     C_3   0.622265 0.829512 0.971286 -0.947892
H25   H     H_    0.567206 0.807823 0.004123 0.263219
H26   H     H_    0.698790 0.895158 0.980968 0.231853
H27   H     H_    0.560251 0.885196 0.945586 0.254714
C58   C     C_3   0.721248 0.835645 0.872146 -0.736199
H28   H     H_    0.798254 0.819037 0.847072 0.272586
H29   H     H_    0.641966 0.879777 0.851980 0.272260
H30   H     H_    0.754208 0.910109 0.898568 0.209478
I2    I     I_    0.872264 0.400756 0.723284 -0.165535
C59   C     C_3   0.126147 0.719929 0.556896 -0.716487
H31   H     H_    0.154181 0.657971 0.588504 0.283727
H32   H     H_    0.205174 0.770416 0.542610 0.249523
H33   H     H_    0.067815 0.803974 0.569194 0.263916
C60   C     C_3   0.120620 0.400204 0.585010 -0.658922
H34   H     H_    0.216504 0.430482 0.586926 0.231031
H35   H     H_    0.064814 0.470181 0.605634 0.296842
H36   H     H_    0.115164 0.303483 0.605159 0.285872
I3    I     I_    0.871176 0.644323 0.601625 -0.371637
I4    I     I_    0.867967 0.266990 0.587783 -0.419365
C61   C     C_3   0.133157 0.579101 0.405525 -0.857451
H37   H     H_    0.119654 0.686714 0.412477 0.224366
H38   H     H_    0.232754 0.562605 0.405622 0.227426
H39   H     H_    0.099922 0.561432 0.367702 0.263154
C62   C     C_3   0.108062 0.339418 0.424508 -0.920123
H40   H     H_    0.084725 0.327845 0.385226 0.263867
H41   H     H_    0.207001 0.322383 0.427414 0.252498
H42   H     H_    0.064920 0.255604 0.444199 0.217981
C63   C     C_3   0.882205 0.637271 0.417896 -0.852289
H43   H     H_    0.925581 0.727587 0.432081 0.208413
H44   H     H_    0.899985 0.636599 0.378071 0.286517
H45   H     H_    0.783770 0.652680 0.421996 0.264812
C64   C     C_3   0.856164 0.395187 0.411969 -0.823286
H46   H     H_    0.757321 0.416651 0.409529 0.237272
H47   H     H_    0.888779 0.397388 0.373691 0.259780
H48   H     H_    0.866034 0.291267 0.426115 0.221508
C65   C     C_3   0.589906 0.144681 0.584876 -0.745617
H49   H     H_    0.662963 0.084527 0.601824 0.231607
H50   H     H_    0.637338 0.220124 0.563546 0.284830
H51   H     H_    0.548987 0.188976 0.617816 0.273192
C66   C     C_3   0.637537 0.867168 0.571681 -0.796307
H52   H     H_    0.715526 0.921437 0.556009 0.209152
H53   H     H_    0.642796 0.871973 0.612227 0.269857
H54   H     H_    0.653865 0.763032 0.563013 0.302344
I5    I     I_    0.322557 0.153288 0.580391 -0.343539
I6    I     I_    0.389110 0.840978 0.607142 -0.278450
I7    I     I_    0.479336 0.045822 0.135376 -0.268640
I8    I     I_    0.258148 0.557851 0.679142 -0.289394
C67   C     C_3   0.462174 0.141564 0.022557 -0.862776
H55   H     H_    0.496701 0.037037 0.021382 0.252959
H56   H     H_    0.374184 0.143025 0.041852 0.263342
H57   H     H_    0.439582 0.178870 0.985089 0.249095
I9    I     I_    0.641938 0.774282 0.345621 -0.320255

loop_
_geom_bond_atom_site_label_1
_geom_bond_atom_site_label_2
_geom_bond_distance
_ccdc_geom_bond_type
C65   H51   1.108711 S    
C51   N3    1.496737 S    
C41   H7    1.100940 S    
C10   H1    1.083383 S    
C22   H3    1.081538 S    
C47   C48   1.615689 S    
C7    C8    1.397677 A    
C12   C15   1.412421 A    
C64   H48   1.104452 S    
C53   I5    2.208505 S    
C58   H29   1.110025 S    
C54   I6    2.208758 S    
C65   H49   1.092096 S    
C53   C54   1.629843 S    
Zn1   O7    1.979253 S    
N1    C11   1.444481 S    
C51   C52   1.593911 S    
C42   C44   1.543931 S    
C45   C62   1.570768 S    
C23   C24   1.411924 A    
C67   H56   1.110061 S    
C50   H12   1.112323 S    
C59   H32   1.086036 S    
O4    C2    1.317661 A    
O7    C4    1.323830 A    
C54   N4    1.531533 S    
C62   H41   1.103917 S    
C5    O9    1.346107 S    
C56   H24   1.107334 S    
C40   H6    1.079461 S    
C21   C22   1.386196 A    
C28   C32   1.394355 A    
O5    C3    1.319914 A    
C45   C48   1.630084 S    
C44   I4    2.143720 S    
C25   C39   1.421477 A    
C33   C36   1.424509 A    
C2    C16   1.489738 S    
C67   H55   1.107549 S    
C56   H23   1.110970 S    
C18   C20   1.418852 A    
C43   C47   1.570817 S    
C50   N4    1.494041 S    
C31   I2    2.119956 S    
C60   H36   1.105892 S    
C53   N3    1.514290 S    
C48   C64   1.570050 S    
C17   C30   1.398751 A    
C23   C27   1.395386 A    
C52   H18   1.108838 S    
C19   C38   1.423481 A    
C4    C17   1.479044 S    
O3    Zn1   1.993244 S    
C58   H28   1.110294 S    
H15   C51   1.112639 S    
C61   H38   1.108596 S    
C51   H17   1.109971 S    
C41   C43   1.548081 S    
C50   H14   1.098731 S    
C62   H40   1.109985 S    
C67   H57   1.107956 S    
C12   C13   1.414699 A    
O3    C2    1.323891 A    
C59   H33   1.110112 S    
C26   N2    1.365596 A    
C15   C37   1.416178 A    
C62   H42   1.103324 S    
C8    C16   1.413522 A    
C44   C47   1.584341 S    
C31   C32   1.393213 A    
C38   C57   1.517287 S    
C57   H27   1.111184 S    
C20   C24   1.414082 A    
C37   C40   1.393334 A    
O1    C1    1.308496 A    
C22   C23   1.397730 A    
C42   H8    1.109624 S    
C41   C59   1.534723 S    
C14   I7    2.158270 S    
C7    C11   1.403156 A    
C49   C50   1.589645 S    
C63   H44   1.108702 S    
C24   C25   1.415381 A    
C55   H20   1.103603 S    
C43   I3    2.180384 S    
Zn1   N4    2.061544 S    
C36   C67   1.516555 S    
Zn2   O8    1.993458 S    
C26   O12   1.348060 S    
C56   H22   1.110026 S    
C57   H26   1.108678 S    
N1    C6    1.369538 A    
C27   O10   1.350189 S    
C18   C21   1.405403 A    
C58   H30   1.108474 S    
C61   H37   1.103426 S    
C49   H11   1.111208 S    
C19   C35   1.419741 A    
C6    O11   1.348585 S    
C53   C65   1.555562 S    
C54   C66   1.558097 S    
C49   N3    1.499413 S    
N2    C27   1.361716 A    
C9    C16   1.421262 A    
O8    C4    1.318496 A    
C21   H4    1.077378 S    
H16   C52   1.100823 S    
C18   C33   1.420292 A    
C17   C29   1.415624 A    
C39   C58   1.517007 S    
C28   C29   1.394131 A    
N2    C32   1.428510 S    
C63   H43   1.101751 S    
C55   H19   1.110849 S    
C7    I1    2.139684 S    
C30   C31   1.393207 A    
C60   H34   1.104991 S    
C9    C55   1.502213 S    
C61   H39   1.111161 S    
C12   C34   1.411275 A    
C65   H50   1.087787 S    
C33   C34   1.409381 A    
C42   C60   1.543548 S    
O1    Zn1   2.085229 S    
Zn2   O6    2.084470 S    
O2    Zn2   2.074645 S    
C6    C15   1.400275 A    
C52   N4    1.499769 S    
C3    C47   1.511421 S    
C64   H47   1.110476 S    
O6    C3    1.314656 A    
O4    Zn2   1.979024 S    
C66   H52   1.109165 S    
C5    N1    1.369045 A    
C30   H5    1.065593 S    
C14   C36   1.414433 A    
C8    I9    2.114884 S    
C45   C61   1.568879 S    
Zn2   N3    2.062726 S    
C35   C40   1.403741 A    
C19   C20   1.409569 A    
O2    C1    1.323661 A    
C13   C14   1.420100 A    
C63   H45   1.101823 S    
C45   C46   1.612990 S    
C29   I8    2.099408 S    
C59   H31   1.092693 S    
C55   H21   1.102526 S    
C66   H53   1.111346 S    
C38   C39   1.412707 A    
C25   C26   1.417127 A    
C57   H25   1.109395 S    
C66   H54   1.084217 S    
C1    C46   1.513153 S    
C42   C46   1.566862 S    
C37   C56   1.511383 S    
C5    C13   1.413618 A    
Zn1   O5    2.073886 S    
C41   C46   1.597639 S    
C44   H10   1.102115 S    
C34   C35   1.415117 A    
C10   C11   1.399607 A    
C43   H9    1.110576 S    
C9    C10   1.399955 A    
C49   H13   1.106777 S    
C48   C63   1.564185 S    
C64   H46   1.109249 S    
C28   H2    1.083554 S    
C60   H35   1.093719 S    
