data_mof_unit_18917.cif
_audit_creation_date              2012-12-10T17:06:38-0500
_audit_creation_method            fapswitch 2.2
_symmetry_space_group_name_H-M    P1
_symmetry_Int_Tables_number       1
_space_group_crystal_system       triclinic
_cell_length_a                    14.142151
_cell_length_b                    10.592415
_cell_length_c                    10.064638
_cell_angle_alpha                 90.788024
_cell_angle_beta                  90.194331
_cell_angle_gamma                 89.649137
_cell_volume                      1507.49895698

loop_
_atom_site_label
_atom_site_type_symbol
_atom_type_description
_atom_site_fract_x
_atom_site_fract_y
_atom_site_fract_z
_atom_type_partial_charge
C1    C     C_R   0.503546 0.261542 0.498675 0.830515
C2    C     C_R   0.489414 0.736808 0.501333 0.826185
C3    C     C_R   0.670699 0.501273 0.500209 0.882664
C4    C     C_1   0.227807 0.501094 0.499417 -0.207522
C5    C     C_1   0.142537 0.501858 0.499546 -0.018909
C6    C     C_1   0.042637 0.502398 0.500084 0.001889
C7    C     C_1   0.957359 0.502522 0.500574 0.001306
C8    C     C_1   0.857460 0.502350 0.500873 -0.018160
C9    C     C_3   0.344414 0.872716 0.676747 0.103742
C10   C     C_3   0.267387 0.971804 0.652249 -0.358668
C11   C     C_3   0.173705 0.933332 0.714111 -0.958594
C12   C     C_1   0.772192 0.502000 0.500721 -0.222301
C13   C     C_3   0.327394 0.090686 0.242550 0.051626
C14   C     C_3   0.392871 0.120514 0.125924 -0.286529
C15   C     C_3   0.354121 0.067241 0.995398 -0.975782
C16   C     C_3   0.624206 0.094256 0.652662 0.136265
C17   C     C_3   0.712863 0.173897 0.632758 -0.375215
C18   C     C_3   0.748630 0.230729 0.763428 -0.894154
C19   C     C_3   0.702559 0.659016 0.881023 0.085110
C20   C     C_3   0.739490 0.773809 0.958616 -0.358394
C21   C     C_3   0.847051 0.770205 0.970960 -0.948065
C22   C     C_2   0.481868 0.373528 0.887584 0.581902
C23   C     C_2   0.447384 0.932450 0.397757 -0.372476
C24   C     C_3   0.369208 0.616502 0.110418 0.146190
C25   C     C_3   0.262312 0.601181 0.096079 -0.351095
C26   C     C_3   0.210747 0.727283 0.113243 -0.992986
C27   C     C_2   0.453435 0.864093 0.507877 0.349394
C28   C     C_2   0.440630 0.069625 0.412180 0.455742
C29   C     C_2   0.506305 0.125597 0.490497 0.279368
C30   C     C_2   0.558242 0.567666 0.925788 0.499345
C31   C     C_2   0.567244 0.548694 0.074788 -0.054709
C32   C     C_R   0.329277 0.500105 0.499803 0.875861
H1    H     H_    0.460020 0.891505 0.299783 0.122564
H2    H     H_    0.258445 0.138394 0.224613 0.174799
H3    H     H_    0.310965 0.988331 0.247506 0.131059
H4    H     H_    0.399941 0.224541 0.118237 0.276054
H5    H     H_    0.464301 0.079587 0.143097 0.222486
H6    H     H_    0.347951 0.963107 0.001366 0.254562
H7    H     H_    0.403067 0.089754 0.913125 0.287470
H8    H     H_    0.283632 0.108910 0.973342 0.262365
H9    H     H_    0.645624 0.007163 0.705493 0.174121
H10   H     H_    0.571760 0.141339 0.719214 0.176313
H11   H     H_    0.769375 0.113633 0.588196 0.224812
H12   H     H_    0.631207 0.580130 0.124298 0.093266
H13   H     H_    0.697371 0.251005 0.562630 0.214674
H14   H     H_    0.696041 0.298989 0.804136 0.295387
H15   H     H_    0.815632 0.281890 0.745795 0.255388
H16   H     H_    0.762069 0.155312 0.836876 0.261410
H17   H     H_    0.733445 0.659857 0.779673 0.180226
H18   H     H_    0.728173 0.570050 0.927923 0.108095
H19   H     H_    0.717963 0.861502 0.906790 0.231528
H20   H     H_    0.708074 0.776268 0.059642 0.219558
H21   H     H_    0.870110 0.684608 0.025108 0.266236
H22   H     H_    0.871556 0.854945 0.027044 0.268809
H23   H     H_    0.350911 0.856935 0.785191 0.173861
H24   H     H_    0.880057 0.769881 0.870941 0.265523
H25   H     H_    0.416748 0.330150 0.853468 0.057173
H26   H     H_    0.384457 0.660454 0.208605 0.177367
H27   H     H_    0.394507 0.680999 0.032031 0.110064
H28   H     H_    0.245757 0.560840 0.996180 0.220598
H29   H     H_    0.236639 0.534746 0.172337 0.242372
H30   H     H_    0.225876 0.768995 0.212896 0.258324
H31   H     H_    0.133337 0.712468 0.103927 0.278607
H32   H     H_    0.233117 0.793894 0.035363 0.258604
H33   H     H_    0.322640 0.780335 0.631685 0.104533
H34   H     H_    0.289645 0.064073 0.695598 0.237673
H35   H     H_    0.257196 0.983233 0.543551 0.233570
H36   H     H_    0.149634 0.841860 0.670987 0.267756
H37   H     H_    0.119181 0.006460 0.693698 0.271177
H38   H     H_    0.181566 0.924334 0.823430 0.264934
N1    N     N_2   0.500930 0.501330 0.852150 -0.181816
N2    N     N_2   0.500950 0.501360 0.147810 0.089397
O1    O     O_R   0.499990 0.319060 0.613040 -0.659694
O2    O     O_3   0.364148 0.139826 0.363424 -0.671845
O3    O     O_3   0.586838 0.056877 0.527806 -0.674181
O4    O     O_3   0.603116 0.668750 0.867535 -0.625825
O5    O     O_2   0.539655 0.309536 0.947798 -0.655531
O6    O     O_3   0.412981 0.496814 0.094546 -0.593620
O7    O     O_R   0.500010 0.319100 0.386900 -0.562997
O8    O     O_R   0.373700 0.499980 0.613090 -0.627894
O9    O     O_R   0.373730 0.500020 0.386960 -0.573246
O10   O     O_R   0.499990 0.680900 0.613100 -0.545815
O11   O     O_R   0.500010 0.680940 0.386960 -0.671491
O12   O     O_R   0.626270 0.499980 0.613040 -0.590201
O13   O     O_R   0.626300 0.500020 0.386910 -0.598928
O14   O     O_3   0.432608 0.917534 0.631429 -0.633800
Zn1   Zn    Zn3+2 0.499980 0.499970 0.650990 0.954778
Zn2   Zn    Zn3+2 0.500020 0.500030 0.349010 0.985847

loop_
_geom_bond_atom_site_label_1
_geom_bond_atom_site_label_2
_ccdc_geom_bond_type
C3    O13   A    
C16   O3    S    
C19   C20   S    
O12   Zn1   S    
C28   O2    S    
C18   H15   S    
C22   H25   S    
C30   N1    D    
C11   H38   S    
C7    C8    S    
C10   H35   S    
C32   O9    A    
C19   O4    S    
C17   H13   S    
C13   H3    S    
O8    Zn1   S    
C14   H4    S    
C21   H22   S    
O10   Zn1   S    
C26   H32   S    
O1    Zn1   S    
N2    O6    S    
C3    C12   S    
C16   C17   S    
C23   H1    S    
C2    C27   S    
C9    H23   S    
C25   H28   S    
C23   C27   D    
C9    C10   S    
O11   Zn2   S    
C13   C14   S    
C2    O11   A    
C18   H14   S    
O7    Zn2   S    
N2    Zn2   S    
C10   H34   S    
C31   H12   S    
C24   C25   S    
C25   C26   S    
C27   O14   S    
C26   H31   S    
C17   H11   S    
C15   H6    S    
C9    O14   S    
C32   O8    A    
C30   O4    S    
C19   H17   S    
C30   C31   S    
C8    C12   T    
C1    C29   S    
C17   C18   S    
C25   H29   S    
C23   C28   S    
C13   O2    S    
C15   H7    S    
C4    C32   S    
N1    Zn1   S    
C24   O6    S    
C31   N2    D    
C1    O7    A    
C2    O10   A    
C16   H10   S    
C22   N1    S    
C11   H36   S    
O13   Zn2   S    
C28   C29   D    
C22   O5    D    
C4    C5    T    
C18   H16   S    
C21   H24   S    
C11   H37   S    
C6    C7    T    
C29   O3    S    
C20   H19   S    
C1    O1    A    
C26   H30   S    
C13   H2    S    
C20   H20   S    
C14   H5    S    
C21   H21   S    
C19   H18   S    
C5    C6    S    
C24   H27   S    
C9    H33   S    
C15   H8    S    
O9    Zn2   S    
C10   C11   S    
C20   C21   S    
C24   H26   S    
C3    O12   A    
C14   C15   S    
C16   H9    S    
