data_mof_unit_24781.cif
_audit_creation_date              2013-03-05T15:50:21-0500
_audit_creation_method            fapswitch 2.2
_symmetry_space_group_name_H-M    P1
_symmetry_Int_Tables_number       1
_space_group_crystal_system       triclinic
_cell_length_a                    18.382301
_cell_length_b                    25.957739
_cell_length_c                    18.299895
_cell_angle_alpha                 89.724423
_cell_angle_beta                  90.044503
_cell_angle_gamma                 90.563627
_cell_volume                      8731.50646511

loop_
_atom_site_label
_atom_site_type_symbol
_atom_site_description
_atom_site_fract_x
_atom_site_fract_y
_atom_site_fract_z
_atom_type_partial_charge
Zn1   Zn    Zn3+2 0.249990 0.293780 0.913250 0.986855
Zn2   Zn    Zn3+2 0.249990 0.706220 0.086750 0.976542
Zn3   Zn    Zn3+2 0.249990 0.706220 0.913250 0.976967
Zn4   Zn    Zn3+2 0.249990 0.293780 0.086750 0.949136
Zn5   Zn    Zn3+2 0.749990 0.793780 0.413250 0.959323
Zn6   Zn    Zn3+2 0.749990 0.206220 0.586750 0.970519
Zn7   Zn    Zn3+2 0.749990 0.206220 0.413250 0.973019
Zn8   Zn    Zn3+2 0.749990 0.793780 0.586750 0.946822
Zn9   Zn    Zn3+2 0.336760 0.206240 0.000000 0.979871
Zn10  Zn    Zn3+2 0.336760 0.793760 0.000000 1.002379
Zn11  Zn    Zn3+2 0.836760 0.706240 0.500000 0.992037
Zn12  Zn    Zn3+2 0.836760 0.293760 0.500000 0.993582
Zn13  Zn    Zn3+2 0.163250 0.206230 0.000000 0.988017
Zn14  Zn    Zn3+2 0.163250 0.793770 0.000000 0.956659
Zn15  Zn    Zn3+2 0.663250 0.706230 0.500000 0.989176
Zn16  Zn    Zn3+2 0.663250 0.293770 0.500000 0.959311
O1    O     O_3   0.249990 0.250010 0.000000 -0.497785
O2    O     O_3   0.249990 0.749990 0.000000 -0.498639
O3    O     O_3   0.749990 0.750010 0.500000 -0.491901
O4    O     O_3   0.749990 0.249990 0.500000 -0.498024
O5    O     O_R   0.335430 0.280650 0.146160 -0.647001
O6    O     O_R   0.335430 0.719350 0.853840 -0.646558
O7    O     O_R   0.335430 0.719350 0.146160 -0.652873
O8    O     O_R   0.335430 0.280650 0.853840 -0.638186
O9    O     O_R   0.835430 0.780650 0.646160 -0.659400
O10   O     O_R   0.835430 0.219350 0.353840 -0.634784
O11   O     O_R   0.835430 0.219350 0.646160 -0.655593
O12   O     O_R   0.835430 0.780650 0.353840 -0.668501
O13   O     O_R   0.164550 0.280640 0.853840 -0.600185
O14   O     O_R   0.164550 0.719360 0.146160 -0.589664
O15   O     O_R   0.164550 0.719360 0.853840 -0.631468
O16   O     O_R   0.164550 0.280640 0.146160 -0.660331
O17   O     O_R   0.664550 0.780640 0.353840 -0.591894
O18   O     O_R   0.664550 0.219360 0.646160 -0.589476
O19   O     O_R   0.664550 0.219360 0.353840 -0.648279
O20   O     O_R   0.664550 0.780640 0.646160 -0.652492
O21   O     O_R   0.396160 0.219380 0.914560 -0.641257
O22   O     O_R   0.396160 0.780620 0.085440 -0.625317
O23   O     O_R   0.396160 0.780620 0.914560 -0.622453
O24   O     O_R   0.396160 0.219380 0.085440 -0.632091
O25   O     O_R   0.896160 0.719380 0.414560 -0.637261
O26   O     O_R   0.896160 0.280620 0.585440 -0.625054
O27   O     O_R   0.896160 0.280620 0.414560 -0.627514
O28   O     O_R   0.896160 0.719380 0.585440 -0.621066
O29   O     O_R   0.103840 0.219370 0.085450 -0.598538
O30   O     O_R   0.103840 0.780630 0.914550 -0.657582
O31   O     O_R   0.103840 0.780630 0.085450 -0.659913
O32   O     O_R   0.103840 0.219370 0.914550 -0.672870
O33   O     O_R   0.603840 0.719370 0.585450 -0.609333
O34   O     O_R   0.603840 0.280630 0.414550 -0.637905
O35   O     O_R   0.603840 0.280630 0.585450 -0.660903
O36   O     O_R   0.603840 0.719370 0.414550 -0.672868
O37   O     O_R   0.310730 0.133160 0.000000 -0.620605
O38   O     O_R   0.310730 0.866840 0.000000 -0.592224
O39   O     O_R   0.810730 0.633160 0.500000 -0.614835
O40   O     O_R   0.810730 0.366840 0.500000 -0.592553
O41   O     O_R   0.249970 0.366860 0.060720 -0.667846
O42   O     O_R   0.249970 0.633140 0.939280 -0.613287
O43   O     O_R   0.249970 0.633140 0.060720 -0.641552
O44   O     O_R   0.249970 0.366860 0.939280 -0.607860
O45   O     O_R   0.749970 0.866860 0.560720 -0.657860
O46   O     O_R   0.749970 0.133140 0.439280 -0.616588
O47   O     O_R   0.749970 0.133140 0.560720 -0.644338
O48   O     O_R   0.749970 0.866860 0.439280 -0.643023
O49   O     O_R   0.189290 0.133150 0.000000 -0.644697
O50   O     O_R   0.189290 0.866850 0.000000 -0.648956
O51   O     O_R   0.689290 0.633150 0.500000 -0.649550
O52   O     O_R   0.689290 0.366850 0.500000 -0.647498
C1    C     C_R   0.390225 0.250345 0.139301 0.780963
C2    C     C_R   0.390299 0.749715 0.860850 0.800645
C3    C     C_R   0.388544 0.751063 0.141053 0.808590
C4    C     C_R   0.388633 0.249147 0.859100 0.808954
C5    C     C_R   0.891779 0.752680 0.637896 0.782369
C6    C     C_R   0.890645 0.249956 0.360723 0.788807
C7    C     C_R   0.888596 0.251161 0.641156 0.807995
C8    C     C_R   0.888740 0.749286 0.359197 0.804638
C9    C     C_R   0.108936 0.251739 0.861455 0.882212
C10   C     C_R   0.109386 0.748679 0.138968 0.885691
C11   C     C_R   0.110681 0.749732 0.860046 0.891015
C12   C     C_R   0.109568 0.250651 0.139193 0.889731
C13   C     C_R   0.609477 0.751036 0.360659 0.884540
C14   C     C_R   0.609405 0.248674 0.638981 0.887241
C15   C     C_R   0.610640 0.250154 0.359817 0.892245
C16   C     C_R   0.609785 0.750338 0.639733 0.896949
C17   C     C_R   0.248730 0.108895 0.998097 0.882581
C18   C     C_R   0.251475 0.890734 0.993852 0.812162
C19   C     C_R   0.748733 0.608977 0.498139 0.884279
C20   C     C_R   0.751370 0.390770 0.493988 0.817538
C21   C     C_R   0.250179 0.391433 0.999568 0.860945
C22   C     C_R   0.250003 0.608718 0.000116 0.845435
C23   C     C_R   0.750141 0.891356 0.499446 0.852864
C24   C     C_R   0.749289 0.108480 0.500414 0.827157
C25   C     C_3   0.260199 0.469955 0.077717 -0.449339
C26   C     C_3   0.179291 0.529955 0.966454 -0.479422
C27   C     C_3   0.253277 0.528814 0.079028 -0.481108
C28   C     C_3   0.176898 0.470293 0.971435 -0.514816
C29   C     C_3   0.741178 0.969671 0.576740 -0.468423
C30   C     C_3   0.698063 0.029354 0.443988 -0.475675
C31   C     C_3   0.730827 0.028236 0.576699 -0.436362
C32   C     C_3   0.690994 0.970292 0.449327 -0.445979
H1    H     H_    0.312689 0.458254 0.102595 0.228417
H2    H     H_    0.171308 0.542800 0.909084 0.220308
H3    H     H_    0.294175 0.546278 0.115801 0.193390
H4    H     H_    0.157189 0.452589 0.920197 0.203303
H5    H     H_    0.788549 0.959713 0.611811 0.239601
H6    H     H_    0.715958 0.040221 0.387875 0.247747
H7    H     H_    0.763154 0.045324 0.621974 0.229090
H8    H     H_    0.692168 0.953482 0.393544 0.242594
H9    H     H_    0.217103 0.453166 0.113664 0.208271
H10   H     H_    0.132136 0.545715 0.996992 0.187688
H11   H     H_    0.200973 0.538386 0.106330 0.228332
H12   H     H_    0.134353 0.458920 0.011890 0.196586
H13   H     H_    0.692087 0.951336 0.601763 0.199113
H14   H     H_    0.643558 0.046678 0.452568 0.176754
H15   H     H_    0.672757 0.037304 0.587617 0.212506
H16   H     H_    0.637458 0.959586 0.473787 0.191602
H17   H     H_    0.156761 0.904263 0.886222 0.203396
H18   H     H_    0.125924 0.090818 0.915589 0.205890
H19   H     H_    0.652113 0.404631 0.390850 0.233795
H20   H     H_    0.626047 0.591399 0.415746 0.205261
C33   C     C_3   0.319033 0.470332 0.950527 0.833036
C34   C     C_3   0.317664 0.532255 0.948882 0.835225
C35   C     C_3   0.828983 0.969908 0.466413 0.864421
C36   C     C_3   0.833143 0.030649 0.482644 0.861966
C37   C     C_3   0.251716 0.449309 0.997894 -0.002853
C38   C     C_3   0.252148 0.551140 0.999445 0.005739
C39   C     C_3   0.753327 0.949150 0.497450 -0.021108
C40   C     C_3   0.753608 0.050434 0.501336 -0.014680
H21   H     H_    0.948824 0.402928 0.897056 0.152674
H22   H     H_    0.958608 0.589058 0.117438 0.154293
H23   H     H_    0.155460 0.898501 0.699800 0.150526
H24   H     H_    0.152378 0.103290 0.305935 0.145498
H25   H     H_    0.447979 0.901002 0.399010 0.152832
H26   H     H_    0.455077 0.091331 0.612658 0.153869
H27   H     H_    0.634861 0.410248 0.214006 0.156719
H28   H     H_    0.634395 0.592928 0.790384 0.147892
C41   C     C_R   0.118931 0.187780 0.737633 -0.194501
C42   C     C_R   0.103742 0.827206 0.245347 -0.156468
C43   C     C_R   0.015239 0.663907 0.839470 -0.162357
C44   C     C_R   0.013739 0.334941 0.155823 -0.168075
C45   C     C_R   0.617309 0.685703 0.237201 -0.195006
C46   C     C_R   0.607406 0.324474 0.749368 -0.158434
C47   C     C_R   0.518200 0.163557 0.338634 -0.158473
C48   C     C_R   0.516195 0.836122 0.659464 -0.173250
C49   C     C_R   0.125802 0.156149 0.677012 -0.142346
C50   C     C_R   0.105454 0.864462 0.299672 -0.134647
C51   C     C_R   0.968850 0.621788 0.831049 -0.160861
C52   C     C_R   0.966692 0.376379 0.161499 -0.126740
C53   C     C_R   0.622334 0.652767 0.177654 -0.144635
C54   C     C_R   0.611588 0.359730 0.806233 -0.126848
C55   C     C_R   0.473349 0.120598 0.330253 -0.156545
C56   C     C_R   0.468366 0.877180 0.664519 -0.136180
C57   C     C_R   0.566710 0.650923 0.126495 -0.146869
C58   C     C_R   0.561462 0.357286 0.862674 -0.150748
C59   C     C_R   0.421170 0.120076 0.275740 -0.137209
C60   C     C_R   0.412880 0.875812 0.715752 -0.160986
C61   C     C_R   0.071117 0.154766 0.624995 -0.144313
C62   C     C_R   0.055324 0.862363 0.356135 -0.152182
C63   C     C_R   0.916165 0.622432 0.776964 -0.138756
C64   C     C_R   0.914167 0.376508 0.215737 -0.165835
C65   C     C_R   0.506643 0.682739 0.134026 -0.168535
C66   C     C_R   0.505215 0.320920 0.860944 -0.148574
C67   C     C_R   0.413641 0.162622 0.229853 -0.160547
C68   C     C_R   0.405920 0.833784 0.762808 -0.189644
C69   C     C_R   0.009880 0.185501 0.633173 -0.179880
C70   C     C_R   0.001905 0.823929 0.357321 -0.171843
C71   C     C_R   0.909463 0.665346 0.731494 -0.148222
C72   C     C_R   0.908771 0.335236 0.264310 -0.195295
C73   C     C_R   0.501606 0.718079 0.192778 0.079486
C74   C     C_R   0.499613 0.284585 0.803412 0.079291
C75   C     C_R   0.457743 0.207399 0.237957 0.053413
C76   C     C_R   0.454290 0.791483 0.758936 0.075295
C77   C     C_R   0.002995 0.219595 0.692782 0.081933
C78   C     C_R   0.997931 0.786105 0.301586 0.075898
C79   C     C_R   0.955445 0.709191 0.739400 0.059185
C80   C     C_R   0.955089 0.291970 0.258664 0.083980
C81   C     C_R   0.058025 0.220308 0.746014 0.059057
C82   C     C_R   0.051090 0.786828 0.246293 0.066823
C83   C     C_R   0.009460 0.708032 0.793953 0.068619
C84   C     C_R   0.008383 0.291914 0.203574 0.066662
C85   C     C_R   0.557194 0.718921 0.245576 0.057074
C86   C     C_R   0.552891 0.285396 0.748268 0.064613
C87   C     C_R   0.511300 0.207555 0.292803 0.072190
C88   C     C_R   0.509229 0.792234 0.705424 0.070872
C89   C     C_R   0.442511 0.752305 0.199014 -0.108633
C90   C     C_R   0.442700 0.247482 0.801010 -0.110618
C91   C     C_R   0.449382 0.251272 0.192247 -0.109940
C92   C     C_R   0.448722 0.749124 0.807625 -0.122437
C93   C     C_R   0.942763 0.252875 0.699237 -0.110036
C94   C     C_R   0.942634 0.747753 0.300956 -0.109247
C95   C     C_R   0.947274 0.754126 0.695454 -0.126596
C96   C     C_R   0.950546 0.250092 0.308283 -0.110436
C97   C     C_R   0.438604 0.789155 0.256864 -0.011290
C98   C     C_R   0.441069 0.207790 0.746747 -0.009810
C99   C     C_R   0.499247 0.293822 0.195426 -0.003133
C100  C     C_R   0.499675 0.707978 0.806274 -0.007300
C101  C     C_R   0.938682 0.289934 0.756814 -0.010269
C102  C     C_R   0.941886 0.707396 0.247733 -0.008539
C103  C     C_R   0.995362 0.797801 0.704369 -0.011157
C104  C     C_R   0.006131 0.211834 0.310509 0.004222
C105  C     C_R   0.998134 0.292919 0.807127 -0.076867
C106  C     C_R   0.001065 0.705140 0.197041 -0.083788
C107  C     C_R   0.056801 0.791610 0.750723 -0.083102
C108  C     C_R   0.057285 0.210225 0.251960 -0.081303
C109  C     C_R   0.498096 0.791921 0.307155 -0.075154
C110  C     C_R   0.500150 0.205616 0.695921 -0.082023
C111  C     C_R   0.553221 0.293712 0.251631 -0.096446
C112  C     C_R   0.552945 0.707878 0.749612 -0.082493
C113  C     C_R   0.053025 0.254496 0.805037 -0.136660
C114  C     C_R   0.052685 0.746636 0.194748 -0.145168
C115  C     C_R   0.057923 0.749999 0.800814 -0.154859
C116  C     C_R   0.055908 0.249690 0.197695 -0.153791
C117  C     C_R   0.553255 0.753678 0.304323 -0.138997
C118  C     C_R   0.552777 0.246466 0.694836 -0.143248
C119  C     C_R   0.556909 0.251109 0.301040 -0.154350
C120  C     C_R   0.555853 0.749547 0.698588 -0.162447
C121  C     C_R   0.378714 0.824131 0.266589 0.229525
C122  C     C_R   0.383736 0.169504 0.741110 0.238985
C123  C     C_R   0.500205 0.335629 0.143008 0.208200
C124  C     C_R   0.501945 0.667627 0.860676 0.201245
C125  C     C_R   0.879028 0.325143 0.765979 0.230516
C126  C     C_R   0.885084 0.668677 0.242818 0.238863
C127  C     C_R   0.987648 0.847045 0.668452 0.127765
C128  C     C_R   0.015868 0.176731 0.370626 0.222389
C129  C     C_R   0.383758 0.863061 0.318997 -0.217779
C130  C     C_R   0.390482 0.128799 0.691883 -0.224085
C131  C     C_R   0.545712 0.378357 0.154555 -0.205416
C132  C     C_R   0.546402 0.624912 0.849717 -0.243651
C133  C     C_R   0.884155 0.364322 0.818038 -0.216712
C134  C     C_R   0.893067 0.627041 0.195411 -0.226205
C135  C     C_R   0.046106 0.882211 0.667656 -0.165106
C136  C     C_R   0.067776 0.137770 0.366521 -0.261323
C137  C     C_R   0.945149 0.370056 0.861011 -0.278599
C138  C     C_R   0.953165 0.622954 0.151193 -0.278110
C139  C     C_R   0.110354 0.871433 0.703188 -0.212304
C140  C     C_R   0.112585 0.133717 0.307047 -0.273452
C141  C     C_R   0.444562 0.868486 0.362297 -0.278050
C142  C     C_R   0.450394 0.124781 0.647408 -0.278325
C143  C     C_R   0.597099 0.378121 0.209345 -0.186302
C144  C     C_R   0.596758 0.624624 0.794012 -0.282471
C145  C     C_R   0.001721 0.334782 0.857508 0.541184
C146  C     C_R   0.006011 0.661751 0.149144 0.547157
C147  C     C_R   0.116747 0.826709 0.744493 0.521680
C148  C     C_R   0.111232 0.170709 0.252059 0.543322
C149  C     C_R   0.501147 0.833242 0.358587 0.543851
C150  C     C_R   0.504363 0.162812 0.646958 0.545512
C151  C     C_R   0.604812 0.335208 0.254243 0.534564
C152  C     C_R   0.604823 0.667260 0.748354 0.551587
H29   H     H_    0.161735 0.186454 0.777845 0.118147
H30   H     H_    0.144828 0.830168 0.203294 0.122716
H31   H     H_    0.056514 0.660895 0.881023 0.111214
H32   H     H_    0.055523 0.337720 0.114910 0.105973
H33   H     H_    0.660813 0.684737 0.276720 0.116744
H34   H     H_    0.648176 0.327710 0.707070 0.120798
H35   H     H_    0.558808 0.161343 0.380874 0.111454
H36   H     H_    0.559269 0.839686 0.619940 0.111532
H37   H     H_    0.172969 0.131892 0.671119 0.128889
H38   H     H_    0.146565 0.894609 0.298529 0.120636
H39   H     H_    0.974328 0.588359 0.866165 0.126114
H40   H     H_    0.971913 0.408862 0.124479 0.119146
H41   H     H_    0.668833 0.627841 0.172021 0.128861
H42   H     H_    0.654423 0.388643 0.806959 0.119958
H43   H     H_    0.479671 0.087443 0.365739 0.125424
H44   H     H_    0.474613 0.910233 0.628683 0.121668
H45   H     H_    0.570101 0.624663 0.080923 0.122766
H46   H     H_    0.566136 0.383866 0.907795 0.111909
H47   H     H_    0.386827 0.086399 0.268665 0.155944
H48   H     H_    0.375614 0.907712 0.719783 0.130297
H49   H     H_    0.076233 0.129472 0.578546 0.119814
H50   H     H_    0.058148 0.890602 0.399199 0.116252
H51   H     H_    0.880521 0.589434 0.770281 0.155797
H52   H     H_    0.878403 0.409151 0.221248 0.126032
H53   H     H_    0.464507 0.679457 0.093106 0.120272
H54   H     H_    0.466898 0.321253 0.905692 0.120774
H55   H     H_    0.373679 0.159431 0.187342 0.189688
H56   H     H_    0.362442 0.835316 0.802467 0.147151
H57   H     H_    0.967982 0.182707 0.592325 0.116852
H58   H     H_    0.964564 0.823917 0.402928 0.111734
H59   H     H_    0.867749 0.663546 0.690386 0.193953
H60   H     H_    0.869579 0.338844 0.307718 0.133809
H61   H     H_    0.840982 0.392065 0.824533 0.153023
H62   H     H_    0.852273 0.596674 0.192671 0.154417
H63   H     H_    0.042012 0.918907 0.639526 0.158025
H64   H     H_    0.074962 0.110331 0.410693 0.148851
H65   H     H_    0.340474 0.890676 0.325822 0.153489
H66   H     H_    0.349108 0.098877 0.688266 0.153869
H67   H     H_    0.544855 0.411163 0.117699 0.156119
H68   H     H_    0.546008 0.592869 0.887935 0.170539
C153  C     C_R   0.342471 0.045081 0.088610 0.589567
C154  C     C_R   0.388886 0.956971 0.016457 0.587919
C155  C     C_R   0.842477 0.545540 0.589252 0.591670
C156  C     C_R   0.888206 0.456995 0.517726 0.590242
C157  C     C_R   0.409199 0.023187 0.106742 -0.316222
C158  C     C_R   0.433885 0.980901 0.068042 -0.300516
C159  C     C_R   0.908775 0.523242 0.607888 -0.317927
C160  C     C_R   0.933119 0.480697 0.569577 -0.304846
C161  C     C_R   0.316349 0.975268 0.005989 -0.144640
C162  C     C_R   0.301336 0.025001 0.029432 -0.116595
C163  C     C_R   0.815742 0.475397 0.507105 -0.144072
C164  C     C_R   0.800969 0.525218 0.530391 -0.118764
C165  C     C_R   0.257027 0.946121 0.977731 -0.106213
C166  C     C_R   0.245201 0.052466 0.994723 -0.101639
C167  C     C_R   0.756363 0.446300 0.478695 -0.106501
C168  C     C_R   0.745089 0.552689 0.495303 -0.104733
C169  C     C_R   0.198546 0.971598 0.943736 0.022099
C170  C     C_R   0.192691 0.025632 0.950519 0.017632
C171  C     C_R   0.697110 0.471883 0.445848 0.018381
C172  C     C_R   0.691913 0.525940 0.451967 0.018616
C173  C     C_R   0.148254 0.944239 0.899750 -0.367242
C174  C     C_R   0.133711 0.050019 0.914231 -0.392675
C175  C     C_R   0.644935 0.444637 0.403976 -0.367422
C176  C     C_R   0.632721 0.550494 0.416092 -0.392856
C177  C     C_R   0.087379 0.968279 0.869812 0.492798
C178  C     C_R   0.080579 0.021423 0.875847 0.498908
C179  C     C_R   0.583196 0.468703 0.376062 0.487640
C180  C     C_R   0.577746 0.521959 0.380429 0.498883
H69   H     H_    0.441882 0.039164 0.150507 0.188037
H70   H     H_    0.487854 0.966242 0.078549 0.195376
H71   H     H_    0.941716 0.539420 0.651324 0.187548
H72   H     H_    0.986999 0.465908 0.580180 0.192832
C181  C     C_3   0.307143 0.821677 0.225759 -0.901664
H73   H     H_    0.314482 0.832658 0.167647 0.234593
H74   H     H_    0.281852 0.782961 0.231892 0.251903
H75   H     H_    0.267011 0.849197 0.247889 0.209720
C182  C     C_3   0.313022 0.170056 0.783137 -0.923905
H76   H     H_    0.322005 0.160470 0.841409 0.242488
H77   H     H_    0.286196 0.207776 0.775967 0.243126
H78   H     H_    0.273802 0.140549 0.763084 0.207374
C183  C     C_3   0.461396 0.335113 0.070060 -0.856114
H79   H     H_    0.468816 0.297685 0.042297 0.228095
H80   H     H_    0.403303 0.345056 0.076338 0.266213
H81   H     H_    0.485161 0.363816 0.031813 0.211793
C184  C     C_3   0.466337 0.670325 0.934981 -0.861263
H82   H     H_    0.477529 0.708267 0.960412 0.235511
H83   H     H_    0.407294 0.661936 0.931862 0.257943
H84   H     H_    0.489481 0.641579 0.973135 0.226096
C185  C     C_3   0.807883 0.322965 0.724487 -0.901957
H85   H     H_    0.815923 0.333670 0.666377 0.236403
H86   H     H_    0.782017 0.284440 0.730701 0.251319
H87   H     H_    0.768070 0.350949 0.745917 0.208323
C186  C     C_3   0.813326 0.670036 0.283030 -0.919949
H88   H     H_    0.820687 0.660992 0.341707 0.241340
H89   H     H_    0.787000 0.707813 0.274454 0.244366
H90   H     H_    0.774317 0.640570 0.262418 0.207193
C187  C     C_3   0.917163 0.867868 0.639492 -0.747985
H91   H     H_    0.903210 0.849902 0.586359 0.238833
H92   H     H_    0.873938 0.863317 0.681310 0.254652
H93   H     H_    0.920384 0.910068 0.630109 0.259955
C188  C     C_3   0.977871 0.181006 0.442817 -0.910412
H94   H     H_    0.987782 0.219619 0.466712 0.262548
H95   H     H_    0.919311 0.172299 0.436835 0.242625
H96   H     H_    0.999008 0.152534 0.482269 0.204023
O53   O     O_3   0.065367 0.346352 0.894556 -0.611341
C189  C     C_3   0.053627 0.342536 0.970407 -0.352955
H97   H     H_    0.022039 0.307224 0.985757 0.156365
H98   H     H_    0.026577 0.377592 0.991252 0.149472
H99   H     H_    0.107396 0.339845 0.997520 0.172740
O54   O     O_3   0.067054 0.653193 0.107012 -0.599995
C190  C     C_3   0.049137 0.657796 0.032374 -0.348857
H100  H     H_    0.018409 0.623378 0.013105 0.148591
H101  H     H_    0.100623 0.660074 0.000960 0.169762
H102  H     H_    0.018278 0.693621 0.020472 0.156208
O55   O     O_3   0.183758 0.816322 0.775146 -0.645659
C191  C     C_3   0.225506 0.790043 0.722697 -0.312032
H103  H     H_    0.242413 0.816493 0.677679 0.159105
H104  H     H_    0.196127 0.755822 0.700293 0.173252
H105  H     H_    0.275304 0.775516 0.749306 0.203360
O56   O     O_3   0.164468 0.167813 0.199364 -0.619192
C192  C     C_3   0.228687 0.190450 0.227395 -0.269329
H106  H     H_    0.255312 0.164775 0.267831 0.141672
H107  H     H_    0.219190 0.228663 0.253005 0.165921
H108  H     H_    0.265823 0.196800 0.180872 0.193443
O57   O     O_3   0.564175 0.844312 0.396993 -0.603109
C193  C     C_3   0.551402 0.839123 0.472569 -0.341294
H109  H     H_    0.520110 0.803365 0.486308 0.155891
H110  H     H_    0.523504 0.873599 0.494198 0.146854
H111  H     H_    0.604872 0.836370 0.500304 0.172863
O58   O     O_3   0.565935 0.153767 0.605819 -0.600855
C194  C     C_3   0.549472 0.158717 0.530906 -0.344986
H112  H     H_    0.518602 0.194490 0.518676 0.154348
H113  H     H_    0.519413 0.124277 0.510722 0.148693
H114  H     H_    0.601584 0.161344 0.500602 0.170569
O59   O     O_3   0.665739 0.333543 0.298078 -0.651378
C195  C     C_3   0.723174 0.312640 0.257008 -0.340136
H115  H     H_    0.706001 0.279464 0.222195 0.173394
H116  H     H_    0.763641 0.297366 0.295821 0.193179
H117  H     H_    0.749303 0.343078 0.222796 0.166157
O60   O     O_3   0.667207 0.670224 0.706775 -0.624625
C196  C     C_3   0.721397 0.695100 0.748962 -0.301855
H118  H     H_    0.743815 0.668458 0.790846 0.149198
H119  H     H_    0.701675 0.730838 0.775755 0.167000
H120  H     H_    0.765733 0.707167 0.711992 0.200345
O61   O     O_3   0.017454 0.043650 0.849371 -0.574380
C197  C     C_3   0.034254 0.083411 0.799430 -0.249894
H121  H     H_    0.079368 0.072881 0.761892 0.143777
H122  H     H_    0.046860 0.119608 0.829045 0.171056
H123  H     H_    0.985611 0.090693 0.765111 0.203704
O62   O     O_3   0.037826 0.941391 0.827129 -0.588256
C198  C     C_3   0.001804 0.903761 0.870028 -0.239510
H124  H     H_    0.978115 0.920672 0.920416 0.163353
H125  H     H_    0.038559 0.871532 0.884144 0.177797
H126  H     H_    0.956298 0.887307 0.837510 0.190313
O63   O     O_3   0.514250 0.544478 0.355404 -0.576043
C199  C     C_3   0.530171 0.583191 0.303560 -0.258564
H127  H     H_    0.573713 0.571507 0.264878 0.144915
H128  H     H_    0.544547 0.619752 0.331451 0.173104
H129  H     H_    0.480544 0.590435 0.270692 0.201895
O64   O     O_3   0.531168 0.441491 0.336895 -0.589064
C200  C     C_3   0.496272 0.405364 0.383196 -0.242680
H130  H     H_    0.474553 0.423949 0.433284 0.161615
H131  H     H_    0.533106 0.373312 0.398041 0.184308
H132  H     H_    0.449485 0.388252 0.353284 0.189248
O65   O     O_3   0.314147 0.081794 0.134505 -0.627859
C201  C     C_3   0.260191 0.057835 0.178362 -0.345265
H133  H     H_    0.276737 0.019210 0.199217 0.138952
H134  H     H_    0.207978 0.054700 0.147986 0.204781
H135  H     H_    0.251007 0.081735 0.227101 0.194126
O66   O     O_3   0.419965 0.919137 0.973804 -0.564928
C202  C     C_3   0.421113 0.935305 0.900079 -0.263348
H136  H     H_    0.442870 0.975309 0.893779 0.146141
H137  H     H_    0.366177 0.931966 0.875095 0.151658
H138  H     H_    0.457841 0.909588 0.869425 0.203226
O67   O     O_3   0.815947 0.584083 0.633185 -0.620107
C203  C     C_3   0.760997 0.562685 0.678283 -0.354206
H139  H     H_    0.777065 0.525195 0.703273 0.138183
H140  H     H_    0.709216 0.558156 0.647485 0.199536
H141  H     H_    0.751249 0.589251 0.724113 0.208657
O68   O     O_3   0.919504 0.419555 0.474556 -0.564795
C204  C     C_3   0.921344 0.436558 0.401217 -0.270277
H142  H     H_    0.943152 0.476625 0.396002 0.147275
H143  H     H_    0.866616 0.433518 0.375692 0.151951
H144  H     H_    0.958389 0.411216 0.370329 0.202525
O69   O     O_3   0.381622 0.454290 0.990887 -0.674495
C205  C     C_3   0.445824 0.450378 0.948807 -0.234068
H145  H     H_    0.455738 0.484177 0.913124 0.189352
H146  H     H_    0.443857 0.414793 0.915728 0.197752
H147  H     H_    0.492941 0.448114 0.986467 0.142513
O70   O     O_3   0.298637 0.549432 0.876886 -0.658429
C206  C     C_3   0.357694 0.557742 0.828546 -0.160000
H148  H     H_    0.394719 0.524457 0.826394 0.164605
H149  H     H_    0.387692 0.593533 0.842715 0.206528
H150  H     H_    0.335580 0.563209 0.772679 0.155121
O71   O     O_3   0.387385 0.555291 0.966156 -0.653581
C207  C     C_3   0.408707 0.558655 0.040017 -0.401774
H151  H     H_    0.399061 0.523056 0.071804 0.220827
H152  H     H_    0.384757 0.593061 0.065906 0.176715
H153  H     H_    0.468452 0.564576 0.041407 0.185164
O72   O     O_3   0.323911 0.447189 0.878871 -0.631722
C208  C     C_3   0.264724 0.450653 0.829417 -0.268941
H154  H     H_    0.228221 0.483402 0.836847 0.181420
H155  H     H_    0.232460 0.414457 0.829053 0.212965
H156  H     H_    0.287485 0.454902 0.773583 0.180650
O73   O     O_3   0.883464 0.941344 0.505437 -0.669171
C209  C     C_3   0.957113 0.950755 0.486947 -0.366362
H157  H     H_    0.980746 0.982592 0.519503 0.217884
H158  H     H_    0.967117 0.956454 0.428267 0.158168
H159  H     H_    0.988235 0.916083 0.502730 0.170938
O74   O     O_3   0.855489 0.059832 0.419677 -0.629212
C210  C     C_3   0.928005 0.053693 0.397143 -0.263181
H160  H     H_    0.933442 0.020205 0.360654 0.193376
H161  H     H_    0.967620 0.053416 0.442715 0.155313
H162  H     H_    0.941485 0.086893 0.361676 0.206435
O75   O     O_3   0.880480 0.036749 0.544236 -0.657414
C211  C     C_3   0.898707 0.087607 0.563726 -0.348335
H163  H     H_    0.886310 0.116609 0.521650 0.175269
H164  H     H_    0.957869 0.088955 0.574422 0.174345
H165  H     H_    0.871034 0.097691 0.615447 0.206147
O76   O     O_3   0.831124 0.963495 0.388427 -0.659931
C212  C     C_3   0.857708 0.916259 0.361297 -0.214876
H166  H     H_    0.872984 0.887533 0.403343 0.187096
H167  H     H_    0.906009 0.924160 0.326566 0.153040
H168  H     H_    0.815835 0.898802 0.325157 0.208821

loop_
_geom_bond_atom_site_label_1
_geom_bond_atom_site_label_2
_geom_bond_distance
_ccdc_geom_bond_type
C210  H160  1.104042 S    
C48   C88   1.417627 A    
C32   C39   1.547833 S    
C129  C141  1.376084 A    
C35   O76   1.438236 S    
C185  H85   1.107467 S    
C21   C37   1.502504 S    
C179  O64   1.384882 S    
C94   C102  1.433778 A    
O26   C7    1.278392 A    
C170  C174  1.423199 A    
C23   C39   1.501033 S    
C75   C87   1.405361 A    
C109  C149  1.431068 A    
O30   C11   1.289891 A    
C196  H119  1.115199 S    
C30   H14   1.113795 S    
C162  C166  1.409108 A    
C53   C57   1.386459 A    
Zn12  O26   1.937216 S    
C201  H135  1.102937 S    
C100  C124  1.442480 A    
C35   O73   1.439147 S    
C56   C60   1.386026 A    
C211  H163  1.099581 S    
C208  H155  1.106203 S    
C32   H16   1.113631 S    
C55   C59   1.383381 A    
C183  H79   1.108198 S    
C192  H108  1.102423 S    
C29   H5    1.113075 S    
C110  C118  1.428401 A    
C47   C55   1.389298 A    
C201  H134  1.111255 S    
H26   C142  1.082868 S    
C154  C161  1.432274 A    
C52   H40   1.082652 S    
O11   C7    1.276296 A    
C167  C171  1.413517 A    
C53   H41   1.082387 S    
O56   C192  1.410772 S    
C153  O65   1.379417 S    
O34   C15   1.286235 A    
O53   C189  1.407766 S    
C63   H51   1.080661 S    
C64   H52   1.082705 S    
C49   H37   1.082297 S    
O75   C211  1.406404 S    
C199  H128  1.109302 S    
C202  H138  1.108685 S    
Zn1   O44   1.958109 S    
C25   H1    1.110983 S    
C173  C177  1.396869 A    
Zn2   O43   1.958101 S    
H23   C139  1.083153 S    
C184  H82   1.108672 S    
C153  C157  1.396048 A    
Zn5   O48   1.958109 S    
C57   C65   1.392664 A    
Zn6   O47   1.958101 S    
C155  C159  1.395689 A    
Zn7   O46   1.953657 S    
C131  H67   1.083978 S    
O16   C12   1.276327 A    
C49   C61   1.384218 A    
C132  H68   1.084104 S    
C145  O53   1.382907 S    
C165  C169  1.410321 A    
Zn16  O4    1.967101 S    
C121  C181  1.513455 S    
C108  C116  1.423698 A    
Zn1   O13   1.937896 S    
C22   C38   1.495609 S    
C141  C149  1.393897 A    
C187  H93   1.109002 S    
C26   C28   1.551131 S    
H24   C140  1.082053 S    
C139  C147  1.388167 A    
Zn4   O16   1.937424 S    
C65   H53   1.079990 S    
C46   C86   1.419061 A    
C212  H167  1.109235 S    
H28   C144  1.082483 S    
C125  C185  1.512443 S    
C196  H118  1.111561 S    
O59   C195  1.410816 S    
C71   H59   1.074618 S    
C185  H87   1.109374 S    
Zn6   O4    1.947751 S    
C72   H60   1.077837 S    
C174  C178  1.409963 A    
C184  H84   1.107267 S    
C93   C101  1.432643 A    
C198  H125  1.109886 S    
C134  H62   1.083915 S    
C110  C150  1.433453 A    
C195  H116  1.103324 S    
C157  H69   1.082562 S    
C31   C40   1.548526 S    
C159  H71   1.082729 S    
O61   C197  1.407456 S    
C166  C170  1.436054 A    
C160  H72   1.082790 S    
Zn10  O22   1.937216 S    
O72   C208  1.417898 S    
O25   C8    1.281390 A    
Zn13  O29   1.941481 S    
Zn10  O2    1.949195 S    
C211  H165  1.108542 S    
C44   C84   1.417502 A    
C63   C71   1.393568 A    
C134  C138  1.375131 A    
O29   C12   1.282001 A    
C45   C85   1.417178 A    
Zn15  O33   1.941481 S    
C8    C94   1.456650 S    
C197  H121  1.114224 S    
C26   H2    1.110097 S    
C181  H73   1.107672 S    
C190  H100  1.111017 S    
C156  C163  1.432323 A    
O37   C17   1.297253 A    
O48   C23   1.274083 A    
C200  H130  1.113956 S    
C122  C130  1.398304 A    
C36   O74   1.434054 S    
C34   C38   1.601453 S    
C188  H94   1.108844 S    
C175  C179  1.396130 A    
C202  H136  1.114573 S    
Zn16  O35   1.935053 S    
C99   C123  1.444903 A    
C35   C36   1.606930 S    
C204  H142  1.114640 S    
C97   C121  1.445506 A    
C210  H161  1.106768 S    
Zn7   O10   1.937383 S    
O33   C16   1.284812 A    
C135  H63   1.083794 S    
C132  C144  1.377594 A    
C101  C125  1.444790 A    
C206  H149  1.107460 S    
C36   O75   1.431845 S    
C52   C64   1.385281 A    
O40   C20   1.265339 A    
C198  H124  1.113946 S    
C106  C146  1.434129 A    
C136  C140  1.370503 A    
C191  H103  1.112400 S    
C82   C114  1.410385 A    
C182  H77   1.107802 S    
C193  H109  1.114954 S    
C126  C186  1.511762 S    
C13   C117  1.461067 S    
O60   C196  1.412879 S    
C151  O59   1.378031 S    
C102  C106  1.432041 A    
C196  H120  1.101760 S    
C155  O67   1.379546 S    
C209  H157  1.106301 S    
C180  O63   1.387016 S    
C1    C91   1.456008 S    
C2    C92   1.450640 S    
C12   C116  1.456228 S    
C65   C73   1.420343 A    
C64   C72   1.391609 A    
C61   H49   1.081287 S    
C25   C27   1.534681 S    
C47   H35   1.075900 S    
C74   C86   1.406713 A    
C183  H80   1.107288 S    
C107  C115  1.413616 A    
C34   O71   1.444354 S    
O28   C5    1.297936 A    
H25   C141  1.082632 S    
C3    C89   1.451993 S    
C212  H166  1.106865 S    
C105  C113  1.426376 A    
C27   H3    1.104091 S    
C193  H110  1.110539 S    
C186  H89   1.108206 S    
H17   C173  1.080858 S    
C32   H8    1.112406 S    
Zn8   O3    1.956638 S    
C97   C109  1.430249 A    
O74   C210  1.406425 S    
C156  C160  1.398182 A    
C43   C83   1.417786 A    
C199  H127  1.114187 S    
C150  O58   1.382448 S    
C61   C69   1.394676 A    
O38   C18   1.263423 A    
C194  H114  1.108611 S    
C59   C67   1.392086 A    
C152  O60   1.378047 S    
O5    C1    1.290691 A    
C207  H151  1.102491 S    
C193  H111  1.108628 S    
O32   C9    1.284351 A    
C100  C112  1.426790 A    
C112  C152  1.428847 A    
C33   C37   1.601329 S    
C157  C158  1.389266 A    
C35   C39   1.590779 S    
C60   H48   1.082668 S    
C104  C108  1.427137 A    
C181  H75   1.110030 S    
Zn15  O51   1.961012 S    
C209  H159  1.108196 S    
C147  O55   1.381583 S    
Zn11  O28   1.936081 S    
C96   C104  1.432272 A    
C122  C182  1.511105 S    
Zn12  O40   1.960969 S    
C200  H132  1.109369 S    
C155  C164  1.420205 A    
C138  C146  1.392749 A    
C178  O61   1.386997 S    
C203  H139  1.115599 S    
C128  C188  1.499944 S    
C188  H96   1.103833 S    
C50   H38   1.082673 S    
O68   C204  1.411110 S    
O8    C4    1.284247 A    
C71   C79   1.418864 A    
C204  H144  1.108583 S    
Zn9   O1    1.967402 S    
C72   C80   1.420224 A    
C154  C158  1.398400 A    
C90   C98   1.434464 A    
C130  H66   1.083914 S    
C42   H30   1.080619 S    
O50   C18   1.299723 A    
C50   C62   1.385532 A    
Zn1   O1    1.947752 S    
C46   H34   1.080234 S    
C191  H105  1.105258 S    
Zn13  O1    1.948894 S    
Zn2   O14   1.944692 S    
O58   C194  1.409220 S    
C48   C56   1.391751 A    
C66   H54   1.080668 S    
C27   C38   1.565038 S    
C42   C50   1.390380 A    
C169  C173  1.413629 A    
C190  H102  1.114569 S    
O9    C5    1.280244 A    
O39   C19   1.296180 A    
O36   C13   1.284383 A    
C68   C76   1.421755 A    
C168  C172  1.434315 A    
O13   C9    1.269440 A    
O76   C212  1.416583 S    
C126  C134  1.398056 A    
Zn1   O8    1.944646 S    
C211  H164  1.105101 S    
C208  H154  1.097185 S    
Zn2   O7    1.937854 S    
C161  C165  1.419716 A    
Zn3   O6    1.937383 S    
C135  C139  1.378214 A    
O18   C14   1.279781 A    
O31   C10   1.284967 A    
C11   C115  1.453936 S    
O6    C2    1.280700 A    
C172  C176  1.424678 A    
C121  C129  1.398891 A    
C158  H70   1.082777 S    
O65   C201  1.413839 S    
C44   H32   1.074715 S    
C199  H129  1.109413 S    
C205  H145  1.104936 S    
C194  H112  1.114679 S    
Zn14  O30   1.936335 S    
C67   H55   1.072477 S    
Zn15  O3    1.948894 S    
C48   H36   1.075850 S    
Zn11  O3    1.967402 S    
O41   C21   1.285406 A    
C177  O62   1.385149 S    
C207  H153  1.107733 S    
C41   C49   1.389887 A    
C202  H137  1.110984 S    
Zn16  O34   1.936335 S    
O66   C202  1.411116 S    
C31   H15   1.113793 S    
C88   C120  1.413576 A    
C124  C132  1.399178 A    
C143  C151  1.389276 A    
Zn8   O20   1.937424 S    
O70   C206  1.415156 S    
C124  C184  1.511799 S    
C185  H86   1.108467 S    
C212  H168  1.109251 S    
C203  H141  1.104212 S    
O55   C191  1.411825 S    
C187  H92   1.108680 S    
C67   C75   1.418850 A    
C78   C82   1.407157 A    
C55   H43   1.082757 S    
C36   C40   1.592333 S    
C56   H44   1.082647 S    
C30   C40   1.560833 S    
C17   C166  1.467182 S    
C109  C117  1.427091 A    
C179  C180  1.389683 A    
C206  H148  1.105981 S    
H19   C175  1.076404 S    
C103  C107  1.421838 A    
Zn8   O9    1.941446 S    
H20   C176  1.070053 S    
C108  C148  1.433709 A    
C127  C135  1.403160 A    
C184  H83   1.106360 S    
C70   C78   1.420451 A    
C171  C172  1.412383 A    
O7    C3    1.274075 A    
C34   O70   1.433066 S    
C159  C160  1.388901 A    
O19   C15   1.284359 A    
C154  O66   1.385386 S    
C186  H88   1.106528 S    
C26   H10   1.113986 S    
Zn9   O24   1.936081 S    
Zn6   O18   1.944692 S    
Zn10  O23   1.941230 S    
C47   C87   1.420329 A    
C57   H45   1.081856 S    
C163  C164  1.392899 A    
C205  H146  1.107082 S    
C66   C74   1.419911 A    
C208  H156  1.109000 S    
C131  C143  1.377032 A    
C142  C150  1.392656 A    
C33   O72   1.448186 S    
C111  C119  1.427188 A    
Zn15  O36   1.937469 S    
O15   C11   1.277263 A    
O42   C22   1.278488 A    
C4    C90   1.456918 S    
C33   C34   1.607952 S    
C197  H122  1.109336 S    
C78   C94   1.415859 A    
Zn4   O1    1.956638 S    
C30   C32   1.539963 S    
H18   C174  1.070473 S    
C201  H133  1.116056 S    
Zn9   O37   1.951841 S    
C76   C92   1.414862 A    
O12   C8    1.283574 A    
Zn11  O39   1.951841 S    
C62   C70   1.393051 A    
C68   H56   1.081140 S    
C69   H57   1.075061 S    
C197  H123  1.109509 S    
C58   C66   1.393614 A    
C41   H29   1.077592 S    
Zn5   O3    1.947752 S    
C31   H7    1.110824 S    
C62   H50   1.079739 S    
C45   H33   1.078192 S    
C46   C54   1.390676 A    
C177  C178  1.391296 A    
C191  H104  1.114701 S    
C171  C175  1.413491 A    
C182  H76   1.106477 S    
C25   C37   1.565522 S    
C80   C96   1.414925 A    
Zn3   O42   1.953657 S    
C99   C111  1.428552 A    
O64   C200  1.410747 S    
Zn7   O4    1.956640 S    
O21   C4    1.280853 A    
C125  C133  1.399298 A    
C144  C152  1.390340 A    
C209  H158  1.098669 S    
C123  C131  1.399407 A    
C163  C167  1.420867 A    
C164  C168  1.408884 A    
C198  H126  1.109478 S    
C130  C142  1.375021 A    
C15   C119  1.460037 S    
Zn2   O2    1.947751 S    
C161  C162  1.392581 A    
Zn14  O2    1.967101 S    
O63   C199  1.407502 S    
C29   C39   1.565033 S    
C51   C63   1.384363 A    
C195  H115  1.116576 S    
C44   C52   1.391123 A    
C45   C53   1.391973 A    
C98   C122  1.445431 A    
Zn13  O49   1.961012 S    
O44   C21   1.277020 A    
C28   H12   1.114069 S    
C43   C51   1.389015 A    
C123  C183  1.513172 S    
Zn12  O4    1.949195 S    
C169  C170  1.413858 A    
C51   H39   1.082746 S    
C153  C162  1.418674 A    
C102  C126  1.445196 A    
C95   C103  1.440537 A    
Zn12  O27   1.941230 S    
C128  C136  1.399551 A    
C79   C95   1.422688 A    
C194  H113  1.110898 S    
C107  C147  1.427166 A    
C69   C77   1.414536 A    
C83   C115  1.406467 A    
C105  C145  1.429474 A    
Zn3   O2    1.956640 S    
C207  H152  1.108173 S    
C81   C113  1.404869 A    
C84   C116  1.412884 A    
C14   C118  1.459973 S    
Zn5   O17   1.937896 S    
C181  H74   1.108368 S    
O46   C24   1.286262 A    
O47   C24   1.278440 A    
C101  C105  1.430222 A    
C30   H6    1.112719 S    
Zn16  O52   1.951881 S    
C133  H61   1.083865 S    
C200  H131  1.110442 S    
C148  O56   1.377249 S    
C9    C113  1.458250 S    
Zn8   O45   1.953664 S    
O27   C6    1.272897 A    
C203  H140  1.111347 S    
H22   C138  1.082948 S    
C112  C120  1.426145 A    
C133  C137  1.376298 A    
C19   C168  1.463136 S    
C74   C90   1.415822 A    
O73   C209  1.414383 S    
C20   C167  1.469033 S    
C106  C114  1.428936 A    
C24   C40   1.509639 S    
C127  C187  1.503905 S    
C26   C38   1.564598 S    
C98   C110  1.432146 A    
C210  H162  1.102716 S    
C156  O68   1.385187 S    
O24   C1    1.280232 A    
C204  H143  1.111093 S    
C104  C128  1.437329 A    
C206  H150  1.108913 S    
O67   C203  1.412720 S    
C79   C83   1.407898 A    
C176  C180  1.408808 A    
H21   C137  1.082585 S    
O43   C22   1.280090 A    
C129  H65   1.083867 S    
Zn4   O41   1.953664 S    
C182  H78   1.110206 S    
Zn3   O15   1.941491 S    
Zn5   O12   1.944646 S    
C76   C88   1.407205 A    
C80   C84   1.406290 A    
Zn6   O11   1.937854 S    
C77   C81   1.403863 A    
C18   C165  1.468885 S    
C73   C85   1.405839 A    
C87   C119  1.409470 A    
Zn9   O21   1.934803 S    
Zn14  O50   1.951881 S    
C41   C81   1.417764 A    
C190  H101  1.108659 S    
C136  H64   1.083655 S    
O35   C14   1.285265 A    
C92   C100  1.427816 A    
C5    C95   1.466110 S    
C111  C151  1.429067 A    
C6    C96   1.461140 S    
C137  C145  1.394022 A    
C54   H42   1.082549 S    
C189  H97   1.115151 S    
C189  H98   1.110558 S    
O52   C20   1.298272 A    
C183  H81   1.106756 S    
C29   H13   1.113829 S    
C42   C82   1.419700 A    
C195  H117  1.111372 S    
C192  H106  1.110138 S    
C186  H90   1.110447 S    
C10   C114  1.459863 S    
O22   C3    1.278503 A    
C29   C31   1.533924 S    
C91   C99   1.429738 A    
Zn7   O19   1.941491 S    
C43   H31   1.076909 S    
C89   C97   1.432499 A    
C58   H46   1.081396 S    
C146  O54   1.382323 S    
Zn13  O32   1.937469 S    
C85   C117  1.409155 A    
O49   C17   1.267003 A    
Zn14  O31   1.935053 S    
C149  O57   1.383112 S    
C189  H99   1.108276 S    
O51   C19   1.265958 A    
C75   C91   1.419283 A    
C140  C148  1.387952 A    
C28   H4    1.105430 S    
C73   C89   1.415122 A    
O71   C207  1.409905 S    
C27   H11   1.114629 S    
O57   C193  1.408592 S    
Zn4   O5    1.941446 S    
O20   C16   1.277145 A    
C77   C93   1.416370 A    
O10   C6    1.289235 A    
O23   C2    1.275514 A    
H27   C143  1.083418 S    
C28   C37   1.560071 S    
Zn11  O25   1.934803 S    
O54   C190  1.409556 S    
Zn10  O38   1.960969 S    
C7    C93   1.456383 S    
C205  H147  1.108263 S    
O14   C10   1.280163 A    
O45   C23   1.286372 A    
C103  C127  1.442710 A    
C60   C68   1.391576 A    
C188  H95   1.103234 S    
O69   C205  1.414435 S    
C54   C58   1.385486 A    
C25   H9    1.114239 S    
C86   C118  1.409524 A    
O62   C198  1.410522 S    
C33   O69   1.431013 S    
C192  H107  1.114457 S    
C187  H91   1.109203 S    
O17   C13   1.270816 A    
C70   H58   1.081027 S    
C59   H47   1.081482 S    
C16   C120  1.464356 S    
