data_mof_unit_47520.cif
_audit_creation_date              2012-12-10T17:36:18-0500
_audit_creation_method            fapswitch 2.2
_symmetry_space_group_name_H-M    P1
_symmetry_Int_Tables_number       1
_space_group_crystal_system       triclinic
_cell_length_a                    12.326859
_cell_length_b                    13.125667
_cell_length_c                    15.851069
_cell_angle_alpha                 77.888053
_cell_angle_beta                  101.432425
_cell_angle_gamma                 116.738325
_cell_volume                      2223.56767049

loop_
_atom_site_label
_atom_site_type_symbol
_atom_type_description
_atom_site_fract_x
_atom_site_fract_y
_atom_site_fract_z
_atom_type_partial_charge
C1    C     C_R   0.854988 0.286369 0.506293 0.774345
C2    C     C_3   0.093065 0.453380 0.071107 0.342916
C3    C     C_3   0.999977 0.498314 0.083557 0.136991
C4    C     C_3   0.026828 0.620037 0.032288 -0.468449
C5    C     C_3   0.027945 0.621027 0.934033 0.255825
C6    C     C_1   0.999178 0.498334 0.175534 0.008907
C7    C     C_1   0.000465 0.498501 0.825191 0.003143
C8    C     C_1   0.999684 0.498976 0.749401 -0.187246
C9    C     C_R   0.271944 0.029842 0.397954 0.490181
C10   C     C_R   0.228591 0.835873 0.470854 -0.102746
C11   C     C_R   0.817164 0.082788 0.555104 -0.193781
C12   C     C_R   0.999694 0.499525 0.659643 0.826264
C13   C     C_R   0.738727 0.966652 0.567830 -0.183911
C14   C     C_R   0.614925 0.929455 0.537854 -0.154728
C15   C     C_R   0.567491 0.008377 0.491161 0.103772
C16   C     C_R   0.650983 0.123372 0.467939 0.004530
C17   C     C_R   0.440324 0.977339 0.467170 -0.052797
C18   C     C_R   0.399102 0.058129 0.413819 -0.042458
C19   C     C_R   0.485734 0.164852 0.378143 0.423197
C20   C     C_R   0.610361 0.194979 0.404309 -0.333952
C21   C     C_R   0.352838 0.868745 0.497147 -0.235649
C22   C     C_R   0.187811 0.916703 0.422903 -0.317115
C23   C     C_R   0.145305 0.713804 0.487653 0.820666
C24   C     C_R   0.773963 0.162717 0.507255 -0.091532
C25   C     C_R   0.339679 0.318427 0.630367 -0.370911
C26   C     C_R   0.765478 0.654164 0.390282 -0.050515
C27   C     C_R   0.675419 0.695667 0.372344 0.388133
C28   C     C_R   0.568658 0.635281 0.412511 -0.267088
C29   C     C_R   0.554038 0.537928 0.475299 -0.073938
C30   C     C_R   0.652603 0.504443 0.495799 0.187399
C31   C     C_R   0.447459 0.475034 0.520417 -0.072575
C32   C     C_R   0.442624 0.381182 0.585541 0.012568
C33   C     C_R   0.540242 0.350121 0.605577 0.374840
C34   C     C_R   0.999911 0.499770 0.340471 0.810062
C35   C     C_R   0.644441 0.413871 0.563310 -0.273328
C36   C     C_R   0.344034 0.500120 0.503291 -0.057415
C37   C     C_R   0.242911 0.350495 0.613581 0.636590
C38   C     C_3   0.101623 0.462974 0.972717 -0.429771
C39   C     C_3   0.873159 0.412003 0.946696 0.259184
C40   C     C_3   0.871838 0.415966 0.044197 -0.547702
C41   C     C_1   0.999435 0.498854 0.251009 -0.176534
C42   C     C_3   0.001185 0.498364 0.917676 0.152983
Cu1   Cu    Cu3+1 0.098280 0.475420 0.519630 0.960422
Cu2   Cu    Cu3+1 0.901720 0.524580 0.480370 0.914018
H1    H     H_    0.378901 0.806648 0.540781 0.157229
H2    H     H_    0.911430 0.110157 0.584147 0.187684
H3    H     H_    0.559785 0.838129 0.550797 0.126096
H4    H     H_    0.773321 0.905356 0.603635 0.137883
H5    H     H_    0.675794 0.273017 0.371643 0.180950
H6    H     H_    0.338198 0.567349 0.452977 0.149577
H7    H     H_    0.846961 0.698859 0.357631 0.139172
H8    H     H_    0.500954 0.669194 0.395475 0.158472
H9    H     H_    0.843903 0.328092 0.081849 0.199522
H10   H     H_    0.952157 0.642044 0.895848 0.049409
H11   H     H_    0.112842 0.686374 0.060480 0.194682
N1    N     N_R   0.246300 0.438200 0.549400 -0.214474
N2    N     N_R   0.754300 0.561180 0.451130 -0.214883
O1    O     O_R   0.972520 0.318130 0.524690 -0.536965
O2    O     O_R   0.806530 0.359650 0.491530 -0.612333
O3    O     O_R   0.083030 0.479240 0.637150 -0.549824
O4    O     O_R   0.917040 0.520750 0.603990 -0.588788
O5    O     O_R   0.193470 0.640350 0.508470 -0.591255
O6    O     O_R   0.027480 0.681870 0.475310 -0.589611
O7    O     O_R   0.082960 0.479250 0.396010 -0.578038
O8    O     O_R   0.916970 0.520760 0.362850 -0.583424
H12   H     H_    0.049814 0.358945 0.093419 0.132765
H13   H     H_    0.193238 0.524276 0.953655 0.183795
O9    O     O_3   0.205798 0.491809 0.126876 -0.590383
C43   C     C_3   0.293512 0.604722 0.102209 0.069851
H14   H     H_    0.263993 0.652600 0.043671 0.186569
H15   H     H_    0.375025 0.598676 0.088172 0.160537
C44   C     C_3   0.332420 0.674277 0.177423 -0.777011
H16   H     H_    0.367307 0.630312 0.236453 0.252273
H17   H     H_    0.405935 0.761072 0.160064 0.217100
H18   H     H_    0.253627 0.684203 0.192126 0.236098
H19   H     H_    0.954245 0.645315 0.038853 0.141274
H20   H     H_    0.090928 0.891983 0.403651 0.148587
O10   O     O_3   0.449049 0.230946 0.308744 -0.535152
C45   C     C_3   0.480475 0.340293 0.330917 0.090182
H21   H     H_    0.581230 0.390465 0.342334 0.143153
H22   H     H_    0.438907 0.331562 0.389818 0.146225
C46   C     C_3   0.432389 0.408082 0.255788 -0.705088
H23   H     H_    0.331996 0.360190 0.240140 0.285156
H24   H     H_    0.452819 0.492698 0.273588 0.198039
H25   H     H_    0.477194 0.422664 0.197342 0.233438
O11   O     O_3   0.230022 0.111774 0.356405 -0.541179
C47   C     C_3   0.175357 0.135615 0.415906 0.031769
H26   H     H_    0.238858 0.159491 0.476649 0.135038
H27   H     H_    0.089016 0.060035 0.432612 0.132905
C48   C     C_3   0.143213 0.235922 0.375310 -0.733891
H28   H     H_    0.090246 0.247360 0.418774 0.216925
H29   H     H_    0.227611 0.316719 0.366459 0.242974
H30   H     H_    0.086995 0.218887 0.311409 0.247200
H31   H     H_    0.087340 0.378113 0.958171 0.176179
O12   O     O_3   0.137374 0.286822 0.653749 -0.569367
C49   C     C_3   0.162260 0.272953 0.745596 0.062603
H32   H     H_    0.110441 0.307837 0.771577 0.182409
H33   H     H_    0.260174 0.319852 0.771484 0.117200
C50   C     C_3   0.116884 0.145250 0.780689 -0.859216
H34   H     H_    0.165261 0.106504 0.755238 0.235241
H35   H     H_    0.133948 0.133891 0.852759 0.217658
H36   H     H_    0.017102 0.099750 0.760677 0.252380
O13   O     O_3   0.536158 0.260417 0.671183 -0.598761
C51   C     C_3   0.536547 0.170322 0.635768 0.073699
H37   H     H_    0.632356 0.185772 0.633548 0.160995
H38   H     H_    0.485313 0.161023 0.569326 0.133763
C52   C     C_3   0.475057 0.057042 0.693229 -0.812686
H39   H     H_    0.377858 0.038107 0.693882 0.239448
H40   H     H_    0.478695 0.986154 0.667783 0.216194
H41   H     H_    0.522403 0.062101 0.760467 0.252913
H42   H     H_    0.333690 0.244344 0.678025 0.198143
O14   O     O_3   0.689207 0.794770 0.314939 -0.581393
C53   C     C_3   0.785875 0.890837 0.350274 0.059728
H43   H     H_    0.875258 0.898850 0.337845 0.138344
H44   H     H_    0.786196 0.884845 0.421646 0.143954
C54   C     C_3   0.771805 0.999901 0.306955 -0.745984
H45   H     H_    0.683426 0.994394 0.319009 0.254803
H46   H     H_    0.847535 0.075757 0.334225 0.196498
H47   H     H_    0.774339 0.011355 0.235823 0.244075
H48   H     H_    0.717927 0.390322 0.587349 0.216318
H49   H     H_    0.804174 0.441098 0.906296 0.057863
O15   O     O_3   0.848112 0.298956 0.934621 -0.569106
C55   C     C_3   0.720706 0.231538 0.919206 0.077675
H50   H     H_    0.684643 0.259876 0.852939 0.179628
H51   H     H_    0.670860 0.237423 0.968132 0.139484
C56   C     C_3   0.696478 0.106108 0.925182 -0.788183
H52   H     H_    0.735404 0.077026 0.989906 0.250305
H53   H     H_    0.596395 0.051544 0.916550 0.197253
H54   H     H_    0.739045 0.095899 0.873838 0.248376
H55   H     H_    0.801984 0.445414 0.049497 0.160995
O16   O     O_3   0.143250 0.701584 0.907357 -0.580253
C57   C     C_3   0.146496 0.812605 0.881914 0.070024
H56   H     H_    0.114899 0.838233 0.931785 0.140891
H57   H     H_    0.088186 0.815265 0.818908 0.144827
C58   C     C_3   0.277433 0.899291 0.870243 -0.812321
H58   H     H_    0.311845 0.875466 0.821247 0.254895
H59   H     H_    0.281255 0.986755 0.847917 0.205245
H60   H     H_    0.336973 0.900304 0.932933 0.244236

loop_
_geom_bond_atom_site_label_1
_geom_bond_atom_site_label_2
_ccdc_geom_bond_type
C58   H60   S    
C47   H26   S    
C49   C50   S    
C56   H52   S    
C19   O10   S    
C11   C13   A    
O12   C49   S    
Cu1   N1    S    
C5    C42   S    
C3    C6    S    
C51   H38   S    
C35   H48   S    
C58   H58   S    
C10   C22   A    
C26   C27   A    
C20   H5    S    
C39   O15   S    
C30   C35   A    
C28   C29   A    
C38   C42   S    
C2    O9    S    
C1    O2    A    
C9    C22   A    
C55   H51   S    
Cu2   O2    S    
C15   C16   A    
C30   N2    A    
C11   C24   A    
C54   H45   S    
C37   O12   S    
C58   H59   S    
C18   C19   A    
C7    C42   S    
C43   H15   S    
O14   C53   S    
Cu1   O1    S    
C25   C37   A    
C37   N1    A    
C23   O5    A    
C50   H34   S    
O9    C43   S    
C6    C41   T    
C49   H33   S    
C52   H39   S    
C31   C36   A    
C16   C20   A    
C53   C54   S    
C25   C32   A    
C23   O6    A    
C16   C24   A    
C33   O13   S    
C13   C14   A    
C52   H40   S    
Cu2   O8    S    
C34   C41   S    
C44   H18   S    
C34   O8    A    
C51   H37   S    
Cu1   O7    S    
C39   C42   S    
C21   H1    S    
C10   C21   A    
C5    H10   S    
C55   H50   S    
C44   H17   S    
C39   C40   S    
C45   H22   S    
O11   C47   S    
C57   H56   S    
C55   C56   S    
C56   H54   S    
C46   H23   S    
C17   C21   A    
C43   C44   S    
Cu1   Cu2   S    
C29   C30   A    
C36   N1    A    
C9    O11   S    
C45   C46   S    
C2    C38   S    
C48   H29   S    
C31   C32   A    
C5    O16   S    
Cu2   N2    S    
C8    C12   S    
C49   H32   S    
C38   H31   S    
C34   O7    A    
C17   C18   A    
Cu1   O3    S    
C50   H35   S    
C3    C40   S    
C40   H9    S    
C46   H24   S    
C47   H27   S    
C4    H11   S    
C10   C23   S    
C52   H41   S    
O16   C57   S    
O13   C51   S    
C36   H6    S    
C48   H30   S    
C53   H43   S    
C15   C17   A    
C40   H55   S    
C56   H53   S    
O10   C45   S    
C22   H20   S    
C44   H16   S    
C2    H12   S    
C27   O14   S    
C13   H4    S    
C14   H3    S    
Cu2   O4    S    
C46   H25   S    
C39   H49   S    
C54   H47   S    
C32   C33   A    
C19   C20   A    
C2    C3    S    
C29   C31   A    
C1    O1    A    
C12   O4    A    
C28   H8    S    
C48   H28   S    
C57   C58   S    
C33   C35   A    
C54   H46   S    
C43   H14   S    
C26   N2    A    
C4    H19   S    
C7    C8    T    
C25   H42   S    
C45   H21   S    
C12   O3    A    
C9    C18   A    
C4    C5    S    
C50   H36   S    
C38   H13   S    
C1    C24   S    
C57   H57   S    
Cu2   O6    S    
C47   C48   S    
C27   C28   A    
C14   C15   A    
C11   H2    S    
O15   C55   S    
C26   H7    S    
C51   C52   S    
C3    C4    S    
Cu1   O5    S    
C53   H44   S    
