data_mof_unit_63923.cif
_audit_creation_date              2013-03-05T16:22:52-0500
_audit_creation_method            fapswitch 2.2
_symmetry_space_group_name_H-M    P1
_symmetry_Int_Tables_number       1
_space_group_crystal_system       triclinic
_cell_length_a                    30.84285
_cell_length_b                    29.141096
_cell_length_c                    30.432394
_cell_angle_alpha                 89.907422
_cell_angle_beta                  89.964866
_cell_angle_gamma                 90.480079
_cell_volume                      27351.4656737

loop_
_atom_site_label
_atom_site_type_symbol
_atom_site_description
_atom_site_fract_x
_atom_site_fract_y
_atom_site_fract_z
_atom_type_partial_charge
O1    O     O_R   0.321670 0.000000 0.730060 -0.624646
O2    O     O_R   0.678330 0.000000 0.730060 -0.621341
O3    O     O_R   0.821670 0.500000 0.730060 -0.621629
O4    O     O_R   0.178330 0.500000 0.730060 -0.623857
O5    O     O_R   0.821670 0.000000 0.230060 -0.623521
O6    O     O_R   0.178330 0.000000 0.230060 -0.622801
O7    O     O_R   0.321670 0.500000 0.230060 -0.624395
O8    O     O_R   0.678330 0.500000 0.230060 -0.621529
O9    O     O_R   0.269940 0.000000 0.678340 -0.581839
O10   O     O_R   0.730060 0.000000 0.678340 -0.594552
O11   O     O_R   0.769940 0.500000 0.678340 -0.592188
O12   O     O_R   0.230060 0.500000 0.678340 -0.582143
O13   O     O_R   0.769940 0.000000 0.178340 -0.590672
O14   O     O_R   0.230060 0.000000 0.178340 -0.590143
O15   O     O_R   0.269940 0.500000 0.178340 -0.582331
O16   O     O_R   0.730060 0.500000 0.178340 -0.594190
C1    C     C_R   0.309587 0.999149 0.689865 0.937215
C2    C     C_R   0.690278 0.998920 0.689830 0.944735
C3    C     C_R   0.809716 0.501081 0.689831 0.944755
C4    C     C_R   0.190403 0.500770 0.689854 0.938442
C5    C     C_R   0.809716 0.001124 0.189831 0.945277
C6    C     C_R   0.190278 0.998871 0.189829 0.948952
C7    C     C_R   0.309587 0.499152 0.189865 0.937813
C8    C     C_R   0.690278 0.498920 0.189830 0.945165
O17   O     O_R   0.275870 0.936860 0.775860 -0.587536
O18   O     O_R   0.724130 0.063140 0.775860 -0.580299
O19   O     O_R   0.724130 0.936860 0.775860 -0.604992
O20   O     O_R   0.275870 0.063140 0.775860 -0.596629
O21   O     O_R   0.775870 0.436860 0.775860 -0.580754
O22   O     O_R   0.224130 0.563140 0.775860 -0.599711
O23   O     O_R   0.224130 0.436860 0.775860 -0.580915
O24   O     O_R   0.775870 0.563140 0.775860 -0.605239
O25   O     O_R   0.775870 0.936860 0.275860 -0.579907
O26   O     O_R   0.224130 0.063140 0.275860 -0.601182
O27   O     O_R   0.224130 0.936860 0.275860 -0.582338
O28   O     O_R   0.775870 0.063140 0.275860 -0.607508
O29   O     O_R   0.275870 0.436860 0.275860 -0.605315
O30   O     O_R   0.724130 0.563140 0.275860 -0.580401
O31   O     O_R   0.724130 0.436860 0.275860 -0.605136
O32   O     O_R   0.275870 0.563140 0.275860 -0.581987
O33   O     O_R   0.224140 0.936870 0.724140 -0.571805
O34   O     O_R   0.775860 0.063130 0.724140 -0.602524
O35   O     O_R   0.775860 0.936870 0.724140 -0.580394
O36   O     O_R   0.224140 0.063130 0.724140 -0.608988
O37   O     O_R   0.724140 0.436870 0.724140 -0.600908
O38   O     O_R   0.275860 0.563130 0.724140 -0.578721
O39   O     O_R   0.275860 0.436870 0.724140 -0.605485
O40   O     O_R   0.724140 0.563130 0.724140 -0.580054
O41   O     O_R   0.724140 0.936870 0.224140 -0.600559
O42   O     O_R   0.275860 0.063130 0.224140 -0.602561
O43   O     O_R   0.275860 0.936870 0.224140 -0.581479
O44   O     O_R   0.724140 0.063130 0.224140 -0.579263
O45   O     O_R   0.224140 0.436870 0.224140 -0.580680
O46   O     O_R   0.775860 0.563130 0.224140 -0.601067
O47   O     O_R   0.775860 0.436870 0.224140 -0.581867
O48   O     O_R   0.224140 0.563130 0.224140 -0.596912
C9    C     C_R   0.249847 0.914256 0.750035 0.950349
C10   C     C_R   0.750070 0.085752 0.749885 0.902930
C11   C     C_R   0.750058 0.914249 0.750263 0.913853
C12   C     C_R   0.250090 0.085745 0.750044 0.852172
C13   C     C_R   0.750002 0.414258 0.749870 0.891369
C14   C     C_R   0.250223 0.585755 0.750046 0.910802
C15   C     C_R   0.249900 0.414249 0.750094 0.881000
C16   C     C_R   0.749917 0.585742 0.750226 0.913460
C17   C     C_R   0.750001 0.914257 0.249871 0.892058
C18   C     C_R   0.250074 0.085753 0.249884 0.854558
C19   C     C_R   0.250075 0.914249 0.250283 0.944927
C20   C     C_R   0.749923 0.085742 0.250220 0.912778
C21   C     C_R   0.249810 0.414255 0.250075 0.907364
C22   C     C_R   0.750070 0.585752 0.249885 0.903165
C23   C     C_R   0.750058 0.414249 0.250263 0.913406
C24   C     C_R   0.250101 0.585744 0.250045 0.900391
Zn1   Zn    Zn3+2 0.284540 0.000000 0.784540 1.068992
Zn2   Zn    Zn3+2 0.715460 0.000000 0.784540 1.064135
Zn3   Zn    Zn3+2 0.784540 0.500000 0.784540 1.061234
Zn4   Zn    Zn3+2 0.215460 0.500000 0.784540 1.073580
Zn5   Zn    Zn3+2 0.784540 0.000000 0.284540 1.058041
Zn6   Zn    Zn3+2 0.215460 0.000000 0.284540 1.066762
Zn7   Zn    Zn3+2 0.284540 0.500000 0.284540 1.061856
Zn8   Zn    Zn3+2 0.715460 0.500000 0.284540 1.063205
Zn9   Zn    Zn3+2 0.215460 0.000000 0.715470 1.052311
Zn10  Zn    Zn3+2 0.784540 0.000000 0.715470 1.047995
Zn11  Zn    Zn3+2 0.715460 0.500000 0.715470 1.054888
Zn12  Zn    Zn3+2 0.284540 0.500000 0.715470 1.045892
Zn13  Zn    Zn3+2 0.715460 0.000000 0.215470 1.056264
Zn14  Zn    Zn3+2 0.284540 0.000000 0.215470 1.048820
Zn15  Zn    Zn3+2 0.215460 0.500000 0.215470 1.052259
Zn16  Zn    Zn3+2 0.784540 0.500000 0.215470 1.047913
O49   O     O_R   0.230060 0.000000 0.821670 -0.579108
O50   O     O_R   0.769940 0.000000 0.821670 -0.587087
O51   O     O_R   0.730060 0.500000 0.821670 -0.581878
O52   O     O_R   0.269940 0.500000 0.821670 -0.569408
O53   O     O_R   0.730060 0.000000 0.321670 -0.582037
O54   O     O_R   0.269940 0.000000 0.321670 -0.570130
O55   O     O_R   0.230060 0.500000 0.321670 -0.588807
O56   O     O_R   0.769940 0.500000 0.321670 -0.587623
O57   O     O_R   0.178330 0.000000 0.769950 -0.610880
O58   O     O_R   0.821670 0.000000 0.769950 -0.612178
O59   O     O_R   0.678330 0.500000 0.769950 -0.608171
O60   O     O_R   0.321670 0.500000 0.769950 -0.617398
O61   O     O_R   0.678330 0.000000 0.269950 -0.608080
O62   O     O_R   0.321670 0.000000 0.269950 -0.617251
O63   O     O_R   0.178330 0.500000 0.269950 -0.609419
O64   O     O_R   0.821670 0.500000 0.269950 -0.611932
C25   C     C_R   0.190226 0.999865 0.810266 0.888115
C26   C     C_R   0.809712 0.999883 0.810039 0.901003
C27   C     C_R   0.690234 0.499796 0.810255 0.885689
C28   C     C_R   0.309678 0.499979 0.810117 0.879624
C29   C     C_R   0.690234 0.999801 0.310256 0.885731
C30   C     C_R   0.309678 0.999981 0.310117 0.878348
C31   C     C_R   0.190304 0.499988 0.310009 0.897543
C32   C     C_R   0.809712 0.499879 0.310040 0.900031
C33   C     C_1   0.249883 0.863437 0.749754 -0.052103
C34   C     C_1   0.750229 0.136573 0.749703 -0.118181
C35   C     C_1   0.749919 0.863424 0.750479 -0.126900
C36   C     C_1   0.250161 0.136569 0.750216 -0.180959
C37   C     C_1   0.750031 0.363437 0.749610 -0.112988
C38   C     C_1   0.250323 0.636581 0.749796 -0.120122
C39   C     C_1   0.249780 0.363431 0.750307 -0.121187
C40   C     C_1   0.749983 0.636565 0.750405 -0.128687
C41   C     C_1   0.750028 0.863437 0.249612 -0.111541
C42   C     C_1   0.250191 0.136575 0.249654 -0.180806
C43   C     C_1   0.249969 0.863425 0.250537 -0.062408
C44   C     C_1   0.749990 0.136565 0.250398 -0.131528
C45   C     C_1   0.249787 0.363433 0.249859 -0.128178
C46   C     C_1   0.750228 0.636573 0.249702 -0.116886
C47   C     C_1   0.749920 0.363424 0.250478 -0.129536
C48   C     C_1   0.250158 0.636563 0.250287 -0.110978
C49   C     C_1   0.249964 0.821133 0.749631 0.085631
C50   C     C_1   0.750263 0.178881 0.749644 0.050947
C51   C     C_1   0.749888 0.821117 0.750536 0.036817
C52   C     C_1   0.250129 0.178878 0.750315 0.015138
C53   C     C_1   0.750089 0.321129 0.749549 0.057767
C54   C     C_1   0.250285 0.678889 0.749665 0.049496
C55   C     C_1   0.249814 0.321125 0.750400 0.051356
C56   C     C_1   0.749983 0.678872 0.750475 0.035973
C57   C     C_1   0.750086 0.821129 0.249551 0.059892
C58   C     C_1   0.250171 0.178884 0.249575 0.014467
C59   C     C_1   0.249967 0.821118 0.250641 0.081143
C60   C     C_1   0.749989 0.178872 0.250469 0.032619
C61   C     C_1   0.249858 0.321128 0.249717 0.035174
C62   C     C_1   0.750261 0.678881 0.249644 0.053047
C63   C     C_1   0.749890 0.321117 0.250534 0.033531
C64   C     C_1   0.250130 0.678870 0.250468 0.060398
C65   C     C_1   0.250080 0.771167 0.749582 0.060704
C66   C     C_1   0.750228 0.228851 0.749600 0.045812
C67   C     C_1   0.749910 0.771148 0.750541 0.038098
C68   C     C_1   0.250028 0.228849 0.750396 0.027329
C69   C     C_1   0.750168 0.271160 0.749567 0.045669
C70   C     C_1   0.250181 0.728859 0.749591 0.054006
C71   C     C_1   0.249924 0.271158 0.750427 0.034943
C72   C     C_1   0.749946 0.728840 0.750521 0.037833
C73   C     C_1   0.750165 0.771160 0.249569 0.048175
C74   C     C_1   0.250079 0.228853 0.249566 0.025316
C75   C     C_1   0.250013 0.771149 0.250667 0.060880
C76   C     C_1   0.749951 0.228840 0.250516 0.034193
C77   C     C_1   0.249979 0.271161 0.249609 0.030306
C78   C     C_1   0.750225 0.728851 0.249601 0.048320
C79   C     C_1   0.749913 0.271148 0.250538 0.034462
C80   C     C_1   0.250067 0.728839 0.250614 0.057872
C81   C     C_R   0.356507 0.039295 0.639724 0.069903
C82   C     C_R   0.632466 0.036475 0.651274 0.049631
C83   C     C_R   0.867589 0.463526 0.651471 0.051947
C84   C     C_R   0.143668 0.460635 0.639636 0.070433
C85   C     C_R   0.867871 0.963741 0.151765 0.052302
C86   C     C_R   0.132160 0.036239 0.151592 0.060650
C87   C     C_R   0.356495 0.539295 0.139712 0.069027
C88   C     C_R   0.632471 0.536478 0.151270 0.049862
C89   C     C_R   0.340906 0.997742 0.655913 -0.202398
C90   C     C_R   0.658459 0.998041 0.656052 -0.208234
C91   C     C_R   0.841527 0.501923 0.656035 -0.209133
C92   C     C_R   0.159080 0.502178 0.655904 -0.202380
C93   C     C_R   0.841534 0.001961 0.156037 -0.210678
C94   C     C_R   0.158453 0.997997 0.156053 -0.211959
C95   C     C_R   0.340906 0.497743 0.155914 -0.202076
C96   C     C_R   0.658459 0.498041 0.156052 -0.208575
C97   C     C_R   0.352535 0.956027 0.635691 0.296196
C98   C     C_R   0.657720 0.963063 0.623813 0.296960
C99   C     C_R   0.842140 0.536762 0.623552 0.299569
C100  C     C_R   0.147232 0.543937 0.635784 0.294459
C101  C     C_R   0.841959 0.036584 0.123340 0.298883
C102  C     C_R   0.157929 0.963259 0.123570 0.300118
C103  C     C_R   0.352548 0.456024 0.135704 0.296179
C104  C     C_R   0.657716 0.463059 0.123817 0.297243
C105  C     C_R   0.384884 0.957186 0.603624 -0.256266
C106  C     C_R   0.626042 0.964944 0.591067 -0.264174
C107  C     C_R   0.873797 0.534831 0.590771 -0.261612
C108  C     C_R   0.114901 0.542774 0.603734 -0.254693
C109  C     C_R   0.873644 0.034641 0.090586 -0.265003
C110  C     C_R   0.126224 0.965156 0.090850 -0.266822
C111  C     C_R   0.384896 0.457184 0.103637 -0.258790
C112  C     C_R   0.626038 0.464940 0.091072 -0.264390
H1    H     H_    0.395553 0.925375 0.588924 0.213108
H2    H     H_    0.623178 0.937249 0.567486 0.203366
H3    H     H_    0.876588 0.562439 0.566998 0.202236
H4    H     H_    0.104088 0.574613 0.589116 0.213164
H5    H     H_    0.876279 0.062093 0.066632 0.201259
H6    H     H_    0.123538 0.937635 0.067064 0.201677
H7    H     H_    0.395574 0.425372 0.088947 0.212001
H8    H     H_    0.623171 0.437242 0.067494 0.203186
C113  C     C_R   0.404351 0.999086 0.591695 -0.189896
C114  C     C_R   0.596229 0.000918 0.590705 -0.172272
C115  C     C_R   0.903710 0.498953 0.590635 -0.171035
C116  C     C_R   0.095632 0.500841 0.591711 -0.188889
C117  C     C_R   0.903766 0.998962 0.090688 -0.172651
C118  C     C_R   0.096177 0.000910 0.090751 -0.175104
C119  C     C_R   0.404352 0.499086 0.091696 -0.189661
C120  C     C_R   0.596229 0.500918 0.090705 -0.172337
C121  C     C_R   0.387977 0.040015 0.607944 0.158761
C122  C     C_R   0.601804 0.038053 0.618774 0.155443
C123  C     C_R   0.898238 0.461900 0.618936 0.157423
C124  C     C_R   0.112198 0.459917 0.607877 0.162132
C125  C     C_R   0.898544 0.962098 0.119252 0.154429
C126  C     C_R   0.101477 0.037839 0.119111 0.156989
C127  C     C_R   0.387966 0.540015 0.107933 0.161582
C128  C     C_R   0.601809 0.538056 0.118769 0.155808
C129  C     C_3   0.411187 0.079658 0.628636 -0.445264
C130  C     C_3   0.569588 0.061176 0.647745 -0.475610
C131  C     C_3   0.930522 0.438968 0.648001 -0.478320
C132  C     C_3   0.089173 0.420044 0.628522 -0.446104
C133  C     C_3   0.930996 0.939720 0.148518 -0.466082
C134  C     C_3   0.069074 0.060363 0.148299 -0.469482
C135  C     C_3   0.411164 0.579672 0.128616 -0.440251
C136  C     C_3   0.569596 0.561186 0.147737 -0.474746
C137  C     C_3   0.376246 0.078889 0.663791 -0.487013
C138  C     C_3   0.603531 0.059348 0.683804 -0.442697
C139  C     C_3   0.896591 0.440849 0.684104 -0.444829
C140  C     C_3   0.124106 0.420807 0.663642 -0.494857
C141  C     C_3   0.897039 0.941606 0.184587 -0.446180
C142  C     C_3   0.103039 0.058525 0.184327 -0.452147
C143  C     C_3   0.376221 0.578903 0.163768 -0.489234
C144  C     C_3   0.603538 0.559359 0.183797 -0.442258
H9    H     H_    0.443833 0.070396 0.641208 0.197198
H10   H     H_    0.562511 0.096654 0.636539 0.210128
H11   H     H_    0.540549 0.039399 0.654549 0.195665
H12   H     H_    0.410317 0.110891 0.607651 0.210103
H13   H     H_    0.937672 0.403466 0.637015 0.209184
H14   H     H_    0.056480 0.429066 0.641145 0.197036
H15   H     H_    0.090194 0.388930 0.607478 0.208772
H16   H     H_    0.959517 0.460840 0.654613 0.196075
H17   H     H_    0.938438 0.904192 0.137823 0.215669
H18   H     H_    0.061685 0.095873 0.137408 0.215442
H19   H     H_    0.040233 0.038227 0.154924 0.193734
H20   H     H_    0.959803 0.961927 0.154969 0.193646
H21   H     H_    0.443812 0.570424 0.141192 0.196360
H22   H     H_    0.562523 0.596664 0.136527 0.211196
H23   H     H_    0.540554 0.539415 0.154545 0.195336
H24   H     H_    0.410287 0.610898 0.107621 0.213142
H25   H     H_    0.388541 0.069244 0.696863 0.220168
H26   H     H_    0.616000 0.093779 0.693465 0.205069
H27   H     H_    0.594234 0.036468 0.711599 0.224680
H28   H     H_    0.355154 0.109626 0.663053 0.208736
H29   H     H_    0.884203 0.406425 0.694013 0.204225
H30   H     H_    0.111758 0.430206 0.696746 0.220146
H31   H     H_    0.145343 0.390187 0.662824 0.205869
H32   H     H_    0.905851 0.463857 0.711732 0.224724
H33   H     H_    0.884919 0.907162 0.194762 0.207469
H34   H     H_    0.115217 0.092979 0.194280 0.206492
H35   H     H_    0.093941 0.035300 0.211927 0.222341
H36   H     H_    0.906109 0.964930 0.212037 0.222823
H37   H     H_    0.388517 0.569273 0.196844 0.220565
H38   H     H_    0.616011 0.593790 0.193453 0.205732
H39   H     H_    0.594239 0.536485 0.211595 0.224474
H40   H     H_    0.355120 0.609633 0.163020 0.209571
C145  C     C_R   0.164319 0.979049 0.883436 0.035073
C146  C     C_R   0.842579 0.030569 0.876266 0.025215
C147  C     C_R   0.663806 0.477658 0.882828 0.032169
C148  C     C_R   0.340752 0.471346 0.878093 0.025273
C149  C     C_R   0.663841 0.977749 0.382869 0.031662
C150  C     C_R   0.340741 0.971361 0.378105 0.020983
C151  C     C_R   0.156325 0.532677 0.374441 0.025713
C152  C     C_R   0.842526 0.530497 0.376326 0.025558
C153  C     C_R   0.158330 0.002557 0.843970 -0.070705
C154  C     C_R   0.842087 0.998697 0.842751 -0.066478
C155  C     C_R   0.658361 0.502345 0.843955 -0.068308
C156  C     C_R   0.341767 0.501773 0.843184 -0.064898
C157  C     C_R   0.658359 0.002359 0.343956 -0.068186
C158  C     C_R   0.341769 0.001772 0.343184 -0.063429
C159  C     C_R   0.157884 0.499025 0.342636 -0.059923
C160  C     C_R   0.842090 0.498691 0.342753 -0.063889
C161  C     C_R   0.122291 0.030977 0.838545 -0.168885
C162  C     C_R   0.875142 0.965820 0.840960 -0.190438
C163  C     C_R   0.623032 0.531851 0.839224 -0.174782
C164  C     C_R   0.375939 0.533895 0.840520 -0.181058
C165  C     C_R   0.622982 0.031794 0.339178 -0.175151
C166  C     C_R   0.375958 0.033871 0.340502 -0.180175
C167  C     C_R   0.125677 0.464652 0.342246 -0.194226
C168  C     C_R   0.875203 0.465882 0.340904 -0.192224
H41   H     H_    0.118520 0.051770 0.809268 0.159245
H42   H     H_    0.875778 0.940348 0.815074 0.156237
H43   H     H_    0.619765 0.553465 0.810430 0.157032
H44   H     H_    0.377408 0.558721 0.814006 0.155275
H45   H     H_    0.619681 0.053354 0.310352 0.156753
H46   H     H_    0.377440 0.058682 0.313976 0.155676
H47   H     H_    0.125831 0.437876 0.317582 0.149077
H48   H     H_    0.875884 0.440461 0.314973 0.152167
C169  C     C_R   0.090100 0.031157 0.870528 -0.192444
C170  C     C_R   0.907313 0.965657 0.873361 -0.190963
C171  C     C_R   0.590893 0.532113 0.871259 -0.192570
C172  C     C_R   0.408394 0.533868 0.872622 -0.194597
C173  C     C_R   0.590839 0.032051 0.371210 -0.193186
C174  C     C_R   0.408414 0.033844 0.372603 -0.198292
C175  C     C_R   0.093380 0.464681 0.374521 -0.194633
C176  C     C_R   0.907376 0.465719 0.373304 -0.194738
H49   H     H_    0.061547 0.052010 0.865781 0.154436
H50   H     H_    0.932572 0.940073 0.872145 0.164858
H51   H     H_    0.562844 0.553825 0.867005 0.149187
H52   H     H_    0.434512 0.558896 0.870757 0.155236
H53   H     H_    0.562756 0.053706 0.366922 0.148502
H54   H     H_    0.434544 0.058857 0.370726 0.154277
H55   H     H_    0.068853 0.437845 0.374466 0.156724
H56   H     H_    0.932682 0.440190 0.372043 0.155290
C177  C     C_R   0.093616 0.001795 0.906836 -0.043679
C178  C     C_R   0.906904 0.999249 0.906551 -0.058128
C179  C     C_R   0.593737 0.501790 0.906915 -0.039902
C180  C     C_R   0.407420 0.500458 0.906077 -0.052522
C181  C     C_R   0.593728 0.001791 0.406909 -0.039279
C182  C     C_R   0.407421 0.000455 0.406076 -0.051261
C183  C     C_R   0.092828 0.499865 0.406193 -0.056956
C184  C     C_R   0.906907 0.499247 0.406552 -0.052913
C185  C     C_R   0.131872 0.978239 0.914384 -0.004554
C186  C     C_R   0.874109 0.031264 0.906638 0.008196
C187  C     C_R   0.631397 0.476971 0.913824 -0.009901
C188  C     C_R   0.373329 0.469463 0.907284 0.014361
C189  C     C_R   0.631429 0.977054 0.413862 -0.010962
C190  C     C_R   0.373317 0.969478 0.407297 0.012035
C191  C     C_R   0.124686 0.533470 0.404723 0.012103
C192  C     C_R   0.874055 0.531196 0.406697 0.007739
C193  C     C_3   0.139167 0.929312 0.926874 -0.531430
C194  C     C_3   0.856409 0.071515 0.930807 -0.533917
C195  C     C_3   0.637458 0.427531 0.925116 -0.522897
C196  C     C_3   0.356302 0.427939 0.930472 -0.534882
C197  C     C_3   0.637571 0.927646 0.425232 -0.521951
C198  C     C_3   0.356262 0.927989 0.430522 -0.527278
C199  C     C_3   0.141454 0.575573 0.427092 -0.532148
C200  C     C_3   0.856287 0.571365 0.430939 -0.531659
C201  C     C_3   0.175249 0.929665 0.892480 0.489787
C202  C     C_3   0.820260 0.071223 0.895565 0.496281
C203  C     C_3   0.673430 0.427729 0.890613 0.484870
C204  C     C_3   0.318821 0.429598 0.896781 0.495244
C205  C     C_3   0.673551 0.927854 0.390737 0.484596
C206  C     C_3   0.318779 0.929649 0.396833 0.493617
C207  C     C_3   0.177661 0.575162 0.391871 0.490986
C208  C     C_3   0.820136 0.571070 0.395699 0.494576
H57   H     H_    0.150842 0.926279 0.961313 0.220505
H58   H     H_    0.845386 0.062177 0.964466 0.229124
H59   H     H_    0.878684 0.101659 0.929073 0.223653
H60   H     H_    0.111047 0.906743 0.918783 0.234477
H61   H     H_    0.649139 0.423264 0.959431 0.220562
H62   H     H_    0.378157 0.398053 0.926807 0.236636
H63   H     H_    0.346622 0.435791 0.964836 0.212965
H64   H     H_    0.608754 0.405991 0.916589 0.237110
H65   H     H_    0.649253 0.923459 0.459557 0.220515
H66   H     H_    0.378094 0.898081 0.426880 0.238602
H67   H     H_    0.346591 0.935880 0.464880 0.212356
H68   H     H_    0.608906 0.906037 0.416733 0.237619
H69   H     H_    0.118526 0.604646 0.424077 0.226543
H70   H     H_    0.845282 0.561941 0.464582 0.228274
H71   H     H_    0.878510 0.601555 0.429256 0.226733
H72   H     H_    0.152635 0.568315 0.461101 0.226489
O65   O     O_R   0.954170 0.964330 0.954180 -0.626162
O66   O     O_R   0.045830 0.035670 0.954180 -0.622528
O67   O     O_R   0.045830 0.964330 0.954180 -0.619598
O68   O     O_R   0.954170 0.035670 0.954180 -0.620001
O69   O     O_R   0.454170 0.464330 0.954180 -0.611512
O70   O     O_R   0.545830 0.535670 0.954180 -0.630028
O71   O     O_R   0.545830 0.464330 0.954180 -0.614498
O72   O     O_R   0.454170 0.535670 0.954180 -0.630736
O73   O     O_R   0.454170 0.964330 0.454180 -0.610269
O74   O     O_R   0.545830 0.035670 0.454180 -0.630874
O75   O     O_R   0.545830 0.964330 0.454180 -0.613770
O76   O     O_R   0.454170 0.035670 0.454180 -0.632745
O77   O     O_R   0.954170 0.464330 0.454180 -0.632270
O78   O     O_R   0.045830 0.535670 0.454180 -0.612146
O79   O     O_R   0.045830 0.464330 0.454180 -0.633248
O80   O     O_R   0.954170 0.535670 0.454180 -0.613469
C209  C     C_R   0.939207 0.999848 0.939532 0.914726
C210  C     C_R   0.059812 0.000259 0.938450 0.912563
C211  C     C_R   0.439875 0.499972 0.938874 0.915201
C212  C     C_R   0.559848 0.500260 0.938467 0.910470
C213  C     C_R   0.439873 0.999972 0.438876 0.914763
C214  C     C_R   0.559846 0.000260 0.438466 0.910679
C215  C     C_R   0.939210 0.499848 0.439531 0.917036
C216  C     C_R   0.060726 0.500088 0.439434 0.919750
O81   O     O_R   0.454180 0.964360 0.545790 -0.620221
O82   O     O_R   0.545820 0.035640 0.545790 -0.623266
O83   O     O_R   0.545820 0.964360 0.545790 -0.617659
O84   O     O_R   0.454180 0.035640 0.545790 -0.624812
O85   O     O_R   0.954180 0.464360 0.545790 -0.623866
O86   O     O_R   0.045820 0.535640 0.545790 -0.619858
O87   O     O_R   0.045820 0.464360 0.545790 -0.625647
O88   O     O_R   0.954180 0.535640 0.545790 -0.618441
O89   O     O_R   0.954180 0.964360 0.045790 -0.617845
O90   O     O_R   0.045820 0.035640 0.045790 -0.616512
O91   O     O_R   0.045820 0.964360 0.045790 -0.623988
O92   O     O_R   0.954180 0.035640 0.045790 -0.624905
O93   O     O_R   0.454180 0.464360 0.045790 -0.621257
O94   O     O_R   0.545820 0.535640 0.045790 -0.622596
O95   O     O_R   0.545820 0.464360 0.045790 -0.618382
O96   O     O_R   0.454180 0.535640 0.045790 -0.623597
C217  C     C_R   0.439643 0.999799 0.561251 0.930933
C218  C     C_R   0.560665 0.000163 0.560817 0.931883
C219  C     C_R   0.939325 0.499789 0.560807 0.929918
C220  C     C_R   0.060352 0.500159 0.561257 0.930814
C221  C     C_R   0.939353 0.999792 0.060832 0.926741
C222  C     C_R   0.060643 0.000160 0.060836 0.930175
C223  C     C_R   0.439644 0.499799 0.061252 0.930783
C224  C     C_R   0.560666 0.500163 0.060817 0.931606
Zn17  Zn    Zn3+2 0.000000 0.952400 0.999990 0.992748
Zn18  Zn    Zn3+2 0.000000 0.047600 0.999990 0.995514
Zn19  Zn    Zn3+2 0.500000 0.452400 0.999990 1.014367
Zn20  Zn    Zn3+2 0.500000 0.547600 0.999990 0.975829
Zn21  Zn    Zn3+2 0.500000 0.952400 0.499990 1.018454
Zn22  Zn    Zn3+2 0.500000 0.047600 0.499990 0.969926
Zn23  Zn    Zn3+2 1.000000 0.452400 0.499990 0.966727
Zn24  Zn    Zn3+2 1.000000 0.547600 0.499990 1.016785
N1    N     N_R   0.333853 0.912639 0.648621 0.202009
O97   O     O_R   0.292588 0.909007 0.656796 -0.391686
O98   O     O_R   0.356780 0.875423 0.646405 -0.365358
N2    N     N_R   0.686226 0.924260 0.625559 0.220965
O99   O     O_R   0.696833 0.906114 0.663071 -0.404867
O100  O     O_R   0.697081 0.903246 0.589539 -0.336321
N3    N     N_R   0.813539 0.575494 0.625084 0.221786
O101  O     O_R   0.802898 0.593761 0.662491 -0.404392
O102  O     O_R   0.802604 0.596322 0.588939 -0.335361
N4    N     N_R   0.165691 0.587359 0.648786 0.204232
O103  O     O_R   0.206902 0.591144 0.657118 -0.383307
O104  O     O_R   0.142618 0.624477 0.646546 -0.359467
N5    N     N_R   0.813135 0.075141 0.124624 0.220924
O105  O     O_R   0.802387 0.093597 0.161915 -0.407299
O106  O     O_R   0.802094 0.095654 0.088348 -0.337126
N6    N     N_R   0.186684 0.924649 0.125040 0.219918
O107  O     O_R   0.197422 0.906301 0.162425 -0.419417
O108  O     O_R   0.197659 0.903984 0.088873 -0.345065
N7    N     N_R   0.333879 0.412634 0.148647 0.202828
O109  O     O_R   0.292621 0.408994 0.156850 -0.385785
O110  O     O_R   0.356811 0.375422 0.146423 -0.370059
N8    N     N_R   0.686217 0.424252 0.125568 0.220624
O111  O     O_R   0.696823 0.406110 0.163083 -0.405510
O112  O     O_R   0.697070 0.403232 0.089551 -0.337709
N9    N     N_R   0.218386 0.923500 0.911808 0.220421
O113  O     O_R   0.227613 0.885316 0.931816 -0.309022
O114  O     O_R   0.248116 0.955252 0.908238 -0.358673
N10   N     N_R   0.776892 0.060237 0.912664 0.216370
O115  O     O_R   0.770920 0.024931 0.938302 -0.373327
O116  O     O_R   0.743512 0.084142 0.900522 -0.303059
N11   N     N_R   0.821150 0.112101 0.867369 0.206844
O117  O     O_R   0.813398 0.152201 0.884235 -0.310035
O118  O     O_R   0.828544 0.108803 0.825386 -0.420351
N12   N     N_R   0.166967 0.898919 0.855122 0.186335
O119  O     O_R   0.129952 0.899758 0.834590 -0.394903
O120  O     O_R   0.196721 0.870784 0.841762 -0.361460
N13   N     N_R   0.716434 0.419762 0.909602 0.220305
O121  O     O_R   0.747080 0.450562 0.906370 -0.359268
O122  O     O_R   0.724653 0.380851 0.928770 -0.294442
N14   N     N_R   0.317792 0.390851 0.866011 0.191425
O123  O     O_R   0.281528 0.369472 0.857636 -0.340021
O124  O     O_R   0.352708 0.378911 0.845014 -0.392200
N15   N     N_R   0.276703 0.438437 0.917434 0.217401
O125  O     O_R   0.257256 0.477534 0.912241 -0.365314
O126  O     O_R   0.259314 0.407550 0.943010 -0.315518
N16   N     N_R   0.664203 0.398237 0.852556 0.189408
O127  O     O_R   0.692997 0.369305 0.838619 -0.343359
O128  O     O_R   0.627229 0.400854 0.832109 -0.389684
N17   N     N_R   0.716566 0.920004 0.409751 0.220465
O129  O     O_R   0.724852 0.881140 0.428974 -0.292521
O130  O     O_R   0.747152 0.950870 0.406500 -0.359366
N18   N     N_R   0.317718 0.890870 0.366099 0.190992
O131  O     O_R   0.352614 0.878900 0.345086 -0.390791
O132  O     O_R   0.281448 0.869473 0.357793 -0.336112
N19   N     N_R   0.276671 0.938544 0.417483 0.217419
O133  O     O_R   0.259263 0.907698 0.443092 -0.302342
O134  O     O_R   0.257254 0.977653 0.412259 -0.368839
N20   N     N_R   0.664386 0.898277 0.352725 0.189644
O135  O     O_R   0.627408 0.900777 0.332270 -0.388414
O136  O     O_R   0.693245 0.869397 0.338826 -0.342718
N21   N     N_R   0.175869 0.614571 0.361886 0.206661
O137  O     O_R   0.182996 0.655734 0.376869 -0.311103
O138  O     O_R   0.167969 0.608980 0.320220 -0.414526
N22   N     N_R   0.776788 0.559966 0.412783 0.216198
O139  O     O_R   0.770879 0.524598 0.438355 -0.374883
O140  O     O_R   0.743366 0.583835 0.400692 -0.302624
N23   N     N_R   0.820953 0.612003 0.367575 0.208276
O141  O     O_R   0.813135 0.652054 0.384513 -0.306164
O142  O     O_R   0.828346 0.608800 0.325585 -0.416424
N24   N     N_R   0.221239 0.566888 0.409360 0.212956
O143  O     O_R   0.227969 0.533176 0.436577 -0.379179
O144  O     O_R   0.254105 0.591475 0.395962 -0.307300

loop_
_geom_bond_atom_site_label_1
_geom_bond_atom_site_label_2
_geom_bond_distance
_ccdc_geom_bond_type
C82   C138  1.493920 S    
N15   O125  1.301455 A    
C21   C45   1.481011 S    
C144  H39   1.112183 S    
O29   C21   1.299736 A    
C50   C66   1.456194 S    
C150  C190  1.342994 A    
C97   N1    1.439220 S    
C154  C162  1.405956 A    
C68   C71   1.232943 T    
C143  H40   1.111637 S    
C37   C53   1.232916 T    
N22   O139  1.302015 A    
O34   C10   1.300318 A    
O24   Zn3   1.879768 S    
O81   Zn21  2.017118 S    
C134  H18   1.111552 S    
C139  H29   1.111612 S    
C147  C155  1.394532 A    
O78   C216  1.223463 A    
O75   Zn21  2.012519 S    
O7    Zn7   2.014441 S    
N2    O99   1.300499 A    
C206  N18   1.468228 S    
N16   O128  1.302179 A    
O77   Zn23  2.017807 S    
O91   Zn17  2.014219 S    
C185  C193  1.493878 S    
C106  C114  1.400284 A    
C176  H56   1.083474 S    
C169  H49   1.083759 S    
O47   Zn16  1.875048 S    
O83   Zn21  2.014219 S    
C126  C134  1.493464 S    
N1    O98   1.301463 A    
C201  N12   1.469819 S    
C110  C118  1.400228 A    
C113  C217  1.428963 S    
O48   C24   1.300186 A    
C152  C192  1.342095 A    
C18   C42   1.481003 S    
O3    C3    1.279216 A    
C181  C214  1.419223 S    
C64   C80   1.456203 S    
C27   C155  1.422667 S    
C49   C65   1.456107 S    
O57   C25   1.280816 A    
C22   C46   1.480963 S    
C151  C159  1.380076 A    
O45   C21   1.300742 A    
C85   C141  1.493924 S    
C34   C50   1.232880 T    
O89   C221  1.222294 A    
C118  C126  1.389221 A    
C62   C78   1.456192 S    
C83   C139  1.493964 S    
O20   Zn1   1.879768 S    
C201  N9    1.467317 S    
C56   C72   1.456150 S    
C166  C174  1.399140 A    
C195  H64   1.112028 S    
C2    C90   1.421732 S    
C138  H27   1.112183 S    
C172  C180  1.407715 A    
O16   Zn16  2.025485 S    
C86   C94   1.390251 A    
Zn12  O60   2.015594 S    
O51   C27   1.276683 A    
C119  C223  1.428968 S    
O36   Zn9   1.875927 S    
C129  H9    1.112537 S    
C120  C224  1.425416 S    
O93   Zn19  2.017118 S    
C82   C122  1.369829 A    
C147  C203  1.505793 S    
O10   Zn10  2.025487 S    
O84   Zn22  2.012242 S    
O85   Zn23  2.017118 S    
C31   C159  1.408823 S    
N11   O118  1.301560 A    
C88   C144  1.493918 S    
O22   Zn4   1.875331 S    
C136  H23   1.112472 S    
O46   C22   1.300319 A    
C116  C124  1.390677 A    
O65   C209  1.220550 A    
C47   C63   1.232872 T    
O77   C215  1.220518 A    
C118  C222  1.425243 S    
C60   C76   1.456150 S    
O38   Zn12  1.880276 S    
C204  N15   1.467650 S    
C61   C77   1.456144 S    
N6    O107  1.300536 A    
C4    C92   1.415718 S    
O38   C14   1.300443 A    
C5    C93   1.421126 S    
C89   C97   1.412308 A    
C199  H72   1.111638 S    
O5    Zn5   2.014441 S    
C8    C96   1.421726 S    
O59   C27   1.280599 A    
C175  H55   1.083479 S    
C109  H5    1.083953 S    
C96   C104  1.415947 A    
C57   C73   1.456182 S    
C178  C209  1.414691 S    
C149  C189  1.373971 A    
C19   C43   1.481030 S    
O28   C20   1.300396 A    
Zn6   O54   2.025487 S    
O86   C220  1.223926 A    
O27   Zn6   1.880560 S    
O58   C26   1.274323 A    
O82   Zn22  2.017535 S    
C121  C129  1.494194 S    
O31   Zn8   1.880560 S    
Zn2   O50   2.025485 S    
O1    Zn1   2.014441 S    
N21   O138  1.301574 A    
O46   Zn16  1.880276 S    
C195  C203  1.527076 S    
O23   Zn4   1.880560 S    
C84   C124  1.370229 A    
O37   C13   1.300582 A    
C173  C181  1.401488 A    
C167  H47   1.083601 S    
C112  H8    1.083920 S    
N24   O143  1.302015 A    
O69   Zn19  2.017807 S    
O88   C219  1.224924 A    
O40   C16   1.300074 A    
C101  N5    1.439164 S    
C98   C106  1.397345 A    
C163  C171  1.389997 A    
O73   C213  1.223310 A    
C142  H35   1.112192 S    
C164  H44   1.083536 S    
O87   C220  1.226691 A    
C102  N6    1.439131 S    
C152  C208  1.495936 S    
O31   C23   1.300082 A    
C102  C110  1.397391 A    
C90   C98   1.415952 A    
C98   N2    1.439099 S    
C130  C138  1.518281 S    
O47   C23   1.299468 A    
N7    O110  1.301462 A    
O6    C6    1.278908 A    
N12   O120  1.301109 A    
C190  C198  1.491359 S    
C87   C127  1.369793 A    
C171  H51   1.083754 S    
C94   C102  1.416019 A    
C199  C207  1.547549 S    
N20   O135  1.302182 A    
C133  H17   1.111550 S    
N5    O105  1.300581 A    
C204  N14   1.468227 S    
N15   O126  1.301054 A    
O12   Zn12  2.025487 S    
C144  H38   1.111608 S    
C174  C182  1.407697 A    
O10   C2    1.275754 A    
C130  H11   1.112474 S    
C203  N16   1.469845 S    
N19   O134  1.301460 A    
C196  H63   1.112047 S    
C85   C125  1.369686 A    
O6    Zn6   2.015596 S    
C208  N23   1.467020 S    
C117  C221  1.424448 S    
C43   C59   1.232868 T    
C148  C204  1.498191 S    
C41   C57   1.232919 T    
C73   C78   1.232946 T    
C206  N19   1.467653 S    
O9    Zn9   2.024337 S    
O52   C28   1.274871 A    
C45   C61   1.232858 T    
N14   O123  1.301274 A    
C198  H66   1.111474 S    
C51   C67   1.456145 S    
O27   C19   1.300048 A    
C203  N13   1.467254 S    
C155  C163  1.401023 A    
O81   C217  1.223928 A    
C65   C70   1.232931 T    
C38   C54   1.232906 T    
O35   C11   1.299469 A    
C115  C219  1.424609 S    
C48   C64   1.232878 T    
C198  C206  1.546665 S    
C168  H48   1.083548 S    
C152  C160  1.380586 A    
C91   C99   1.415859 A    
O37   Zn11  1.879490 S    
O17   C9    1.299732 A    
C113  C121  1.390642 A    
Zn16  O64   2.015599 S    
C147  C187  1.373979 A    
O20   C12   1.300497 A    
C145  C153  1.394859 A    
O21   C13   1.299851 A    
O60   C28   1.276880 A    
O87   Zn23  2.014219 S    
C200  H71   1.111805 S    
C149  C157  1.394553 A    
C165  H45   1.083559 S    
O23   C15   1.300174 A    
O70   Zn20  2.017384 S    
O14   Zn14  2.025485 S    
C128  C136  1.493552 S    
O64   C32   1.274331 A    
C9    C33   1.480976 S    
C156  C164  1.405962 A    
O44   C20   1.300071 A    
C157  C165  1.401046 A    
C114  C218  1.425414 S    
C165  C173  1.390000 A    
N10   O115  1.302015 A    
C159  C167  1.404861 A    
C32   C160  1.411093 S    
C15   C39   1.480849 S    
N23   O141  1.300983 A    
C36   C52   1.232960 T    
C59   C75   1.456186 S    
C148  C156  1.382828 A    
C208  N22   1.467596 S    
O32   Zn7   1.879768 S    
O89   Zn17  2.017118 S    
O45   Zn15  1.879491 S    
C111  C119  1.403289 A    
O36   C12   1.299992 A    
O83   C218  1.225217 A    
C180  C188  1.380812 A    
C136  H22   1.111561 S    
O33   C9    1.300698 A    
C170  H50   1.083456 S    
C12   C36   1.481053 S    
O13   Zn13  2.024335 S    
Zn14  O62   2.015599 S    
O93   C223  1.223932 A    
C87   C95   1.388698 A    
C181  C189  1.389369 A    
C88   C96   1.390295 A    
O32   C24   1.300248 A    
C16   C40   1.481047 S    
C106  H2    1.083920 S    
C183  C191  1.382070 A    
N22   O140  1.301339 A    
C29   C157  1.422724 S    
C134  H19   1.112526 S    
C139  H32   1.112181 S    
C123  C131  1.493551 S    
O1    C1    1.279177 A    
O40   Zn11  1.875927 S    
C25   C153  1.423483 S    
C88   C128  1.369831 A    
N2    O100  1.301465 A    
C200  C208  1.547505 S    
C177  C185  1.389107 A    
O90   Zn18  2.017535 S    
O43   C19   1.299512 A    
O7    C7    1.279173 A    
N17   O130  1.301577 A    
O17   Zn1   1.876217 S    
C84   C92   1.388958 A    
C93   C101  1.415906 A    
C141  H36   1.112194 S    
N18   O131  1.301999 A    
C134  C142  1.518097 S    
O49   C25   1.276851 A    
C10   C34   1.480963 S    
O67   C210  1.225536 A    
O94   Zn20  2.017535 S    
C58   C74   1.456189 S    
O92   Zn18  2.012242 S    
O86   Zn24  2.017535 S    
O30   C22   1.299176 A    
C202  N11   1.467023 S    
O82   C218  1.222395 A    
Zn10  O58   2.015594 S    
O78   Zn24  2.017384 S    
C132  H14   1.112533 S    
C170  C178  1.407862 A    
C191  C199  1.492915 S    
C101  C109  1.397022 A    
N3    O102  1.301455 A    
C135  H21   1.112541 S    
C148  C188  1.342985 A    
O11   C3    1.276015 A    
C207  N21   1.467080 S    
O28   Zn5   1.879768 S    
O39   C15   1.299303 A    
O74   C214  1.220304 A    
N9    O114  1.301595 A    
C99   C107  1.397005 A    
N4    O103  1.300088 A    
O61   C29   1.280611 A    
C186  C194  1.492612 S    
C107  C115  1.400190 A    
C97   C105  1.395367 A    
C132  C140  1.518152 S    
C197  H68   1.112029 S    
O63   C31   1.274022 A    
C105  C113  1.403296 A    
N13   O122  1.301190 A    
N8    O111  1.300498 A    
C100  C108  1.395561 A    
C196  H62   1.111474 S    
C125  C133  1.493467 S    
Zn4   O52   2.025485 S    
C109  C117  1.400130 A    
O34   Zn10  1.880276 S    
C104  C112  1.397345 A    
C17   C41   1.481003 S    
C83   C91   1.390289 A    
O79   C216  1.220044 A    
C92   C100  1.412303 A    
N6    O108  1.301466 A    
C143  H37   1.112259 S    
C117  C125  1.389087 A    
C86   C142  1.493882 S    
Zn11  O59   2.014438 S    
C23   C47   1.481053 S    
O43   Zn14  1.875048 S    
C135  C143  1.518083 S    
C13   C37   1.481004 S    
N11   O117  1.300984 A    
C42   C58   1.232923 T    
C74   C77   1.232917 T    
C161  C169  1.390005 A    
N16   O127  1.301037 A    
C163  H43   1.083559 S    
C103  N7    1.439235 S    
C46   C62   1.232880 T    
C39   C55   1.232851 T    
C200  H70   1.111741 S    
C40   C56   1.232875 T    
O5    C5    1.279252 A    
C131  H16   1.112471 S    
O96   Zn20  2.012242 S    
O24   C16   1.300395 A    
N19   O133  1.301055 A    
C193  C201  1.527243 S    
Zn7   O55   2.024337 S    
N21   O137  1.300984 A    
C140  H31   1.111635 S    
O56   C32   1.276559 A    
O95   Zn19  2.014219 S    
C82   C90   1.390295 A    
C184  C215  1.414644 S    
O33   Zn9   1.879490 S    
O66   C210  1.220160 A    
C119  C127  1.390649 A    
C146  C202  1.495918 S    
O39   Zn12  1.875047 S    
N24   O144  1.301350 A    
O18   C10   1.299176 A    
O50   C26   1.276541 A    
O67   Zn17  2.012519 S    
C33   C49   1.232826 T    
O21   Zn3   1.876217 S    
N23   O142  1.301561 A    
C137  H28   1.111635 S    
O76   C213  1.219699 A    
O22   C14   1.299151 A    
O62   C30   1.276878 A    
C195  H61   1.112034 S    
C179  C212  1.419270 S    
C138  H26   1.111609 S    
C164  C172  1.399145 A    
C158  C166  1.405972 A    
O71   C212  1.225744 A    
C44   C60   1.232875 T    
C193  H60   1.112033 S    
C3    C91   1.421040 S    
C28   C156  1.412607 S    
C205  N17   1.467261 S    
C168  C176  1.399350 A    
C63   C79   1.456146 S    
O70   C212  1.220314 A    
O96   C223  1.226213 A    
C124  C132  1.494128 S    
O91   C222  1.225093 A    
C99   N3    1.439149 S    
C108  C116  1.403515 A    
C153  C161  1.401394 A    
C150  C158  1.382844 A    
Zn1   O49   2.024335 S    
C192  C200  1.492600 S    
O14   C6    1.275783 A    
C151  C207  1.495363 S    
C81   C121  1.369791 A    
C146  C154  1.380568 A    
C55   C71   1.456142 S    
C131  H13   1.111564 S    
Zn5   O53   2.024337 S    
N4    O104  1.301471 A    
O54   C30   1.274879 A    
C145  C185  1.373857 A    
C14   C38   1.481098 S    
C150  C206  1.498216 S    
C193  H57   1.112042 S    
O88   Zn24  2.012242 S    
O11   Zn11  2.024337 S    
O68   Zn18  2.014500 S    
C133  C141  1.518065 S    
O79   Zn23  2.012519 S    
O72   Zn20  2.014500 S    
C202  N10   1.467595 S    
C198  H67   1.112047 S    
O80   Zn24  2.014500 S    
Zn9   O57   2.014438 S    
C199  H69   1.111812 S    
O19   C11   1.300080 A    
C131  C139  1.518244 S    
O71   Zn19  2.012519 S    
C30   C158  1.412623 S    
C141  H33   1.111611 S    
C100  N4    1.439310 S    
O2    C2    1.278858 A    
O16   C8    1.275754 A    
C189  C197  1.493899 S    
C26   C154  1.411034 S    
O68   C209  1.222735 A    
O25   Zn5   1.876217 S    
C20   C44   1.481044 S    
C160  C168  1.405993 A    
N1    O97   1.300077 A    
O80   C215  1.222725 A    
O25   C17   1.299852 A    
C35   C51   1.232872 T    
C7    C95   1.414898 S    
O76   Zn22  2.014500 S    
O29   Zn7   1.876217 S    
C166  H46   1.083536 S    
C115  C123  1.389222 A    
O75   C214  1.225730 A    
O41   C17   1.300582 A    
C24   C48   1.480961 S    
O84   C217  1.226214 A    
O44   Zn13  1.875928 S    
C111  H7    1.083517 S    
C136  C144  1.518283 S    
C175  C183  1.408554 A    
C1    C89   1.414900 S    
C176  C184  1.407841 A    
C85   C93   1.390243 A    
C66   C69   1.232946 T    
C116  C220  1.429787 S    
N10   O116  1.301339 A    
C194  H58   1.111743 S    
O94   C224  1.222400 A    
O74   Zn22  2.017384 S    
C196  C204  1.546672 S    
O8    C8    1.278858 A    
C177  C210  1.418602 S    
N20   O136  1.301042 A    
C142  H34   1.111608 S    
O66   Zn18  2.017384 S    
C182  C190  1.380807 A    
C132  H15   1.111557 S    
C197  H65   1.112032 S    
O85   C219  1.222249 A    
Zn8   O56   2.025487 S    
O19   Zn2   1.880560 S    
C183  C216  1.415142 S    
O2    Zn2   2.015596 S    
C110  H6    1.083931 S    
C171  C179  1.401505 A    
C179  C187  1.389385 A    
C172  H52   1.083528 S    
O15   C7    1.272767 A    
N12   O119  1.302194 A    
C173  H53   1.083757 S    
C120  C128  1.389369 A    
C167  C175  1.398514 A    
C112  C120  1.400289 A    
O12   C4    1.272522 A    
C114  C122  1.389371 A    
C129  H12   1.111557 S    
O26   C18   1.299273 A    
C6    C94   1.421840 S    
C178  C186  1.381778 A    
O65   Zn17  2.017807 S    
C81   C137  1.493269 S    
C81   C89   1.388702 A    
C146  C186  1.342098 A    
N5    O106  1.301455 A    
O13   C5    1.276041 A    
C52   C68   1.456245 S    
O41   Zn13  1.879491 S    
C53   C69   1.456182 S    
C130  H10   1.111563 S    
O72   C211  1.219698 A    
N3    O101  1.300553 A    
C83   C123  1.369648 A    
O69   C211  1.223323 A    
O48   Zn15  1.875928 S    
C194  H59   1.111803 S    
C180  C211  1.414155 S    
C205  N20   1.469841 S    
C162  H42   1.083553 S    
C174  H54   1.083525 S    
N17   O129  1.301192 A    
C84   C140  1.493253 S    
O42   C18   1.300254 A    
C194  C202  1.547506 S    
C104  N8    1.439100 S    
C86   C126  1.369858 A    
C140  H30   1.112258 S    
O9    C1    1.272768 A    
O95   C224  1.225217 A    
N18   O132  1.301274 A    
Zn15  O63   2.014443 S    
C187  C195  1.493898 S    
C149  C205  1.505796 S    
Zn13  O61   2.014443 S    
O3    Zn3   2.014441 S    
C162  C170  1.399345 A    
O15   Zn15  2.024335 S    
O90   C222  1.222438 A    
C137  H25   1.112259 S    
C54   C70   1.456206 S    
C107  H3    1.083947 S    
C75   C80   1.232958 T    
C95   C103  1.412315 A    
C76   C79   1.232910 T    
C105  H1    1.083515 S    
C127  C135  1.494196 S    
C182  C213  1.414135 S    
C87   C143  1.493267 S    
C103  C111  1.395364 A    
O4    C4    1.278846 A    
Zn3   O51   2.024335 S    
C135  H24   1.111557 S    
C188  C196  1.491371 S    
C207  N24   1.467598 S    
C151  C191  1.342163 A    
C122  C130  1.493551 S    
N14   O124  1.301997 A    
O73   Zn21  2.017807 S    
C67   C72   1.232910 T    
C169  C177  1.401225 A    
O55   C31   1.276700 A    
O26   Zn6   1.875331 S    
N9    O113  1.301217 A    
C129  C137  1.518081 S    
O30   Zn8   1.875331 S    
O18   Zn2   1.875331 S    
N13   O121  1.301577 A    
N8    O112  1.301462 A    
O4    Zn4   2.015596 S    
C145  C201  1.505800 S    
O42   Zn14  1.880276 S    
C197  C205  1.527088 S    
N7    O109  1.300074 A    
C108  H4    1.083508 S    
C11   C35   1.481053 S    
O53   C29   1.276693 A    
O8    Zn8   2.015596 S    
O35   Zn10  1.875047 S    
C184  C192  1.381766 A    
O92   C221  1.224806 A    
C161  H41   1.083541 S    
C133  H20   1.112530 S    
