data_mof_unit_5169.cif
_audit_creation_date              2012-12-11T15:41:36-0500
_audit_creation_method            fapswitch 2.2
_symmetry_space_group_name_H-M    P1
_symmetry_Int_Tables_number       1
_space_group_crystal_system       triclinic
_cell_length_a                    8.40089
_cell_length_b                    18.945961
_cell_length_c                    19.018937
_cell_angle_alpha                 96.803116
_cell_angle_beta                  94.799477
_cell_angle_gamma                 92.975781
_cell_volume                      2989.40412906

loop_
_atom_site_label
_atom_site_type_symbol
_atom_type_description
_atom_site_fract_x
_atom_site_fract_y
_atom_site_fract_z
_atom_type_partial_charge
Ba1   Ba    Ba6+2 0.154050 0.534420 0.467300 1.648085
Ba2   Ba    Ba6+2 0.656120 0.465570 0.532650 1.616371
C1    C     C_3   0.331247 0.729009 0.209458 -0.383949
C2    C     C_3   0.617841 0.746843 0.427789 -0.051889
C3    C     C_2   0.661859 0.825566 0.448939 -0.162111
C4    C     C_3   0.882231 0.731724 0.295354 0.370707
C5    C     C_2   0.803450 0.847750 0.486990 -0.076116
C6    C     C_2   0.903351 0.791808 0.515526 -0.137805
C7    C     C_1   0.846364 0.723844 0.510262 0.078943
C8    C     C_R   0.954461 0.067947 0.506745 0.463907
C9    C     C_R   0.858198 0.925826 0.497384 0.434040
C10   C     C_R   0.910415 0.196417 0.476646 -0.016137
C11   C     C_R   0.964631 0.270200 0.483393 0.088399
C12   C     C_3   0.358324 0.697486 0.279102 0.380352
C13   C     C_R   0.214977 0.243391 0.545742 0.005200
C14   C     C_R   0.158919 0.171894 0.544297 -0.111650
C15   C     C_R   0.006729 0.146549 0.509797 -0.021868
C16   C     C_3   0.894255 0.797542 0.255421 -0.037194
C17   C     C_R   0.118109 0.290470 0.514332 -0.294622
C18   C     C_R   0.600690 0.538245 0.303485 -0.273414
C19   C     C_R   0.455344 0.500002 0.279859 0.083246
C20   C     C_R   0.400239 0.493776 0.207636 -0.135470
C21   C     C_R   0.491932 0.523193 0.158140 -0.015959
C22   C     C_R   0.640944 0.559277 0.182620 -0.134103
C23   C     C_3   0.551995 0.686728 0.684737 0.755203
C24   C     C_R   0.696481 0.565631 0.254753 -0.000972
C25   C     C_R   0.467938 0.562986 0.036077 -0.089583
C26   C     C_R   0.422466 0.550082 0.963085 -0.116644
C27   C     C_R   0.345389 0.484625 0.931769 0.061727
C28   C     C_3   0.741172 0.356841 0.308742 0.315119
C29   C     C_R   0.318326 0.430739 0.976473 0.077874
C30   C     C_R   0.364436 0.444792 0.049866 -0.076056
C31   C     C_R   0.439153 0.510610 0.080491 0.048081
C32   C     C_R   0.140190 0.446841 0.826773 -0.154367
C33   C     C_R   0.096201 0.436361 0.753425 0.040364
C34   C     C_3   0.628866 0.731630 0.752946 -0.324123
C35   C     C_R   0.350565 0.493402 0.732155 0.055717
C36   C     C_R   0.397613 0.500679 0.805328 -0.114809
C37   C     C_R   0.295379 0.475122 0.853444 -0.020573
C38   C     C_R   0.206202 0.455989 0.706352 -0.215001
C39   C     C_3   0.647346 0.308685 0.245610 -0.165441
C40   C     C_3   0.067648 0.656143 0.694588 0.301546
C41   C     C_3   0.155591 0.715561 0.750944 0.354328
C42   C     C_3   0.251508 0.308886 0.338605 0.719979
C43   C     C_3   0.362998 0.279752 0.394322 -0.299156
C44   C     C_3   0.748043 0.281864 0.185487 -0.437474
C45   C     C_3   0.903543 0.268343 0.693143 0.363023
C46   C     C_3   0.977845 0.598680 0.727692 -0.320507
C47   C     C_3   0.170265 0.674598 0.866284 0.288233
C48   C     C_3   0.237658 0.725716 0.931596 -0.181856
C49   C     C_3   0.160870 0.709018 0.998218 -0.509516
C50   C     C_3   0.056109 0.778367 0.776507 -0.418658
C51   C     C_3   0.097112 0.198640 0.306920 0.259389
C52   C     C_3   0.181360 0.129089 0.294150 -0.198784
C53   C     C_3   0.083434 0.066236 0.315422 -0.479834
C54   C     C_3   0.550699 0.786941 0.620643 0.225756
C55   C     C_3   0.491964 0.856140 0.656982 -0.191894
C56   C     C_3   0.875315 0.195371 0.718953 0.701922
C57   C     C_3   0.563677 0.921131 0.628047 -0.458635
C58   C     C_3   0.821136 0.779912 0.178179 -0.389818
C59   C     C_3   0.897918 0.073503 0.686261 0.304564
C60   C     C_3   0.058951 0.043366 0.706266 -0.155746
C61   C     C_3   0.039287 0.964496 0.715354 -0.525271
C62   C     C_3   0.879939 0.206198 0.843552 0.218221
C63   C     C_3   0.975628 0.185310 0.908972 -0.173098
C64   C     C_3   0.890463 0.203120 0.976088 -0.502460
C65   C     C_3   0.376763 0.223149 0.809397 -0.426058
C66   C     C_3   0.763526 0.169178 0.427325 -0.336079
C67   C     C_3   0.434605 0.307423 0.719697 0.371630
C68   C     C_3   0.247573 0.356703 0.949707 -0.437899
C69   C     C_3   0.162352 0.438759 0.628804 -0.278833
C70   C     C_3   0.812267 0.859758 0.293110 -0.456710
C71   C     C_3   0.845487 0.413482 0.281883 -0.270856
C72   C     C_3   0.478943 0.287256 0.793883 -0.211337
C73   C     C_2   0.710406 0.699549 0.472771 -0.227775
H1    H     H_    0.289120 0.645292 0.274370 0.091461
H2    H     H_    0.396237 0.323103 0.438164 0.110596
H3    H     H_    0.121267 0.382149 0.620464 0.050282
H4    H     H_    0.872860 0.875429 0.347195 0.131222
H5    H     H_    0.820918 0.906775 0.263526 0.136125
H6    H     H_    0.683896 0.844858 0.297011 0.128789
H7    H     H_    0.881499 0.455450 0.326738 0.136312
H8    H     H_    0.953706 0.390346 0.261253 0.146990
H9    H     H_    0.779797 0.435879 0.237683 0.032836
H10   H     H_    0.487762 0.688522 0.286912 -0.084662
H11   H     H_    0.376187 0.693292 0.165857 0.068502
H12   H     H_    0.645855 0.660272 0.655256 -0.014390
H13   H     H_    0.683471 0.696462 0.789663 0.063090
H14   H     H_    0.722612 0.770693 0.741867 0.048762
H15   H     H_    0.536419 0.760740 0.780842 0.128926
H16   H     H_    0.396628 0.782030 0.213710 0.105247
H17   H     H_    0.849193 0.265764 0.637418 0.030844
H18   H     H_    0.034660 0.280640 0.694566 -0.059737
H19   H     H_    0.589933 0.261868 0.265662 0.121220
H20   H     H_    0.743730 0.186209 0.722196 -0.016326
H21   H     H_    0.304820 0.316183 0.713681 -0.051377
H22   H     H_    0.504574 0.357882 0.715457 0.076698
H23   H     H_    0.464923 0.333516 0.833956 0.075271
H24   H     H_    0.605702 0.274740 0.799049 0.133240
H25   H     H_    0.932244 0.746108 0.351545 0.042437
H26   H     H_    0.586433 0.863460 0.426224 0.103022
H27   H     H_    0.019108 0.807998 0.544282 0.105133
H28   H     H_    0.235638 0.135819 0.568861 0.094695
H29   H     H_    0.676141 0.642987 0.464589 0.073681
H30   H     H_    0.551196 0.338805 0.221707 0.106543
H31   H     H_    0.167134 0.343276 0.509684 0.041195
H32   H     H_    0.511576 0.528421 0.824742 0.080580
H33   H     H_    0.446291 0.592345 0.931120 0.074591
H34   H     H_    0.524352 0.614516 0.057884 0.064323
H35   H     H_    0.753961 0.714082 0.294392 -0.069519
H36   H     H_    0.287759 0.463954 0.189916 0.092491
H37   H     H_    0.346268 0.402757 0.082913 0.066877
H38   H     H_    0.053355 0.433449 0.862823 0.080589
H39   H     H_    0.718351 0.578468 0.145310 0.070724
H40   H     H_    0.646449 0.540699 0.358652 0.068160
H41   H     H_    0.158401 0.629734 0.663347 0.054605
H42   H     H_    0.022802 0.814571 0.254910 0.127178
H43   H     H_    0.653250 0.382877 0.341860 0.026472
H44   H     H_    0.774448 0.325055 0.152676 0.122886
H45   H     H_    0.862459 0.263016 0.206626 0.164296
H46   H     H_    0.680461 0.237351 0.150369 0.123050
H47   H     H_    0.927733 0.556882 0.684839 0.134325
H48   H     H_    0.059509 0.573831 0.764431 0.048602
H49   H     H_    0.878690 0.620601 0.756505 0.094059
H50   H     H_    0.193645 0.619614 0.876738 0.063041
H51   H     H_    0.038225 0.675619 0.859047 0.011780
H52   H     H_    0.242900 0.741974 0.720449 0.114517
H53   H     H_    0.369125 0.721393 0.940142 0.118918
H54   H     H_    0.215460 0.781358 0.922777 0.111520
H55   H     H_    0.029876 0.715182 0.991657 0.133859
H56   H     H_    0.213710 0.746374 0.044701 0.141562
H57   H     H_    0.182415 0.653765 0.008839 0.144388
H58   H     H_    0.007394 0.804196 0.730536 0.116250
H59   H     H_    0.955438 0.761756 0.805794 0.102448
H60   H     H_    0.134102 0.819420 0.811646 0.101495
H61   H     H_    0.980116 0.191702 0.274818 0.077351
H62   H     H_    0.069636 0.209133 0.362826 -0.001979
H63   H     H_    0.152075 0.335841 0.363343 -0.034975
H64   H     H_    0.200126 0.118194 0.236806 0.126438
H65   H     H_    0.300485 0.134221 0.325008 0.115538
H66   H     H_    0.071050 0.074198 0.373298 0.143722
H67   H     H_    0.145253 0.016482 0.302966 0.148747
H68   H     H_    0.962777 0.060269 0.285866 0.126456
H69   H     H_    0.525888 0.786655 0.563014 0.105195
H70   H     H_    0.682803 0.785028 0.630018 -0.013803
H71   H     H_    0.359296 0.855159 0.647949 0.135251
H72   H     H_    0.525027 0.861186 0.715127 0.095255
H73   H     H_    0.696233 0.921934 0.634475 0.119403
H74   H     H_    0.202005 0.734787 0.196148 0.143420
H75   H     H_    0.524866 0.970426 0.657641 0.134148
H76   H     H_    0.522339 0.920033 0.570905 0.165258
H77   H     H_    0.692769 0.761758 0.176381 0.114217
H78   H     H_    0.831264 0.827645 0.149711 0.112509
H79   H     H_    0.885644 0.737244 0.149568 0.133413
H80   H     H_    0.836959 0.039677 0.639174 0.080720
H81   H     H_    0.818552 0.070214 0.730162 0.012280
H82   H     H_    0.140633 0.049972 0.664168 0.140448
H83   H     H_    0.115010 0.073305 0.756788 0.139365
H84   H     H_    0.956639 0.956251 0.756699 0.132957
H85   H     H_    0.471392 0.261220 0.370502 0.101899
H86   H     H_    0.157452 0.945077 0.731940 0.139399
H87   H     H_    0.991627 0.932867 0.664340 0.145325
H88   H     H_    0.763574 0.173995 0.836199 0.022018
H89   H     H_    0.859480 0.263867 0.853209 0.080481
H90   H     H_    0.992397 0.127176 0.901064 0.116515
H91   H     H_    0.095632 0.213982 0.915922 0.123262
H92   H     H_    0.875203 0.261265 0.985698 0.134019
H93   H     H_    0.962817 0.187255 0.022559 0.145201
H94   H     H_    0.771124 0.173904 0.970865 0.133775
H95   H     H_    0.390793 0.176012 0.770249 0.158571
H96   H     H_    0.308794 0.234144 0.416680 0.021419
H97   H     H_    0.413769 0.210138 0.863553 0.108288
H98   H     H_    0.249859 0.236043 0.807059 0.181803
H99   H     H_    0.665417 0.151852 0.458006 0.171047
H100  H     H_    0.717104 0.208481 0.393954 0.120952
H101  H     H_    0.793546 0.123807 0.389297 0.088356
H102  H     H_    0.327034 0.316803 0.969338 0.117007
H103  H     H_    0.128631 0.349042 0.970055 0.118485
H104  H     H_    0.233538 0.345091 0.891291 0.124388
H105  H     H_    0.081649 0.478187 0.609304 0.129903
H106  H     H_    0.253783 0.436981 0.594171 0.160883
N1    N     N_R   0.797787 0.044838 0.492866 -0.250959
N2    N     N_R   0.751038 0.975905 0.487729 -0.258336
N3    N     N_R   0.015191 0.948546 0.513006 -0.246047
N4    N     N_R   0.062073 0.017839 0.517511 -0.259151
O1    O     O_2   0.126770 0.670950 0.539180 -0.431568
O2    O     O_2   0.767294 0.453645 0.750217 -0.493155
O3    O     O_3   0.830719 0.319951 0.736721 -0.654969
O4    O     O_3   0.874330 0.583580 0.538020 -0.490033
O5    O     O_3   0.434510 0.464950 0.415850 -0.494483
O6    O     O_2   0.630930 0.532620 0.670490 -0.475494
O7    O     O_3   0.442495 0.638717 0.708686 -0.629806
O8    O     O_2   0.546884 0.245317 0.538006 -0.476742
O9    O     O_3   0.473559 0.253284 0.668031 -0.600664
O10   O     O_3   0.360240 0.629040 0.412110 -0.469505
O11   O     O_2   0.299384 0.756859 0.473589 -0.462815
O12   O     O_3   0.347064 0.355657 0.305862 -0.660807
O13   O     O_3   0.955599 0.687643 0.651312 -0.684546
O14   O     O_3   0.307674 0.744015 0.335200 -0.587147
O15   O     O_2   0.179370 0.467330 0.329490 -0.475040
O16   O     O_3   0.943350 0.594040 0.376060 -0.479235
O17   O     O_2   0.021066 0.543997 0.248734 -0.485778
O18   O     O_3   0.250977 0.688580 0.806251 -0.650602
O19   O     O_3   0.189956 0.254438 0.283575 -0.650336
O20   O     O_3   0.461990 0.727878 0.640020 -0.670280
O21   O     O_3   0.924081 0.143032 0.667234 -0.693917
O22   O     O_3   0.969462 0.193327 0.784235 -0.687222
O23   O     O_3   0.972020 0.678599 0.262835 -0.603552
O24   O     O_2   0.683530 0.329010 0.460790 -0.471025
O25   O     O_3   0.935970 0.416420 0.461920 -0.492924
O26   O     O_3   0.450050 0.370950 0.587830 -0.504305
O27   O     O_3   0.840779 0.315364 0.347387 -0.654293
O28   O     O_3   0.375780 0.535040 0.584090 -0.477955
O29   O     O_3   0.866950 0.405950 0.623880 -0.480190
P1    P     P_3+3 0.954930 0.659850 0.559700 0.981209
P2    P     P_3+3 0.352180 0.446150 0.339620 0.950393
P3    P     P_3+3 0.906571 0.595575 0.284630 0.938442
P4    P     P_3+3 0.855360 0.340140 0.440240 0.966970
P5    P     P_3+3 0.889559 0.404580 0.716858 0.931652
P6    P     P_3+3 0.396672 0.720896 0.415164 0.982997
P7    P     P_3+3 0.451224 0.549619 0.674067 0.959522
P8    P     P_3+3 0.419405 0.277870 0.583867 0.942856

loop_
_geom_bond_atom_site_label_1
_geom_bond_atom_site_label_2
_ccdc_geom_bond_type
C34   H14   S    
C61   H87   S    
C47   O18   S    
C22   H39   S    
C53   H66   S    
C38   C69   S    
C19   P2    S    
C50   H59   S    
C45   H17   S    
C69   H106  S    
C64   H94   S    
Ba2   O4    S    
C61   H84   S    
C62   H89   S    
C67   H21   S    
Ba1   O16   S    
C46   H48   S    
N3    N4    A    
C66   H101  S    
C5    C6    S    
C72   H23   S    
O2    P5    D    
C51   C52   S    
C34   H13   S    
C32   H38   S    
C13   C17   A    
C47   H51   S    
C10   C66   S    
Ba2   O26   S    
C35   C36   A    
C39   H30   S    
C64   H92   S    
C51   H62   S    
O24   P4    D    
O17   P3    D    
C26   C27   A    
Ba1   O10   S    
C22   C24   A    
O7    P7    S    
Ba1   Ba2   S    
C70   H4    S    
O29   P5    S    
C46   H47   S    
C36   C37   A    
C68   H104  S    
C55   C57   S    
C56   O21   S    
C8    C15   S    
C13   C14   A    
C63   H90   S    
C23   H12   S    
C8    N4    A    
C54   C55   S    
C1    H16   S    
C32   C33   A    
C58   H77   S    
C54   H70   S    
C58   H78   S    
C65   H98   S    
C2    C73   S    
O4    P1    S    
N1    N2    A    
O28   P7    S    
C66   H100  S    
C29   C68   S    
C52   H65   S    
C54   O20   S    
C52   H64   S    
C14   C15   A    
C2    P6    S    
C10   C15   A    
Ba1   P1    S    
C42   H63   S    
C39   C44   S    
C60   H83   S    
C28   C39   S    
C11   P4    S    
O6    P7    D    
C71   H9    S    
C4    O23   S    
C70   H6    S    
C59   O21   S    
O9    P8    S    
Ba1   O5    S    
C6    H27   S    
C42   O12   S    
C53   H67   S    
C55   H71   S    
C16   C58   S    
C1    H11   S    
C50   H58   S    
C4    H35   S    
C9    N3    A    
C43   H85   S    
C62   H88   S    
C23   O20   S    
O13   P1    S    
C59   H80   S    
O10   P6    S    
O11   P6    D    
C49   H55   S    
C65   H95   S    
C16   C70   S    
C4    C16   S    
C62   O22   S    
C3    H26   S    
C1    H74   S    
C51   O19   S    
Ba2   O25   S    
C11   C17   A    
C44   H45   S    
C32   C37   A    
C40   O13   S    
C53   H68   S    
Ba2   O6    S    
C41   H52   S    
C3    C5    D    
C28   C71   S    
C49   H56   S    
C6    C7    D    
C28   H43   S    
C21   C31   S    
Ba1   O1    S    
O26   P8    S    
C63   H91   S    
C25   C31   A    
C30   C31   A    
C4    H25   S    
C69   H105  S    
C5    C9    S    
C56   H20   S    
C60   C61   S    
C48   H54   S    
C36   H32   S    
C14   H28   S    
C39   H19   S    
C24   P3    S    
C21   C22   A    
O1    P1    D    
C27   C37   S    
Ba1   P2    S    
C48   C49   S    
C45   H18   S    
C60   H82   S    
C9    N2    A    
C67   C72   S    
C44   H46   S    
C65   C72   S    
C40   C46   S    
C10   C11   A    
O12   P2    S    
C16   H42   S    
C1    C12   S    
C40   H41   S    
O8    P8    D    
C20   H36   S    
C55   H72   S    
Ba1   O28   S    
C73   H29   S    
C8    N1    A    
Ba1   O15   S    
C48   H53   S    
C40   C41   S    
C59   H81   S    
C71   H7    S    
C42   C43   S    
Ba2   P4    S    
O3    P5    S    
C34   H15   S    
O23   P3    S    
C61   H86   S    
C52   C53   S    
Ba2   O24   S    
C66   H99   S    
C30   H37   S    
Ba1   O25   S    
C29   C30   A    
C68   H103  S    
O14   P6    S    
Ba2   O5    S    
C12   H10   S    
C57   H75   S    
C2    C3    S    
C23   O7    S    
C33   P5    S    
C46   H49   S    
C18   H40   S    
C49   H57   S    
C68   H102  S    
Ba2   O29   S    
C72   H24   S    
C57   H76   S    
C65   H97   S    
C35   C38   A    
C47   H50   S    
C12   O14   S    
O25   P4    S    
C64   H93   S    
C62   C63   S    
C13   P8    S    
C33   C38   A    
O16   P3    S    
C27   C29   A    
C43   H96   S    
C45   C56   S    
C41   O18   S    
C7    P1    S    
C18   C24   A    
C56   O22   S    
C26   H33   S    
C67   O9    S    
O15   P2    D    
C44   H44   S    
C57   H73   S    
C63   C64   S    
Ba1   O4    S    
C59   C60   S    
C41   C50   S    
C28   O27   S    
C58   H79   S    
C23   C34   S    
C35   P7    S    
C54   H69   S    
C17   H31   S    
C51   H61   S    
C18   C19   A    
C25   H34   S    
Ba2   O28   S    
C70   H5    S    
C47   C48   S    
C25   C26   A    
C42   O19   S    
C50   H60   S    
C20   C21   A    
C43   H2    S    
C7    C73   D    
C45   O3    S    
C19   C20   A    
O5    P2    S    
C71   H8    S    
C69   H3    S    
C12   H1    S    
O27   P4    S    
C67   H22   S    
