data_mof_unit_53938.cif
_audit_creation_date              2012-12-10T19:42:55-0500
_audit_creation_method            fapswitch 2.2
_symmetry_space_group_name_H-M    P1
_symmetry_Int_Tables_number       1
_space_group_crystal_system       triclinic
_cell_length_a                    10.900904
_cell_length_b                    12.91994
_cell_length_c                    11.826032
_cell_angle_alpha                 99.015376
_cell_angle_beta                  94.658406
_cell_angle_gamma                 93.59487
_cell_volume                      1634.73668971

loop_
_atom_site_label
_atom_site_type_symbol
_atom_type_description
_atom_site_fract_x
_atom_site_fract_y
_atom_site_fract_z
_atom_type_partial_charge
C1    C     C_R   0.495393 0.299965 0.479552 0.788416
C2    C     C_R   0.505269 0.699979 0.520365 0.794389
C3    C     C_R   0.872006 0.498853 0.503951 -0.051290
C4    C     C_R   0.128303 0.501837 0.496667 -0.041311
C5    C     C_R   0.949183 0.493325 0.605243 0.061089
C6    C     C_R   0.051396 0.508920 0.395893 0.047386
C7    C     C_R   0.524459 0.812359 0.527516 -0.110536
C8    C     C_R   0.479778 0.187199 0.471765 -0.104805
C9    C     C_R   0.343442 0.043013 0.504141 -0.078017
C10   C     C_R   0.659966 0.953920 0.487611 -0.114058
C11   C     C_R   0.361636 0.144685 0.482771 -0.143136
C12   C     C_R   0.639853 0.850724 0.503024 -0.159794
C13   C     C_R   0.582468 0.126982 0.476192 -0.046938
C14   C     C_R   0.425955 0.877025 0.538195 -0.062438
C15   C     C_R   0.563655 0.021348 0.493994 0.132875
C16   C     C_R   0.443705 0.980903 0.514697 0.136733
C17   C     C_R   0.413755 0.379167 0.021095 -0.381252
C18   C     C_R   0.585188 0.620811 0.979060 -0.403663
C19   C     C_R   0.415774 0.392882 0.141162 0.160295
C20   C     C_R   0.583799 0.607211 0.859072 0.181932
C21   C     C_R   0.535433 0.555361 0.156935 0.120844
C22   C     C_R   0.464502 0.444129 0.842469 0.099444
C23   C     C_R   0.262431 0.500938 0.498901 0.790838
C24   C     C_R   0.737673 0.499275 0.501233 0.816318
C25   C     C_R   0.530472 0.544292 0.034299 -0.011632
C26   C     C_R   0.470035 0.454632 0.965330 0.015820
C27   C     C_R   0.208807 0.628849 0.168517 0.075994
C28   C     C_R   0.795487 0.384295 0.841652 0.042429
C29   C     C_R   0.163873 0.613880 0.272731 -0.094790
C30   C     C_R   0.837439 0.395283 0.735171 -0.089574
C31   C     C_R   0.097631 0.519660 0.282912 -0.015196
C32   C     C_R   0.904049 0.487631 0.719830 -0.022231
C33   C     C_R   0.070144 0.440050 0.184914 0.014430
C34   C     C_R   0.934533 0.569761 0.814937 0.008130
C35   C     C_R   0.116950 0.455068 0.079318 -0.043330
C36   C     C_R   0.890176 0.559133 0.922687 -0.046900
C37   C     C_R   0.185054 0.549476 0.072888 -0.303177
C38   C     C_R   0.822113 0.466203 0.934381 -0.286383
C39   C     C_R   0.924715 0.506717 0.401373 -0.193002
C40   C     C_R   0.075711 0.493314 0.599136 -0.213720
Cu1   Cu    Cu3+1 0.509250 0.507730 0.615930 0.992060
Cu2   Cu    Cu3+1 0.490750 0.492270 0.384070 1.003265
H1    H     H_    0.222307 0.560341 0.992942 0.158413
H2    H     H_    0.787108 0.458570 0.016146 0.167782
H3    H     H_    0.364196 0.309204 0.972010 0.198090
H4    H     H_    0.632364 0.691689 0.029027 0.153445
H5    H     H_    0.181460 0.675134 0.347182 0.151552
H6    H     H_    0.817183 0.332450 0.662906 0.195159
H7    H     H_    0.867170 0.511881 0.323680 0.188440
H8    H     H_    0.133410 0.486787 0.676465 0.132296
H9    H     H_    0.714165 0.799034 0.492002 0.188862
H10   H     H_    0.283407 0.192418 0.479858 0.170323
H11   H     H_    0.249644 0.013902 0.510589 0.199161
H12   H     H_    0.749946 0.977309 0.464174 0.205520
N1    N     N_R   0.523180 0.519350 0.790130 -0.225862
N2    N     N_R   0.476820 0.480650 0.209870 -0.209175
O1    O     O_R   0.506570 0.354460 0.582000 -0.565340
O2    O     O_R   0.493430 0.645540 0.418000 -0.591700
O3    O     O_R   0.490940 0.341410 0.386200 -0.583349
O4    O     O_R   0.509060 0.658590 0.613800 -0.566424
O5    O     O_R   0.327460 0.506540 0.597900 -0.630720
O6    O     O_R   0.672540 0.493460 0.402100 -0.565235
O7    O     O_R   0.311830 0.493480 0.402100 -0.528489
O8    O     O_R   0.688170 0.506520 0.597900 -0.536526
C41   C     C_2   0.390100 0.354362 0.771137 0.411272
H13   H     H_    0.311811 0.367344 0.714254 0.074510
O9    O     O_2   0.417060 0.264463 0.774222 -0.517522
C42   C     C_2   0.605490 0.647934 0.226493 0.413887
H14   H     H_    0.564160 0.722641 0.239339 0.079832
O10   O     O_2   0.711870 0.642894 0.264536 -0.577897
C43   C     C_2   0.648514 0.694283 0.814836 0.467059
H15   H     H_    0.640000 0.774708 0.855053 0.059316
O11   O     O_2   0.718475 0.678604 0.739995 -0.499431
C44   C     C_2   0.350818 0.306090 0.185659 0.457769
H16   H     H_    0.359332 0.225562 0.145787 0.060732
O12   O     O_2   0.280693 0.322084 0.260289 -0.503380
C45   C     C_2   0.282671 0.726398 0.158455 0.384427
H17   H     H_    0.317715 0.736020 0.077080 0.089994
O13   O     O_2   0.305927 0.796856 0.240658 -0.564828
C46   C     C_2   0.721839 0.288296 0.857062 0.503341
H18   H     H_    0.686968 0.282577 0.939449 0.078593
O14   O     O_2   0.698670 0.214703 0.778197 -0.483406
C47   C     C_2   0.992603 0.343171 0.193741 0.915414
O15   O     O_2   0.014788 0.295078 0.273341 -0.544254
O16   O     O_R   0.892324 0.308422 0.112525 -0.778957
H19   H     H_    0.845839 0.242579 0.128466 0.338241
C48   C     C_2   0.012796 0.664684 0.801126 0.927527
O17   O     O_2   0.989235 0.710445 0.719871 -0.525015
O18   O     O_R   0.115084 0.700307 0.879774 -0.776855
H20   H     H_    0.161901 0.764632 0.860545 0.357349
C49   C     C_2   0.103297 0.373702 0.974379 0.397967
H21   H     H_    0.116288 0.396646 0.891394 0.047401
O19   O     O_2   0.083500 0.280528 0.979036 -0.489462
C50   C     C_2   0.906661 0.643733 0.024579 0.398427
H22   H     H_    0.897557 0.623953 0.109555 0.103603
O20   O     O_2   0.924813 0.736055 0.015280 -0.495169
C51   C     C_2   0.307074 0.833542 0.572510 0.382727
H23   H     H_    0.276119 0.751384 0.544567 0.046909
O21   O     O_2   0.246434 0.887193 0.638038 -0.502254
C52   C     C_2   0.706591 0.177950 0.464760 0.337944
H24   H     H_    0.714914 0.237926 0.410411 0.062254
O22   O     O_2   0.799188 0.158284 0.520152 -0.509797

loop_
_geom_bond_atom_site_label_1
_geom_bond_atom_site_label_2
_ccdc_geom_bond_type
C19   N2    A    
C48   O17   D    
C8    C13   A    
C27   C29   A    
C1    C8    S    
Cu1   Cu2   S    
C2    C7    S    
Cu1   O5    S    
Cu2   O2    S    
C51   H23   S    
O16   H19   S    
C44   O12   D    
C29   H5    S    
C17   C26   A    
C30   H6    S    
C35   C37   A    
C9    C16   A    
C17   H3    S    
C10   C15   A    
C1    O3    A    
C33   C35   A    
C2    O4    A    
C15   C16   A    
Cu1   N1    S    
C11   H10   S    
Cu2   N2    S    
C7    C14   A    
C4    C40   A    
C42   H14   S    
C41   O9    D    
C31   C33   A    
C20   C43   S    
Cu2   O6    S    
C34   C36   A    
C5    C32   S    
C23   O7    A    
C6    C31   S    
C3    C39   A    
C24   O8    A    
C3    C24   S    
C18   C25   A    
C20   N1    A    
C10   H12   S    
C18   H4    S    
C51   O21   D    
C45   O13   D    
C7    C12   A    
C44   H16   S    
C4    C6    A    
C49   H21   S    
C43   O11   D    
C4    C23   S    
C3    C5    A    
C25   C26   A    
C45   H17   S    
C32   C34   A    
C37   H1    S    
C22   C41   S    
C38   H2    S    
C1    O1    A    
C49   O19   D    
C9    C11   A    
C47   O15   D    
C28   C38   A    
C52   O22   D    
C50   O20   D    
C33   C47   S    
C10   C12   A    
C46   O14   D    
C47   O16   S    
C13   C15   A    
C21   C42   S    
C14   C16   A    
C9    H11   S    
C12   H9    S    
C14   C51   S    
C21   C25   A    
C24   O6    A    
C39   H7    S    
C19   C44   S    
Cu1   O4    S    
C46   H18   S    
C27   C45   S    
Cu2   O3    S    
C21   N2    A    
C2    O2    A    
C22   N1    A    
C13   C52   S    
C28   C30   A    
Cu1   O1    S    
C43   H15   S    
C29   C31   A    
C30   C32   A    
C27   C37   A    
C8    C11   A    
C40   H8    S    
C36   C38   A    
C52   H24   S    
C17   C19   A    
C18   C20   A    
C34   C48   S    
C50   H22   S    
C28   C46   S    
C36   C50   S    
C23   O5    A    
C42   O10   D    
C41   H13   S    
C22   C26   A    
C5    C40   A    
C48   O18   S    
C6    C39   A    
Cu1   O8    S    
O18   H20   S    
Cu2   O7    S    
C35   C49   S    
