data_mof_unit_25052.cif
_audit_creation_date              2012-10-26T17:12:48-0400
_audit_creation_method            fapswitch 2.2
_symmetry_space_group_name_H-M    P1
_symmetry_Int_Tables_number       1
_space_group_crystal_system       triclinic
_cell_length_a                    27.995959
_cell_length_b                    18.727243
_cell_length_c                    16.848283
_cell_angle_alpha                 89.991748
_cell_angle_beta                  62.685946
_cell_angle_gamma                 90.063184
_cell_volume                      7848.45540052

loop_
_atom_site_label
_atom_site_type_symbol
_atom_type_description
_atom_site_fract_x
_atom_site_fract_y
_atom_site_fract_z
_atom_type_partial_charge
C1    C     C_R   0.292697 0.723971 0.330648 0.564621
C2    C     C_R   0.586481 0.000270 0.548786 0.023908
C3    C     C_R   0.700226 0.697282 0.899025 0.035412
C4    C     C_R   0.151488 0.883252 0.012070 -0.114852
C5    C     C_R   0.839686 0.096572 0.003398 -0.113638
C6    C     C_R   0.890941 0.812803 0.950967 -0.121631
C7    C     C_R   0.151273 0.117314 0.012110 -0.115383
C8    C     C_R   0.613770 0.322665 0.048249 -0.115202
C9    C     C_R   0.383955 0.676211 0.954581 -0.112263
C10   C     C_R   0.383301 0.324871 0.954797 -0.111945
C11   C     C_R   0.623388 0.670628 0.040384 -0.112525
C12   C     C_R   0.174514 0.857612 0.063630 -0.145107
C13   C     C_R   0.903914 0.499193 0.483533 0.025410
C14   C     C_R   0.810524 0.111607 0.957284 -0.138062
C15   C     C_R   0.865302 0.789134 0.902011 -0.141809
C16   C     C_R   0.174034 0.143272 0.063901 -0.145977
C17   C     C_R   0.643384 0.307702 0.093320 -0.142892
C18   C     C_R   0.354647 0.688984 0.908031 -0.141937
C19   C     C_R   0.353720 0.312860 0.908544 -0.141883
C20   C     C_R   0.654191 0.681836 0.084668 -0.140343
C21   C     C_R   0.245974 0.702156 0.790516 -0.118065
C22   C     C_R   0.753093 0.292144 0.205926 -0.113086
C23   C     C_R   0.757139 0.694459 0.209797 -0.113835
C24   C     C_R   0.098202 0.500249 0.511000 0.024307
C25   C     C_R   0.245137 0.299281 0.790920 -0.111312
C26   C     C_R   0.735697 0.185782 0.796124 -0.116289
C27   C     C_R   0.229102 0.745124 0.228396 -0.113285
C28   C     C_R   0.228777 0.254869 0.228762 -0.116204
C29   C     C_R   0.778592 0.721486 0.759500 -0.117784
C30   C     C_R   0.278545 0.689367 0.831260 -0.147574
C31   C     C_R   0.721185 0.304328 0.163909 -0.140136
C32   C     C_R   0.726925 0.679798 0.165649 -0.142856
C33   C     C_R   0.277468 0.312633 0.832017 -0.141934
C34   C     C_R   0.760650 0.161358 0.846027 -0.137621
C35   C     C_R   0.576241 0.872901 0.578092 -0.116762
C36   C     C_R   0.205949 0.774436 0.178892 -0.145309
C37   C     C_R   0.205353 0.226233 0.179336 -0.145918
C38   C     C_R   0.808644 0.736865 0.803542 -0.139845
C39   C     C_R   0.928236 0.899908 0.064644 0.549165
C40   C     C_R   0.076483 0.092719 0.931176 0.555953
C41   C     C_R   0.076518 0.907328 0.931166 0.548353
C42   C     C_R   0.922734 0.090908 0.069624 0.561799
C43   C     C_R   0.427816 0.400815 0.064967 0.553053
C44   C     C_R   0.572779 0.598760 0.934690 0.551670
C45   C     C_R   0.572198 0.400615 0.935041 0.552892
C46   C     C_R   0.415943 0.124521 0.456757 -0.113344
C47   C     C_R   0.427840 0.599195 0.064963 0.553303
C48   C     C_R   0.029886 0.619834 0.566612 0.013932
C49   C     C_R   0.972205 0.379395 0.427897 0.014465
C50   C     C_R   0.933356 0.618930 0.553245 0.013785
C51   C     C_R   0.069945 0.380992 0.438629 0.013695
C52   C     C_R   0.542038 0.129050 0.525942 0.009998
C53   C     C_R   0.429616 0.875741 0.562371 0.011086
C54   C     C_R   0.458056 0.126370 0.479217 0.012904
C55   C     C_R   0.526683 0.873689 0.575540 0.012994
C56   C     C_R   0.994980 0.678463 0.596572 -0.127920
C57   C     C_R   0.382127 0.877144 0.554035 -0.114387
C58   C     C_R   0.007684 0.321290 0.396417 -0.124607
C59   C     C_R   0.947143 0.678056 0.589798 -0.128460
C60   C     C_R   0.056274 0.322263 0.401218 -0.124936
C61   C     C_R   0.524147 0.192722 0.504533 -0.127337
C62   C     C_R   0.445660 0.813752 0.590855 -0.126521
C63   C     C_R   0.483960 0.190925 0.477465 -0.127104
C64   C     C_R   0.494252 0.812363 0.595870 -0.128462
C65   C     C_R   0.967462 0.559483 0.524252 0.024691
C66   C     C_R   0.035252 0.439991 0.468934 0.024384
C67   C     C_R   0.015898 0.559885 0.531034 0.024356
C68   C     C_R   0.583528 0.129541 0.549369 -0.114410
C69   C     C_R   0.986509 0.439428 0.462808 0.024626
C70   C     C_R   0.473774 0.063338 0.505923 0.024623
C71   C     C_R   0.509127 0.936812 0.552030 0.025443
C72   C     C_R   0.518240 0.064052 0.523643 0.024323
C73   C     C_R   0.461492 0.937274 0.542449 0.024588
C74   C     C_R   0.445020 0.999932 0.515502 -0.005465
C75   C     C_R   0.537875 0.000262 0.541829 -0.005381
C76   C     C_R   0.952593 0.499303 0.490241 -0.005113
C77   C     C_R   0.049822 0.500057 0.503592 -0.005647
C78   C     C_R   0.368609 0.936567 0.515546 -0.002746
C79   C     C_R   0.117513 0.381175 0.446811 -0.113727
C80   C     C_R   0.611779 0.065999 0.547418 -0.001311
C81   C     C_R   0.609166 0.934843 0.557289 -0.001183
C82   C     C_R   0.382646 0.063574 0.474605 -0.000162
C83   C     C_R   0.886790 0.436560 0.456691 0.000281
C84   C     C_R   0.114629 0.562643 0.539559 -0.001758
C85   C     C_R   0.130344 0.438222 0.489050 -0.001061
C86   C     C_R   0.872084 0.561569 0.504976 -0.000449
C87   C     C_R   0.325718 0.935594 0.491785 -0.021924
C88   C     C_R   0.664183 0.065600 0.542328 -0.023823
C89   C     C_R   0.663196 0.934588 0.545965 -0.026354
C90   C     C_R   0.886072 0.618972 0.544901 -0.114869
C91   C     C_R   0.332941 0.064416 0.469705 -0.026422
C92   C     C_R   0.834285 0.435200 0.462209 -0.026904
C93   C     C_R   0.166632 0.564342 0.535457 -0.027072
C94   C     C_R   0.174380 0.436185 0.509636 -0.022206
C95   C     C_R   0.827094 0.563641 0.486721 -0.022269
C96   C     C_R   0.307546 0.999677 0.472695 -0.163476
C97   C     C_R   0.688764 0.000071 0.540921 -0.165110
C98   C     C_R   0.807603 0.499757 0.469955 -0.163816
C99   C     C_R   0.193434 0.499966 0.527640 -0.164226
C100  C     C_R   0.922747 0.378162 0.425229 -0.114261
C101  C     C_R   0.703532 0.268175 0.671820 0.552628
C102  C     C_R   0.078580 0.620687 0.571238 -0.117506
C103  C     C_R   0.225556 0.772804 0.947706 0.036366
C104  C     C_R   0.766695 0.209453 0.058337 0.035355
C105  C     C_R   0.791470 0.743949 0.036901 0.035041
C106  C     C_R   0.224681 0.228768 0.948334 0.036015
C107  C     C_R   0.707429 0.242897 0.964959 0.035672
C108  C     C_R   0.281052 0.732762 0.043773 0.036077
C109  C     C_R   0.280240 0.268692 0.044315 0.035824
C110  C     C_R   0.731478 0.711192 0.944636 0.034527
C111  C     C_R   0.269854 0.726098 0.909026 0.012480
C112  C     C_R   0.708018 0.722524 0.668557 0.547393
C113  C     C_R   0.725886 0.261613 0.092065 0.013229
C114  C     C_R   0.741422 0.708577 0.081014 0.012701
C115  C     C_R   0.268813 0.275876 0.909804 0.012167
C116  C     C_R   0.748584 0.191050 0.929927 0.013697
C117  C     C_R   0.232505 0.770917 0.085843 0.012265
C118  C     C_R   0.231710 0.230383 0.086363 0.013639
C119  C     C_R   0.785367 0.735538 0.896948 0.015254
C120  C     C_R   0.301984 0.714897 0.952656 0.012631
C121  C     C_R   0.692669 0.272126 0.050315 0.013264
C122  C     C_R   0.709063 0.699304 0.037422 0.011997
C123  C     C_R   0.292720 0.275979 0.330614 0.548352
C124  C     C_R   0.301009 0.287019 0.953326 0.011896
C125  C     C_R   0.775578 0.170442 0.980520 0.013621
C126  C     C_R   0.210017 0.800040 0.033825 0.013002
C127  C     C_R   0.209222 0.201300 0.034359 0.013048
C128  C     C_R   0.814183 0.756705 0.944134 0.014297
C129  C     C_R   0.156710 0.845937 0.935432 0.009607
C130  C     C_R   0.837883 0.141870 0.071616 0.007069
C131  C     C_R   0.866118 0.807914 0.044882 0.006993
C132  C     C_R   0.156375 0.154726 0.935599 0.009073
C133  C     C_R   0.635455 0.311627 0.955121 0.008988
C134  C     C_R   0.795542 0.229945 0.328546 0.550706
C135  C     C_R   0.359544 0.680037 0.048978 0.009680
C136  C     C_R   0.359091 0.320653 0.049175 0.009384
C137  C     C_R   0.646623 0.672353 0.946435 0.010796
C138  C     C_R   0.124702 0.860871 0.891517 -0.024060
C139  C     C_R   0.873144 0.134173 0.110990 -0.023739
C140  C     C_R   0.887080 0.841681 0.098571 -0.027266
C141  C     C_R   0.124543 0.139396 0.891540 -0.025280
C142  C     C_R   0.613537 0.343027 0.901487 -0.026698
C143  C     C_R   0.383994 0.652721 0.100662 -0.027117
C144  C     C_R   0.383854 0.347391 0.100671 -0.027241
C145  C     C_R   0.204176 0.769365 0.671256 0.544480
C146  C     C_R   0.618505 0.650112 0.897938 -0.028708
C147  C     C_R   0.139086 0.830813 0.807653 -0.169405
C148  C     C_R   0.860362 0.167705 0.192328 -0.166108
C149  C     C_R   0.864346 0.824910 0.189638 -0.165077
C150  C     C_R   0.138930 0.169347 0.807623 -0.165731
C151  C     C_R   0.635703 0.325040 0.810783 -0.167749
C152  C     C_R   0.361528 0.669220 0.191622 -0.167036
C153  C     C_R   0.361533 0.330612 0.191524 -0.168951
C154  C     C_R   0.639216 0.668922 0.808118 -0.168306
C155  C     C_R   0.182267 0.783487 0.768222 -0.027724
C156  C     C_R   0.204080 0.230815 0.671271 0.562134
C157  C     C_R   0.816424 0.213521 0.231747 -0.029136
C158  C     C_R   0.820981 0.777543 0.229866 -0.026592
C159  C     C_R   0.181967 0.216997 0.768304 -0.027376
C160  C     C_R   0.678167 0.276397 0.771214 -0.028503
C161  C     C_R   0.312316 0.704710 0.235370 -0.025632
C162  C     C_R   0.312216 0.295286 0.235410 -0.024854
C163  C     C_R   0.690048 0.699840 0.762082 -0.023172
C164  C     C_R   0.208243 0.758725 0.818765 0.008444
C165  C     C_R   0.789078 0.234222 0.181482 0.011787
C166  C     C_R   0.798571 0.746255 0.176925 0.008556
C167  C     C_R   0.796117 0.768871 0.328555 0.563082
C168  C     C_R   0.207635 0.242330 0.819085 0.009518
C169  C     C_R   0.698581 0.242713 0.825911 0.008645
C170  C     C_R   0.283076 0.721120 0.187057 0.008251
C171  C     C_R   0.282734 0.279197 0.187337 0.010371
C172  C     C_R   0.723070 0.707075 0.805795 0.009670
C173  C     C_R   0.196763 0.631636 0.527222 0.545178
C174  C     C_R   0.803462 0.368215 0.472110 0.551814
C175  C     C_R   0.799735 0.630881 0.485105 0.547639
C176  C     C_R   0.200799 0.369009 0.513460 0.550132
C177  C     C_R   0.696842 0.131677 0.526674 0.554006
C178  C     C_R   0.398890 0.999878 0.501231 0.023933
C179  C     C_R   0.299340 0.868872 0.486330 0.563821
C180  C     C_R   0.302943 0.131409 0.474632 0.559478
C181  C     C_R   0.696229 0.868182 0.528792 0.558929
C182  C     C_R   0.196568 0.792261 0.900662 0.033667
C183  C     C_R   0.798111 0.195452 0.103565 0.036174
C184  C     C_R   0.818724 0.766348 0.086381 0.035304
C185  C     C_R   0.195927 0.208893 0.901080 0.034064
C186  C     C_R   0.680566 0.265949 0.914998 0.036088
C187  C     C_R   0.308208 0.711799 0.093288 0.034301
C188  C     C_R   0.307646 0.289090 0.093645 0.033912
Cu1   Cu    Cu3+1 0.209920 0.785290 0.495070 0.905938
Cu2   Cu    Cu3+1 0.504760 0.500000 0.075850 0.905211
Cu3   Cu    Cu3+1 0.995240 0.000000 0.924150 0.906143
Cu4   Cu    Cu3+1 0.004760 1.000000 0.075850 0.904886
Cu5   Cu    Cu3+1 0.790080 0.214710 0.504930 0.915791
Cu6   Cu    Cu3+1 0.790080 0.785290 0.504930 0.909955
Cu7   Cu    Cu3+1 0.209920 0.214710 0.495070 0.911707
Cu8   Cu    Cu3+1 0.709920 0.285290 0.495070 0.899372
Cu9   Cu    Cu3+1 0.290080 0.714710 0.504930 0.898551
Cu10  Cu    Cu3+1 0.290080 0.285290 0.504930 0.901263
Cu11  Cu    Cu3+1 0.709920 0.714710 0.495070 0.901798
Cu12  Cu    Cu3+1 0.495240 0.500000 0.924150 0.904026
H1    H     H_    0.506440 0.763347 0.615580 0.101049
H2    H     H_    0.729603 0.999997 0.532098 0.158674
H3    H     H_    0.770140 0.499957 0.465724 0.156851
H4    H     H_    0.230444 0.499795 0.533326 0.157138
H5    H     H_    0.587237 0.824220 0.599821 0.142935
H6    H     H_    0.410804 0.171130 0.423940 0.144872
H7    H     H_    0.355685 0.831958 0.581143 0.152333
H8    H     H_    0.591292 0.180481 0.570344 0.150228
H9    H     H_    0.144829 0.337337 0.416871 0.132141
H10   H     H_    0.860006 0.663571 0.573399 0.132324
H11   H     H_    0.913831 0.332442 0.395112 0.136526
H12   H     H_    0.471810 0.240287 0.458395 0.101631
H13   H     H_    0.086832 0.665928 0.602903 0.137886
H14   H     H_    0.117401 0.846282 0.771148 0.157159
H15   H     H_    0.884015 0.156369 0.226798 0.157035
H16   H     H_    0.879576 0.851098 0.230767 0.161659
H17   H     H_    0.117408 0.153495 0.770967 0.161440
H18   H     H_    0.620724 0.351277 0.769361 0.159081
H19   H     H_    0.381806 0.651994 0.229735 0.159367
H20   H     H_    0.382022 0.347500 0.229460 0.157616
H21   H     H_    0.616153 0.657162 0.772724 0.155126
H22   H     H_    0.131401 0.933735 0.033179 0.142908
H23   H     H_    0.421295 0.765785 0.607112 0.101929
H24   H     H_    0.861991 0.047233 0.986155 0.155418
H25   H     H_    0.931293 0.832563 0.912533 0.151907
H26   H     H_    0.131530 0.066502 0.032855 0.142262
H27   H     H_    0.573502 0.341208 0.089452 0.152360
H28   H     H_    0.426076 0.664761 0.914520 0.146814
H29   H     H_    0.425477 0.335976 0.914484 0.148082
H30   H     H_    0.580777 0.663299 0.081714 0.147042
H31   H     H_    0.167038 0.886121 0.124145 0.106625
H32   H     H_    0.814831 0.074624 0.905365 0.105185
H33   H     H_    0.886338 0.798709 0.831083 0.100364
H34   H     H_    0.542646 0.243389 0.505379 0.101827
H35   H     H_    0.166698 0.114609 0.124277 0.106224
H36   H     H_    0.625751 0.320919 0.163583 0.104957
H37   H     H_    0.374613 0.682225 0.836230 0.103217
H38   H     H_    0.373554 0.319945 0.836784 0.107172
H39   H     H_    0.633745 0.679644 0.156851 0.108304
H40   H     H_    0.250330 0.665392 0.738409 0.149564
H41   H     H_    0.750291 0.330783 0.255368 0.145120
H42   H     H_    0.747517 0.662685 0.268392 0.153445
H43   H     H_    0.249561 0.335731 0.738441 0.149006
H44   H     H_    0.745098 0.156922 0.735457 0.150295
H45   H     H_    0.082780 0.276522 0.376965 0.096242
H46   H     H_    0.202359 0.739624 0.298528 0.158901
H47   H     H_    0.202214 0.259227 0.298941 0.141118
H48   H     H_    0.800903 0.719105 0.688434 0.138213
H49   H     H_    0.308143 0.647217 0.804671 0.104908
H50   H     H_    0.694480 0.349823 0.186036 0.105960
H51   H     H_    0.693887 0.642533 0.196588 0.104844
H52   H     H_    0.306961 0.355018 0.805517 0.105905
H53   H     H_    0.790428 0.120141 0.815747 0.105015
H54   H     H_    0.165359 0.794914 0.214207 0.110781
H55   H     H_    0.164780 0.205544 0.214726 0.103368
H56   H     H_    0.921292 0.724490 0.611926 0.091651
H57   H     H_    0.850695 0.747604 0.762100 0.097084
H58   H     H_    0.997715 0.274850 0.368574 0.106459
H59   H     H_    0.004940 0.724976 0.624326 0.101623
H60   H     H_    0.272061 0.999455 0.462453 0.158635
O1    O     O_R   0.255040 0.869590 0.478480 -0.503219
O2    O     O_R   0.817950 0.203450 0.375560 -0.509941
O3    O     O_R   0.817950 0.796550 0.375560 -0.501362
O4    O     O_R   0.182050 0.203450 0.624440 -0.501490
O5    O     O_R   0.682050 0.296550 0.624440 -0.510799
O6    O     O_R   0.317950 0.703450 0.375560 -0.502261
O7    O     O_R   0.317950 0.296550 0.375560 -0.514608
O8    O     O_R   0.682050 0.703450 0.624440 -0.516599
O9    O     O_R   0.250530 0.763330 0.367210 -0.516020
O10   O     O_R   0.749470 0.236670 0.632790 -0.512312
O11   O     O_R   0.749470 0.763330 0.632790 -0.524449
O12   O     O_R   0.744960 0.130410 0.521520 -0.511487
O13   O     O_R   0.250530 0.236670 0.367210 -0.527124
O14   O     O_R   0.750530 0.263330 0.367210 -0.514651
O15   O     O_R   0.249470 0.736670 0.632790 -0.529841
O16   O     O_R   0.249470 0.263330 0.632790 -0.513802
O17   O     O_R   0.750530 0.736670 0.367210 -0.515035
O18   O     O_R   0.177260 0.690030 0.513710 -0.521103
O19   O     O_R   0.822740 0.309970 0.486290 -0.508755
O20   O     O_R   0.822740 0.690030 0.486290 -0.523962
O21   O     O_R   0.177260 0.309970 0.513710 -0.520106
O22   O     O_R   0.677260 0.190030 0.513710 -0.520965
O23   O     O_R   0.744960 0.869590 0.521520 -0.502572
O24   O     O_R   0.322740 0.809970 0.486290 -0.515658
O25   O     O_R   0.322740 0.190030 0.486290 -0.515271
O26   O     O_R   0.677260 0.809970 0.513710 -0.511312
O27   O     O_R   0.051640 0.926880 0.885090 -0.515784
O28   O     O_R   0.948360 0.073120 0.114910 -0.504882
O29   O     O_R   0.948360 0.926880 0.114910 -0.504775
O30   O     O_R   0.051640 0.073120 0.885090 -0.503761
O31   O     O_R   0.551640 0.426880 0.885090 -0.511773
O32   O     O_R   0.448360 0.573120 0.114910 -0.510347
O33   O     O_R   0.448360 0.426880 0.114910 -0.512580
O34   O     O_R   0.255040 0.130410 0.478480 -0.501421
O35   O     O_R   0.551640 0.573120 0.885090 -0.511238
O36   O     O_R   0.940620 0.926560 0.986760 -0.528663
O37   O     O_R   0.059380 0.073440 0.013240 -0.523245
O38   O     O_R   0.059380 0.926560 0.013240 -0.524804
O39   O     O_R   0.940620 0.073440 0.986760 -0.511564
O40   O     O_R   0.440620 0.426560 0.986760 -0.514760
O41   O     O_R   0.559380 0.573440 0.013240 -0.513795
O42   O     O_R   0.559380 0.426560 0.013240 -0.517369
O43   O     O_R   0.440620 0.573440 0.986760 -0.514958
O44   O     O_R   0.755040 0.369590 0.478480 -0.510655
O45   O     O_R   0.244960 0.630410 0.521520 -0.513361
O46   O     O_R   0.244960 0.369590 0.521520 -0.516188
O47   O     O_R   0.755040 0.630410 0.478480 -0.515630
O48   O     O_R   0.182050 0.796550 0.624440 -0.513864

loop_
_geom_bond_atom_site_label_1
_geom_bond_atom_site_label_2
_ccdc_geom_bond_type
C54   C70   A    
C61   H34   S    
C99   H4    S    
C108  C120  A    
C97   H2    S    
C129  C182  A    
C147  H14   S    
C88   C177  S    
C34   H53   S    
C50   C59   A    
Cu12  O40   S    
Cu1   O9    S    
C145  O15   A    
C181  O23   A    
Cu8   O22   S    
C52   C61   A    
C12   C126  A    
C54   C63   A    
C58   C60   A    
C47   C143  S    
C44   O41   A    
Cu9   O6    S    
C61   C63   A    
C103  C126  A    
C95   C175  S    
C153  H20   S    
C62   C64   A    
C131  C140  A    
C91   C96   A    
C50   C90   A    
C162  C171  A    
C170  C187  A    
C70   C74   A    
C4    C12   A    
C147  C155  A    
C24   C85   A    
C112  O8    A    
C14   H32   S    
C88   C97   A    
C18   H37   S    
Cu7   Cu10  S    
C119  C128  A    
C49   C69   A    
C43   C144  S    
C109  C118  A    
C11   C20   A    
C150  C159  A    
Cu3   Cu4   S    
C165  C183  A    
C137  C146  A    
C166  C184  A    
C175  O20   A    
C86   C90   A    
C19   H38   S    
C71   C73   A    
C106  C127  A    
C82   C91   A    
C51   C66   A    
C89   C181  S    
C142  C151  A    
C52   C72   A    
C41   O38   A    
C105  C114  A    
C102  H13   S    
C74   C178  A    
C82   C178  A    
C176  O46   A    
C36   C117  A    
C7    C132  A    
C38   C119  A    
Cu7   O34   S    
C5    C130  A    
C83   C100  A    
C43   O33   A    
C45   C142  S    
C158  C167  S    
C177  O12   A    
C79   C85   A    
C173  O18   A    
Cu1   Cu9   S    
C66   C77   A    
C39   C140  S    
Cu9   O45   S    
C57   C78   A    
C8    C17   A    
C56   C59   A    
C106  C115  A    
Cu10  O7    S    
C80   C88   A    
C179  O1    A    
C93   C173  S    
Cu12  O31   S    
C9    H28   S    
C84   C93   A    
C105  C184  A    
C156  O16   A    
C86   C95   A    
C24   C77   A    
C104  C183  A    
C42   O39   A    
C2    C81   A    
C41   O27   A    
C22   H41   S    
C55   C71   A    
C2    C75   A    
C78   C87   A    
Cu5   O19   S    
Cu6   O20   S    
C39   O29   A    
C84   C102  A    
C67   C77   A    
Cu3   O27   S    
Cu8   O44   S    
C133  C142  A    
C58   H58   S    
C130  C183  A    
C1    O9    A    
C134  C157  S    
C3    C110  A    
C6    H25   S    
C69   C76   A    
C85   C94   A    
Cu12  O43   S    
C180  O25   A    
C46   C82   A    
C101  C160  S    
Cu4   O29   S    
C29   C38   A    
C149  C158  A    
C167  O17   A    
C20   C122  A    
C152  C161  A    
C64   H1    S    
C135  C143  A    
C174  O19   A    
C60   H45   S    
C48   C67   A    
C40   C141  S    
C136  C188  A    
C72   C75   A    
C112  O11   A    
C135  C187  A    
C141  C150  A    
C25   C168  A    
Cu4   O38   S    
C139  C148  A    
C1    O6    A    
C98   H3    S    
Cu1   O48   S    
C157  C165  A    
C16   H35   S    
C92   C174  S    
C45   O42   A    
Cu2   O41   S    
C36   H54   S    
C33   H52   S    
Cu7   O13   S    
Cu5   Cu8   S    
C91   C180  S    
C45   O31   A    
C167  O3    A    
C9    C135  A    
C116  C125  A    
C29   H48   S    
C118  C127  A    
Cu8   O14   S    
C12   H31   S    
C117  C126  A    
C17   H36   S    
C132  C141  A    
C46   H6    S    
C180  O34   A    
C108  C117  A    
C110  C119  A    
Cu11  O8    S    
Cu1   O18   S    
C100  H11   S    
Cu5   O2    S    
C30   H49   S    
C173  O45   A    
Cu7   O4    S    
C28   C37   A    
C150  H17   S    
C148  C157  A    
C50   C65   A    
C51   C79   A    
C107  C116  A    
C104  C113  A    
C177  O22   A    
C5    H24   S    
C113  C121  A    
Cu10  O46   S    
C51   C60   A    
C140  C149  A    
C31   C113  A    
C123  O13   A    
C25   C33   A    
C43   O40   A    
C148  H15   S    
C73   C74   A    
Cu4   O28   S    
Cu2   Cu12  S    
C107  C186  A    
C65   C76   A    
C171  C188  A    
C40   O37   A    
C169  C186  A    
C3    C172  A    
C47   O32   A    
C152  H19   S    
C103  C111  A    
Cu2   O32   S    
C104  C125  A    
C65   C67   A    
C68   H8    S    
C160  C169  A    
C40   O30   A    
C3    C137  A    
C93   C99   A    
C81   C89   A    
C8    C133  A    
C1    C161  S    
C21   C164  A    
C130  C139  A    
C25   H43   S    
C179  O24   A    
C47   O43   A    
C33   C115  A    
Cu6   O3    S    
C112  C163  S    
C53   C57   A    
C132  C185  A    
Cu3   O39   S    
C10   C19   A    
C96   H60   S    
C48   C102  A    
C46   C54   A    
Cu1   O1    S    
C27   C170  A    
C5    C14   A    
C17   C121  A    
C143  C152  A    
C7    H26   S    
C15   C128  A    
C56   H59   S    
C107  C121  A    
C158  C166  A    
C79   H9    S    
Cu11  O26   S    
C101  O5    A    
C175  O47   A    
C115  C124  A    
C59   H56   S    
C78   C178  A    
C106  C185  A    
C6    C131  A    
C4    C129  A    
C32   H51   S    
C27   C36   A    
C21   C30   A    
C13   C83   A    
C153  C162  A    
C23   C32   A    
C154  H21   S    
C11   C137  A    
C136  C144  A    
C110  C122  A    
Cu11  O17   S    
C4    H22   S    
C164  C182  A    
C123  O7    A    
C41   C138  S    
C28   H47   S    
C94   C176  S    
C68   C80   A    
Cu3   O30   S    
C103  C182  A    
C108  C187  A    
C35   C81   A    
C95   C98   A    
C92   C98   A    
C83   C92   A    
C14   C125  A    
C10   C136  A    
Cu9   O15   S    
C26   H44   S    
C66   C69   A    
Cu10  O16   S    
Cu2   O33   S    
C34   C116  A    
Cu2   O42   S    
C63   H12   S    
C159  C168  A    
C131  C184  A    
Cu11  O47   S    
C144  C153  A    
C6    C15   A    
C22   C165  A    
C35   H5    S    
C37   C118  A    
C26   C169  A    
C37   H55   S    
C44   O35   A    
C146  C154  A    
C13   C86   A    
C44   C146  S    
C52   C68   A    
Cu10  O25   S    
C134  O2    A    
C156  O4    A    
Cu5   O10   S    
Cu8   O5    S    
C16   C127  A    
C8    H27   S    
C26   C34   A    
C109  C188  A    
C19   C124  A    
C22   C31   A    
C129  C138  A    
C35   C55   A    
C154  C163  A    
C27   H46   S    
C90   H10   S    
C123  C162  S    
C10   H29   S    
C49   C58   A    
C31   H50   S    
C89   C97   A    
C111  C120  A    
C114  C122  A    
C176  O21   A    
C163  C172  A    
C23   C166  A    
C53   C62   A    
C9    C18   A    
C28   C171  A    
Cu6   Cu11  S    
C13   C76   A    
C138  C147  A    
C87   C96   A    
C15   H33   S    
C181  O26   A    
C151  H18   S    
C62   H23   S    
C23   H42   S    
C133  C186  A    
C161  C170  A    
Cu3   O36   S    
C11   H30   S    
Cu6   O23   S    
C134  O14   A    
Cu12  O35   S    
C174  O44   A    
C38   H57   S    
C18   C120  A    
C145  O48   A    
Cu4   O37   S    
C48   C56   A    
C7    C16   A    
C168  C185  A    
C105  C128  A    
C42   C139  S    
C156  C159  S    
C53   C73   A    
C109  C124  A    
C55   C64   A    
C155  C164  A    
C20   H39   S    
C101  O10   A    
C57   H7    S    
C30   C111  A    
Cu7   O21   S    
C151  C160  A    
C24   C84   A    
C149  H16   S    
C49   C100  A    
C71   C75   A    
C94   C99   A    
C29   C172  A    
Cu9   O24   S    
C2    C80   A    
C87   C179  S    
C145  C155  S    
C21   H40   S    
C39   O36   A    
Cu5   O12   S    
C70   C72   A    
Cu6   O11   S    
C32   C114  A    
C42   O28   A    
