data_mof_unit_19774.cif
_audit_creation_date              2012-12-10T17:56:17-0500
_audit_creation_method            fapswitch 2.2
_symmetry_space_group_name_H-M    P1
_symmetry_Int_Tables_number       1
_space_group_crystal_system       triclinic
_cell_length_a                    13.00025
_cell_length_b                    10.831275
_cell_length_c                    9.547451
_cell_angle_alpha                 90.317594
_cell_angle_beta                  96.610305
_cell_angle_gamma                 90.703655
_cell_volume                      1335.29900302

loop_
_atom_site_label
_atom_site_type_symbol
_atom_type_description
_atom_site_fract_x
_atom_site_fract_y
_atom_site_fract_z
_atom_type_partial_charge
C1    C     C_R   0.499878 0.262159 0.499722 0.808828
C2    C     C_R   0.500122 0.737841 0.500278 0.808828
C3    C     C_R   0.500136 0.871740 0.500314 -0.032535
C4    C     C_R   0.499864 0.128260 0.499686 -0.032535
C5    C     C_R   0.433551 0.424513 0.061893 0.470192
C6    C     C_R   0.566449 0.575487 0.938107 0.470192
C7    C     C_R   0.433909 0.424960 0.913761 -0.122437
C8    C     C_R   0.566091 0.575040 0.086239 -0.122437
C9    C     C_R   0.300500 0.499884 0.473279 0.849085
C10   C     C_R   0.699500 0.500116 0.526721 0.849085
C11   C     C_R   0.812353 0.498171 0.542396 -0.147979
C12   C     C_R   0.187647 0.501829 0.457603 -0.147979
C13   C     C_R   0.024491 0.537703 0.315514 0.403670
C14   C     C_R   0.975509 0.462297 0.684486 0.403670
C15   C     C_R   0.131890 0.530247 0.327924 -0.156424
C16   C     C_R   0.868110 0.469753 0.672076 -0.156424
C17   C     C_R   0.135737 0.478568 0.575270 -0.186151
C18   C     C_R   0.864263 0.521432 0.424730 -0.186151
C19   C     C_R   0.028161 0.484906 0.565692 0.014727
C20   C     C_R   0.971839 0.515093 0.434308 0.014727
C21   C     C_R   0.502006 0.063202 0.372923 -0.127032
C22   C     C_R   0.497994 0.936797 0.627077 -0.127032
C23   C     C_R   0.502159 0.935476 0.373229 -0.165176
C24   C     C_R   0.497841 0.064524 0.626771 -0.165176
Cu1   Cu    Cu3+1 0.500000 0.500020 0.640660 1.014722
Cu2   Cu    Cu3+1 0.500000 0.499980 0.359340 1.014722
H1    H     H_    0.819998 0.544195 0.325468 0.214873
H2    H     H_    0.180002 0.455805 0.674532 0.214873
H3    H     H_    0.828182 0.451132 0.763412 0.216051
H4    H     H_    0.171818 0.548867 0.236588 0.216051
H5    H     H_    0.503696 0.110682 0.273644 0.184945
H6    H     H_    0.496304 0.889317 0.726356 0.184945
H7    H     H_    0.503933 0.886945 0.274038 0.166587
H8    H     H_    0.496067 0.113055 0.725962 0.166587
H9    H     H_    0.381186 0.364849 0.848209 0.181405
H10   H     H_    0.618814 0.635151 0.151791 0.181405
N1    N     N_R   0.500030 0.500030 0.852080 -0.223771
N2    N     N_R   0.499970 0.499970 0.147920 -0.223771
O1    O     O_R   0.499990 0.319660 0.618740 -0.599314
O2    O     O_R   0.500010 0.680340 0.381260 -0.599314
O3    O     O_R   0.499990 0.319630 0.381170 -0.544030
O4    O     O_R   0.500010 0.680370 0.618830 -0.544029
O5    O     O_R   0.349000 0.499990 0.599490 -0.595180
O6    O     O_R   0.651000 0.500010 0.400510 -0.595180
O7    O     O_R   0.348990 0.499960 0.361920 -0.534840
O8    O     O_R   0.651010 0.500040 0.638080 -0.534840
Cl1   Cl    Cl    0.959851 0.577661 0.149575 -0.520464
Cl2   Cl    Cl    0.040149 0.422339 0.850425 -0.520464
Cl3   Cl    Cl    0.345631 0.323683 0.130657 -0.569752
Cl4   Cl    Cl    0.654369 0.676317 0.869343 -0.569752

loop_
_geom_bond_atom_site_label_1
_geom_bond_atom_site_label_2
_ccdc_geom_bond_type
Cu1   O4    S    
C10   O8    A    
C6    C8    A    
C11   C18   A    
C9    O7    A    
C11   C16   A    
C3    C23   A    
C19   C20   A    
Cu2   O7    S    
C12   C15   A    
C1    C4    S    
Cu2   O2    S    
Cu1   O5    S    
C13   C15   A    
C2    C3    S    
C7    N1    A    
C6    N1    A    
Cu2   O6    S    
C5    N2    A    
Cu1   O1    S    
C12   C17   A    
C4    C21   A    
C21   H5    S    
C5    Cl3   S    
C22   H6    S    
C8    N2    A    
C2    O4    A    
C14   C19   A    
C22   C24   A    
C1    O3    A    
C17   C19   A    
C18   C20   A    
C21   C23   A    
C4    C24   A    
C9    C12   S    
C14   C16   A    
C9    O5    A    
C10   C11   S    
C1    O1    A    
C10   O6    A    
C2    O2    A    
C16   H3    S    
C15   H4    S    
C5    C7    A    
C8    H10   S    
C13   Cl1   S    
Cu2   N2    S    
C3    C22   A    
C14   Cl2   S    
C13   C20   A    
Cu1   N1    S    
Cu1   Cu2   S    
C17   H2    S    
C7    H9    S    
Cu1   O8    S    
C6    Cl4   S    
C18   H1    S    
Cu2   O3    S    
C23   H7    S    
C24   H8    S    
