data_mof_unit_45919.cif
_audit_creation_date              2012-12-10T16:39:38-0500
_audit_creation_method            fapswitch 2.2
_symmetry_space_group_name_H-M    P1
_symmetry_Int_Tables_number       1
_space_group_crystal_system       triclinic
_cell_length_a                    16.71877
_cell_length_b                    17.069949
_cell_length_c                    16.897306
_cell_angle_alpha                 68.563394
_cell_angle_beta                  65.783043
_cell_angle_gamma                 65.104928
_cell_volume                      3879.42271771

loop_
_atom_site_label
_atom_site_type_symbol
_atom_type_description
_atom_site_fract_x
_atom_site_fract_y
_atom_site_fract_z
_atom_type_partial_charge
C1    C     C_R   0.329708 0.941788 0.459755 -0.018655
C2    C     C_R   0.326200 0.448944 0.967552 -0.026501
C3    C     C_R   0.547354 0.409611 0.002864 0.012376
C4    C     C_R   0.028057 0.454927 0.577520 -0.000963
C5    C     C_R   0.974851 0.545237 0.420780 -0.001907
C6    C     C_R   0.021447 0.682239 0.551855 -0.029532
C7    C     C_R   0.983455 0.317296 0.445690 -0.035371
C8    C     C_R   0.444502 0.998174 0.455528 0.028566
C9    C     C_R   0.546359 0.019104 0.540767 0.034520
C10   C     C_R   0.988051 0.454106 0.454584 0.028567
C11   C     C_R   0.016060 0.545807 0.543113 0.027750
C12   C     C_R   0.455157 0.448254 0.001824 0.034919
C13   C     C_R   0.536258 0.536830 0.044856 0.032624
C14   C     C_R   0.979501 0.175985 0.431849 0.933782
C15   C     C_R   0.666905 0.067846 0.538077 -0.010723
C16   C     C_R   0.021565 0.823845 0.567713 0.937459
C17   C     C_R   0.180431 0.435006 0.966606 0.919424
C18   C     C_R   0.820128 0.562955 0.039298 0.916725
C19   C     C_R   0.428772 0.982334 0.176798 0.941214
C20   C     C_R   0.568303 0.024653 0.821915 0.936900
C21   C     C_R   0.563539 0.821511 0.033992 0.947949
C22   C     C_R   0.435912 0.177371 0.970192 0.951319
C23   C     C_R   0.026611 0.566032 0.822200 0.926397
C24   C     C_R   0.974069 0.433757 0.177500 0.919556
C25   C     C_R   0.819402 0.041733 0.561312 0.925592
C26   C     C_R   0.961340 0.448745 0.325987 -0.032971
C27   C     C_R   0.180700 0.959333 0.438154 0.916862
C28   C     C_R   0.397526 0.984411 0.411585 0.016331
C29   C     C_R   0.593199 0.033107 0.585459 0.025333
C30   C     C_R   0.980315 0.406098 0.407444 0.032852
C31   C     C_R   0.024518 0.593522 0.590029 0.032726
C32   C     C_R   0.414067 0.403089 0.981703 0.018767
C33   C     C_R   0.580448 0.584595 0.057187 0.020749
C34   C     C_R   0.282839 0.933183 0.410389 -0.146163
C35   C     C_R   0.716950 0.070552 0.588688 -0.150102
C36   C     C_R   0.973647 0.395815 0.270772 -0.146418
C37   C     C_R   0.042264 0.550904 0.672210 -0.032184
C38   C     C_R   0.028542 0.603698 0.728209 -0.152170
C39   C     C_R   0.409314 0.271327 0.960251 -0.142786
C40   C     C_R   0.590335 0.724399 0.056185 -0.163066
C41   C     C_R   0.602979 0.036050 0.725148 -0.159639
C42   C     C_R   0.389488 0.978568 0.272852 -0.155978
C43   C     C_R   0.718602 0.592535 0.067064 -0.154210
C44   C     C_R   0.281419 0.403259 0.951442 -0.145737
C45   C     C_R   0.020052 0.732090 0.604282 -0.152628
C46   C     C_R   0.983243 0.267347 0.394276 -0.153766
C47   C     C_R   0.519580 0.947276 0.721316 0.194212
C48   C     C_R   0.459028 0.312235 0.978992 0.005551
C49   C     C_R   0.452260 0.087522 0.278711 0.166644
C50   C     C_R   0.019091 0.717110 0.462840 0.194827
C51   C     C_R   0.980541 0.284620 0.535916 0.197919
C52   C     C_R   0.708699 0.450430 0.069984 0.199033
C53   C     C_R   0.289114 0.541179 0.963256 0.189985
C54   C     C_R   0.312400 0.908276 0.553478 0.181067
C55   C     C_R   0.681564 0.105263 0.445053 0.177270
C56   C     C_R   0.552456 0.271834 0.989251 0.217002
C57   C     C_R   0.450898 0.715542 0.037752 0.202800
C58   C     C_R   0.922712 0.542044 0.308065 0.184652
C59   C     C_R   0.538904 0.676299 0.052300 -0.006286
C60   C     C_R   0.080031 0.457699 0.690531 0.184161
C61   C     C_R   0.328917 0.929683 0.322594 0.109438
C62   C     C_R   0.671612 0.075554 0.676610 0.105145
C63   C     C_R   0.998003 0.302950 0.302606 0.118608
C64   C     C_R   0.004261 0.696480 0.696184 0.113825
C65   C     C_R   0.330702 0.320856 0.933901 0.079834
C66   C     C_R   0.671678 0.678200 0.078270 0.103116
C67   C     C_R   0.628991 0.097802 0.400126 -0.047165
C68   C     C_R   0.353254 0.929279 0.599843 -0.055100
C69   C     C_R   0.058437 0.409567 0.653603 -0.051691
C70   C     C_R   0.567880 0.008608 0.679215 -0.024863
C71   C     C_R   0.943002 0.590835 0.345549 -0.051706
C72   C     C_R   0.396844 0.663342 0.054015 -0.054156
C73   C     C_R   0.599758 0.327037 0.982124 -0.062606
C74   C     C_R   0.506048 0.098319 0.319973 -0.016729
C75   C     C_R   0.456240 0.952128 0.683011 -0.031895
C76   C     C_R   0.317344 0.578386 0.005235 -0.062276
C77   C     C_R   0.677095 0.410954 0.033894 -0.050985
C78   C     C_R   0.016401 0.320663 0.571138 -0.062911
C79   C     C_R   0.982559 0.680493 0.429194 -0.061126
C80   C     C_R   0.633733 0.139620 0.309975 0.170678
C81   C     C_R   0.416119 0.015845 0.318566 -0.020810
C82   C     C_R   0.321592 0.920992 0.694303 0.159168
C83   C     C_R   0.069404 0.317689 0.687589 0.151124
C84   C     C_R   0.928480 0.683606 0.313828 0.151408
C85   C     C_R   0.303170 0.702439 0.055572 0.163125
C86   C     C_R   0.697016 0.297892 0.966238 0.160608
C87   C     C_R   0.560211 0.156149 0.279467 0.158578
C88   C     C_R   0.369445 0.940920 0.733382 0.144607
C89   C     C_R   0.264020 0.660979 0.028914 0.134439
C90   C     C_R   0.734704 0.336139 0.997882 0.137792
C91   C     C_R   0.045497 0.274038 0.647739 0.133870
C92   C     C_R   0.670080 0.542192 0.065004 -0.033908
C93   C     C_R   0.948673 0.728294 0.355610 0.135638
C94   C     C_R   0.507886 0.046265 0.406629 -0.007658
C95   C     C_R   0.476610 0.978533 0.590355 0.003623
C96   C     C_R   0.012329 0.409563 0.533908 0.001666
C97   C     C_R   0.990166 0.590698 0.464647 0.001138
C98   C     C_R   0.404239 0.533111 0.019708 0.006316
C99   C     C_R   0.587047 0.452700 0.026577 0.008049
C100  C     C_R   0.562459 0.052983 0.448887 -0.009671
C101  C     C_R   0.425050 0.968025 0.548471 -0.007272
C102  C     C_R   0.444394 0.576354 0.042870 0.009364
I1    I     I_    0.327112 0.828659 0.279067 -0.196041
I2    I     I_    0.058433 0.136355 0.697469 -0.179753
I3    I     I_    0.880480 0.291424 0.976156 -0.151220
I4    I     I_    0.122644 0.719531 0.032060 -0.160089
I5    I     I_    0.194147 0.896547 0.780175 -0.133390
I6    I     I_    0.762196 0.137136 0.208545 -0.160582
I7    I     I_    0.787731 0.209390 0.879420 -0.153426
I8    I     I_    0.225329 0.826709 0.093209 -0.140599
I9    I     I_    0.888438 0.756174 0.196937 -0.154759
I10   I     I_    0.113414 0.246102 0.803043 -0.150957
I11   I     I_    0.634055 0.825844 0.714438 -0.305978
I12   I     I_    0.699722 0.153799 0.728743 -0.175716
I13   I     I_    0.372115 0.195113 0.199643 -0.338701
I14   I     I_    0.144913 0.733576 0.368883 -0.206153
I15   I     I_    0.845026 0.288563 0.617203 -0.202477
I16   I     I_    0.763868 0.372527 0.178042 -0.175060
I17   I     I_    0.257384 0.622462 0.842028 -0.182811
I18   I     I_    0.266452 0.794213 0.607146 -0.197332
I19   I     I_    0.746652 0.205524 0.390975 -0.199020
I20   I     I_    0.615617 0.140787 0.068387 -0.202090
I21   I     I_    0.457533 0.785571 0.906119 -0.274396
I22   I     I_    0.780048 0.574646 0.328354 -0.220211
I23   I     I_    0.087392 0.214954 0.213000 -0.196465
I24   I     I_    0.223707 0.425002 0.664781 -0.221295
I25   I     I_    0.912133 0.784163 0.785679 -0.197675
I26   I     I_    0.295571 0.276811 0.852623 -0.173317
I27   I     I_    0.715627 0.733640 0.141263 -0.163844
I28   I     I_    0.295799 0.997046 0.848151 -0.142764
I29   I     I_    0.503533 0.294095 0.228361 -0.275321
I30   I     I_    0.918734 0.869929 0.315989 -0.176522
O1    O     O_R   0.982940 0.138950 0.510160 -0.618279
O2    O     O_R   0.982940 0.510160 0.138950 -0.620760
O3    O     O_R   0.861050 0.017060 0.489840 -0.612655
O4    O     O_R   0.138950 0.982940 0.510160 -0.619299
O5    O     O_R   0.867700 0.025880 0.612340 -0.584133
O6    O     O_R   0.132300 0.974120 0.387660 -0.585102
O7    O     O_R   0.025880 0.612340 0.867700 -0.578797
O8    O     O_R   0.974120 0.387660 0.132300 -0.580164
O9    O     O_R   0.612340 0.867700 0.025880 -0.591204
O10   O     O_R   0.387660 0.132300 0.974120 -0.590407
O11   O     O_R   0.387660 0.974120 0.132300 -0.595078
O12   O     O_R   0.017060 0.861050 0.489840 -0.616831
O13   O     O_R   0.612340 0.025880 0.867700 -0.593765
O14   O     O_R   0.132300 0.387660 0.974120 -0.578687
O15   O     O_R   0.867700 0.612340 0.025880 -0.583342
O16   O     O_R   0.974120 0.132300 0.387660 -0.584705
O17   O     O_R   0.025880 0.867700 0.612340 -0.585581
O18   O     O_R   0.138950 0.510160 0.982940 -0.619865
O19   O     O_R   0.861050 0.489840 0.017060 -0.619890
O20   O     O_R   0.510160 0.982940 0.138950 -0.602935
O21   O     O_R   0.489840 0.017060 0.861050 -0.608324
O22   O     O_R   0.489840 0.861050 0.017060 -0.610284
O23   O     O_R   0.510160 0.138950 0.982940 -0.622772
O24   O     O_R   0.017060 0.489840 0.861050 -0.614994
Zn1   Zn    Zn3+2 0.004880 0.004880 0.583590 1.113468
Zn2   Zn    Zn3+2 0.995120 0.995120 0.416410 1.116527
Zn3   Zn    Zn3+2 0.004880 0.583590 0.004880 1.109586
Zn4   Zn    Zn3+2 0.995120 0.416410 0.995120 1.111096
Zn5   Zn    Zn3+2 0.583590 0.004880 0.004880 1.112926
Zn6   Zn    Zn3+2 0.416410 0.995120 0.995120 1.116955

loop_
_geom_bond_atom_site_label_1
_geom_bond_atom_site_label_2
_ccdc_geom_bond_type
C55   I19   S    
O9    Zn5   S    
C6    C45   A    
C54   I18   S    
C32   C48   A    
C74   C94   A    
C17   O18   A    
C88   I28   S    
C91   I2    S    
O15   Zn3   S    
C50   C79   A    
C20   C41   S    
C75   C95   A    
C14   C46   S    
O23   Zn5   S    
C24   C36   S    
C72   C102  A    
C27   O4    A    
C23   O7    A    
C61   I1    S    
C79   C93   A    
C80   C87   A    
C46   C63   A    
C58   C71   A    
C57   C59   A    
O14   Zn4   S    
C76   C98   A    
C14   O16   A    
C2    C32   A    
C49   C81   A    
O6    Zn2   S    
C3    C12   A    
C4    C96   A    
C78   C96   A    
C89   I4    S    
C1    C28   A    
C21   O22   A    
C77   C99   A    
C16   O17   A    
C10   C96   A    
C74   C87   A    
C35   C62   A    
C36   C63   A    
C8    C101  A    
C9    C95   A    
O11   Zn6   S    
C12   C98   A    
O20   Zn5   S    
C48   C56   A    
C19   C42   S    
C9    C29   A    
C76   C89   A    
C66   I27   S    
O2    Zn3   S    
C11   C31   A    
C33   C59   A    
C40   C59   A    
C40   C66   A    
C23   O24   A    
C12   C32   A    
C39   C65   A    
C44   C65   A    
C42   C81   A    
C41   C62   A    
C3    C73   A    
C15   C35   A    
C4    C69   A    
C79   C97   A    
C1    C34   A    
C15   C29   A    
C38   C64   A    
C22   O23   A    
C27   C34   S    
C83   I10   S    
C77   C90   A    
C27   O6    A    
O18   Zn3   S    
C84   I9    S    
C7    C46   A    
O24   Zn4   S    
C86   I7    S    
C8    C94   A    
C68   C101  A    
C85   I8    S    
C20   O21   A    
C33   C92   A    
C2    C44   A    
C62   I12   S    
C85   C89   A    
C52   C77   A    
C98   C102  A    
C34   C61   A    
C24   O8    A    
C31   C37   A    
C15   C55   A    
C13   C99   A    
C25   O5    A    
C1    C54   A    
C65   I26   S    
C47   C70   A    
C13   C33   A    
C37   C38   A    
C69   C83   A    
C57   I21   S    
C10   C30   A    
C94   C100  A    
C64   I25   S    
C22   O10   A    
C50   I14   S    
C19   O20   A    
O16   Zn2   S    
C82   I5    S    
C6    C50   A    
C4    C11   A    
C26   C58   A    
C42   C61   A    
C63   I23   S    
C87   I29   S    
C67   C100  A    
C25   C35   S    
O4    Zn1   S    
C26   C36   A    
C49   I13   S    
C5    C97   A    
C18   O15   A    
C9    C100  A    
C86   C90   A    
C8    C28   A    
C52   C92   A    
C53   C76   A    
O12   Zn2   S    
C18   O19   A    
C93   I30   S    
C71   C84   A    
C7    C51   A    
C24   O2    A    
C47   I11   S    
C19   O11   A    
C56   C73   A    
C16   O12   A    
C28   C81   A    
C49   C74   A    
O22   Zn6   S    
C67   C80   A    
C90   I3    S    
C47   C75   A    
C2    C53   A    
C16   C45   S    
O10   Zn6   S    
C55   C67   A    
C53   I17   S    
C26   C30   A    
C14   O1    A    
C78   C91   A    
C23   C38   S    
C83   C91   A    
C80   I6    S    
C45   C64   A    
C58   I22   S    
C43   C92   A    
O5    Zn1   S    
O21   Zn6   S    
C11   C97   A    
C68   C82   A    
O19   Zn4   S    
C60   I24   S    
C17   O14   A    
C17   C44   S    
C21   O9    A    
C5    C10   A    
C5    C71   A    
C18   C43   S    
O8    Zn4   S    
C72   C85   A    
C21   C40   S    
O13   Zn5   S    
C60   C69   A    
C43   C66   A    
C82   C88   A    
C22   C39   S    
C51   I15   S    
C6    C31   A    
C29   C70   A    
O1    Zn1   S    
C84   C93   A    
C57   C72   A    
C25   O3    A    
C73   C86   A    
C51   C78   A    
C37   C60   A    
O7    Zn3   S    
C3    C99   A    
C75   C88   A    
C54   C68   A    
C7    C30   A    
O3    Zn2   S    
C20   O13   A    
C41   C70   A    
C13   C102  A    
O17   Zn1   S    
C95   C101  A    
C56   I20   S    
C39   C48   A    
C52   I16   S    
