data_mof_unit_49012.cif
_audit_creation_date              2012-12-11T15:59:51-0500
_audit_creation_method            fapswitch 2.2
_symmetry_space_group_name_H-M    P1
_symmetry_Int_Tables_number       1
_space_group_crystal_system       triclinic
_cell_length_a                    10.769595
_cell_length_b                    10.842751
_cell_length_c                    17.010913
_cell_angle_alpha                 99.875635
_cell_angle_beta                  100.580767
_cell_angle_gamma                 60.284742
_cell_volume                      1688.29932299

loop_
_atom_site_label
_atom_site_type_symbol
_atom_type_description
_atom_site_fract_x
_atom_site_fract_y
_atom_site_fract_z
_atom_type_partial_charge
C1    C     C_R   0.355617 0.768137 0.397653 0.609729
C2    C     C_R   0.816553 0.351649 0.322198 -0.019486
C3    C     C_R   0.358544 0.816301 0.158030 -0.003786
C4    C     C_R   0.368110 0.346058 0.357787 0.567412
C5    C     C_R   0.443276 0.857464 0.219616 -0.043099
C6    C     C_R   0.423638 0.866012 0.300567 -0.036833
C7    C     C_R   0.289865 0.733024 0.254943 0.326461
C8    C     C_R   0.295907 0.739878 0.175462 0.110507
C9    C     C_R   0.550762 0.884367 0.203001 -0.042405
C10   C     C_R   0.636503 0.917057 0.264944 -0.047968
C11   C     C_R   0.611272 0.935634 0.344313 0.126532
C12   C     C_R   0.839270 0.212694 0.192980 -0.072191
C13   C     C_R   0.494058 0.925488 0.361687 0.120765
C14   C     C_R   0.343870 0.804039 0.317530 -0.013759
C15   C     C_R   0.286190 0.298631 0.801061 0.056449
C16   C     C_R   0.772794 0.379134 0.402261 0.604533
C17   C     C_R   0.382966 0.190613 0.752552 -0.006402
C18   C     C_R   0.457246 0.221340 0.708487 -0.059643
C19   C     C_R   0.257349 0.467637 0.714309 0.059241
C20   C     C_R   0.217578 0.439792 0.780621 0.071430
C21   C     C_R   0.407452 0.052190 0.748557 0.363577
C22   C     C_R   0.535959 0.938425 0.725368 -0.068401
C23   C     C_R   0.862059 0.217229 0.277782 -0.006817
C24   C     C_R   0.635078 0.966841 0.700953 0.094719
C25   C     C_R   0.597037 0.108419 0.692749 0.159514
C26   C     C_R   0.380971 0.358423 0.678400 0.001765
C27   C     C_1   0.853772 0.328148 0.704859 -0.030030
C28   C     C_R   0.383852 0.710478 0.631324 0.552946
C29   C     C_1   0.899961 0.292384 0.771902 0.010790
C30   C     C_1   0.365100 0.749925 0.715909 -0.001450
C31   C     C_1   0.333053 0.794740 0.783895 0.026363
C32   C     C_R   0.888752 0.310158 0.085820 0.594679
C33   C     C_R   0.319976 0.299612 0.119961 0.541195
C34   C     C_R   0.772293 0.473642 0.282931 -0.119303
C35   C     C_R   0.299048 0.887876 0.084356 0.561082
C36   C     C_R   0.945302 0.272676 0.855294 0.568419
C37   C     C_R   0.278114 0.260183 0.877419 0.608692
C38   C     C_R   0.284707 0.873710 0.860130 0.591726
C39   C     C_R   0.408397 0.375008 0.600429 0.551520
C40   C     C_R   0.780441 0.377861 0.628307 0.538411
C41   C     C_1   0.341878 0.335805 0.274277 0.040758
C42   C     C_1   0.332287 0.325279 0.203355 0.012407
C43   C     C_R   0.818063 0.332409 0.156740 0.027589
C44   C     C_R   0.775437 0.463826 0.201849 0.338251
C45   C     C_R   0.842453 0.087737 0.148508 0.141219
C46   C     C_R   0.903213 0.961796 0.186038 0.363075
C47   C     C_R   0.951220 0.961185 0.267731 -0.095496
C48   C     C_R   0.929081 0.087938 0.314534 0.054682
Cr1   Cr    Cr6+3 0.608100 0.610860 0.522250 0.997164
Cr2   Cr    Cr6+3 0.288890 0.599990 0.488420 1.077154
Cr3   Cr    Cr6+3 0.603040 0.289190 0.489390 0.983133
Cr4   Cr    Cr6+3 0.053960 0.052250 0.967380 1.052917
Cr5   Cr    Cr6+3 0.059890 0.373160 0.992710 1.109008
Cr6   Cr    Cr6+3 0.373370 0.061690 0.991710 1.032052
F1    F     F_    0.295437 0.036313 0.758003 -0.672076
F2    F     F_    0.742462 0.582399 0.167885 -0.622857
F3    F     F_    0.911045 0.840551 0.143697 -0.626877
F4    F     F_    0.235666 0.651601 0.270971 -0.641839
H1    H     H_    0.732653 0.579347 0.314668 0.173465
H2    H     H_    0.068800 0.610438 0.658962 0.248289
H3    H     H_    0.152986 0.685097 0.727184 0.234223
H4    H     H_    0.130675 0.632208 0.846544 0.242536
H5    H     H_    0.009158 0.592273 0.784456 0.223422
H6    H     H_    0.760523 0.779906 0.640504 0.232498
H7    H     H_    0.824817 0.802364 0.737210 0.225465
H8    H     H_    0.739083 0.099719 0.627638 0.278799
H9    H     H_    0.670522 0.246261 0.696979 0.223542
H10   H     H_    0.842349 0.010560 0.031313 0.276027
H11   H     H_    0.686389 0.070543 0.069100 0.254747
H12   H     H_    0.725085 0.925058 0.251112 0.171105
H13   H     H_    0.946465 0.029998 0.424747 0.259409
H14   H     H_    0.096213 0.023609 0.402158 0.243679
H15   H     H_    0.323362 0.585773 0.084319 0.215899
H16   H     H_    0.182120 0.629806 0.132607 0.326839
H17   H     H_    0.562465 0.829949 0.729862 0.133270
H18   H     H_    0.998023 0.863252 0.296021 0.210383
H19   H     H_    0.581312 0.865095 0.143276 0.205437
H20   H     H_    0.765145 0.860389 0.437440 0.217348
H21   H     H_    0.659693 0.037906 0.447896 0.267173
H22   H     H_    0.526555 0.936231 0.484001 0.244198
H23   H     H_    0.405878 0.091864 0.445330 0.258668
N1    N     N_3   0.713144 0.951894 0.406604 -0.633621
N2    N     N_3   0.441940 0.982151 0.438807 -0.609760
N3    N     N_3   0.169200 0.602684 0.681625 -0.586556
N4    N     N_3   0.103938 0.551438 0.823806 -0.586993
N5    N     N_3   0.774375 0.853305 0.684766 -0.615427
N6    N     N_3   0.709649 0.136755 0.685716 -0.558781
N7    N     N_3   0.770252 0.092569 0.068388 -0.572175
N8    N     N_3   0.984234 0.083042 0.397959 -0.590927
N9    N     N_3   0.237029 0.671654 0.111237 -0.532810
O1    O     O_R   0.749810 0.499790 0.438040 -0.531579
O2    O     O_R   0.411730 0.181020 0.091530 -0.535706
O3    O     O_R   0.365010 0.944360 0.063320 -0.529268
O4    O     O_R   0.477660 0.726260 0.439290 -0.487954
O5    O     O_R   0.159380 0.906670 0.876210 -0.517803
O6    O     O_R   0.930820 0.177420 0.886730 -0.474610
O7    O     O_R   0.910360 0.395420 0.895720 -0.511530
O8    O     O_R   0.186010 0.361730 0.919870 -0.477011
O9    O     O_R   0.400000 0.173010 0.914630 -0.509743
O10   O     O_R   0.354140 0.936940 0.899340 -0.470330
O11   O     O_3   0.162410 0.162370 0.983930 -0.309705
O12   O     O_R   0.298970 0.468800 0.557390 -0.468029
O13   O     O_R   0.260150 0.743000 0.412270 -0.466355
O14   O     O_R   0.297740 0.466550 0.394720 -0.439685
O15   O     O_R   0.488080 0.253500 0.386430 -0.538433
O16   O     O_R   0.722670 0.303800 0.421940 -0.460110
O17   O     O_R   0.751130 0.502220 0.613520 -0.525492
O18   O     O_R   0.478890 0.728510 0.601960 -0.503950
O19   O     O_R   0.261470 0.745430 0.587750 -0.471435
O20   O     O_R   0.489400 0.255930 0.561910 -0.552629
O21   O     O_R   0.723890 0.306050 0.584610 -0.535387
O22   O     O_3   0.500010 0.500010 0.500020 -0.302401
O23   O     O_R   0.171100 0.914680 0.053100 -0.471818
O24   O     O_R   0.941680 0.184840 0.050710 -0.502017
O25   O     O_R   0.922080 0.403420 0.072610 -0.422902
O26   O     O_R   0.196880 0.369150 0.083850 -0.480635

loop_
_geom_bond_atom_site_label_1
_geom_bond_atom_site_label_2
_ccdc_geom_bond_type
Cr2   O14   S    
Cr3   O22   S    
H14   N8    S    
C27   C29   T    
C11   C13   A    
C41   C42   T    
Cr6   O11   S    
C19   C20   A    
C18   C26   A    
H7    N5    S    
Cr1   O17   S    
C45   C46   A    
C5    C9    A    
C29   C36   S    
C33   C42   S    
H15   N9    S    
C12   C43   A    
C30   C31   T    
Cr5   O8    S    
C26   C39   S    
C4    C41   S    
C25   N6    S    
Cr4   O5    S    
C19   C26   A    
H20   N1    S    
C15   C37   S    
Cr6   O3    S    
C7    C14   A    
Cr5   O11   S    
C1    O4    A    
H13   N8    S    
C38   O5    A    
Cr4   O6    S    
C36   O7    A    
Cr1   O4    S    
C40   O21   A    
C2    C16   S    
C9    C10   A    
C1    O13   A    
C7    F4    S    
Cr5   O26   S    
C16   O16   A    
C2    C34   A    
Cr2   O13   S    
C21   C22   A    
H5    N4    S    
Cr6   O10   S    
C18   C25   A    
C22   H17   S    
Cr1   O1    S    
H22   N2    S    
H6    N5    S    
C37   O8    A    
H23   N2    S    
Cr1   O18   S    
C35   O3    A    
C11   N1    S    
C15   C20   A    
H4    N4    S    
Cr4   O11   S    
C7    C8    A    
C45   N7    S    
C34   C44   A    
C24   C25   A    
C38   O10   A    
C3    C8    A    
C33   O2    A    
H8    N6    S    
C21   F1    S    
Cr5   O7    S    
Cr4   O23   S    
Cr2   O19   S    
C17   C21   A    
C43   C44   A    
Cr6   O2    S    
C6    C14   A    
C36   O6    A    
C47   C48   A    
C12   C23   A    
C3    C35   S    
C27   C40   S    
Cr3   O15   S    
C20   N4    S    
Cr2   O22   S    
C17   C18   A    
C9    H19   S    
H11   N7    S    
Cr1   O22   S    
C10   H12   S    
Cr2   O12   S    
Cr3   O20   S    
C48   N8    S    
C40   O17   A    
C46   F3    S    
C34   H1    S    
H10   N7    S    
C22   C24   A    
Cr6   O9    S    
C39   O20   A    
C8    N9    S    
C19   N3    S    
C37   O9    A    
C39   O12   A    
C15   C17   A    
C46   C47   A    
C33   O26   A    
Cr3   O21   S    
C23   C48   A    
C12   C45   A    
C3    C5    A    
H3    N3    S    
C47   H18   S    
H21   N1    S    
Cr4   O24   S    
C28   O19   A    
C4    O15   A    
C13   N2    S    
H9    N6    S    
C31   C38   S    
H16   N9    S    
C28   C30   S    
C6    C13   A    
C44   F2    S    
H2    N3    S    
C5    C6    A    
C28   O18   A    
Cr3   O16   S    
C4    O14   A    
C32   C43   S    
C35   O23   A    
C32   O25   A    
C10   C11   A    
C16   O1    A    
C2    C23   A    
C1    C14   S    
C32   O24   A    
C24   N5    S    
Cr5   O25   S    
