data_mof_unit_61102.cif
_audit_creation_date              2012-12-11T14:22:53-0500
_audit_creation_method            fapswitch 2.2
_symmetry_space_group_name_H-M    P1
_symmetry_Int_Tables_number       1
_space_group_crystal_system       triclinic
_cell_length_a                    16.926565
_cell_length_b                    6.94793
_cell_length_c                    15.346254
_cell_angle_alpha                 89.986433
_cell_angle_beta                  93.476856
_cell_angle_gamma                 89.984411
_cell_volume                      1801.467828

loop_
_atom_site_label
_atom_site_type_symbol
_atom_type_description
_atom_site_fract_x
_atom_site_fract_y
_atom_site_fract_z
_atom_type_partial_charge
O1    O     O_R   0.414560 0.494300 0.417030 -0.537067
O2    O     O_R   0.585440 0.994300 0.582970 -0.537077
O3    O     O_R   0.577160 0.822630 0.413790 -0.539108
O4    O     O_R   0.422840 0.322630 0.586210 -0.540394
C1    C     C_R   0.604252 0.655199 0.393257 0.730284
C2    C     C_R   0.395746 0.155204 0.606740 0.725774
O5    O     O_R   0.414660 0.823920 0.406630 -0.533388
O6    O     O_R   0.585340 0.323920 0.593370 -0.533806
O7    O     O_R   0.421790 0.995650 0.575760 -0.536450
O8    O     O_R   0.578210 0.495650 0.424240 -0.537549
C3    C     C_R   0.388005 0.654640 0.383827 0.798443
C4    C     C_R   0.613937 0.154917 0.613687 0.798241
O9    O     O_3   0.502530 0.661260 0.555500 -0.372748
O10   O     O_3   0.497470 0.161260 0.444500 -0.370016
V1    V     V_3+5 0.499530 0.935570 0.489700 1.477681
V2    V     V_3+5 0.500470 0.435570 0.510300 1.473935
C5    C     C_2   0.784333 0.273774 0.784595 0.179200
C6    C     C_2   0.218439 0.772403 0.212164 0.183654
C7    C     C_2   0.812932 0.115673 0.828088 -0.382740
C8    C     C_2   0.171653 0.618481 0.190983 -0.384389
H1    H     H_    0.778209 0.984474 0.825201 0.115654
H2    H     H_    0.174651 0.493342 0.233357 0.112732
C9    C     C_2   0.705867 0.269390 0.734947 0.177775
C10   C     C_2   0.271637 0.771849 0.293130 0.179684
C11   C     C_2   0.688281 0.142043 0.669221 0.008348
C12   C     C_2   0.330298 0.639759 0.307858 0.008120
C13   C     C_1   0.166456 0.119198 0.831377 -0.194307
C14   C     C_1   0.833554 0.619223 0.168637 -0.193368
C15   C     C_1   0.218941 0.127483 0.780122 0.007248
C16   C     C_1   0.781067 0.627505 0.219889 0.007487
C17   C     C_1   0.280890 0.137426 0.719956 0.007009
C18   C     C_1   0.719112 0.637433 0.280047 0.009853
C19   C     C_1   0.333372 0.145744 0.668697 -0.188334
C20   C     C_1   0.666627 0.645738 0.331301 -0.182172
O11   O     O_R   0.921850 0.770730 0.075840 -0.534094
O12   O     O_R   0.078150 0.270730 0.924160 -0.532933
O13   O     O_R   0.085350 0.439650 0.093390 -0.542887
O14   O     O_R   0.914650 0.939650 0.906610 -0.541966
C21   C     C_R   0.112173 0.609229 0.116212 0.763088
C22   C     C_R   0.886064 0.108955 0.886085 0.762239
O15   O     O_R   0.922860 0.441090 0.086230 -0.537192
O16   O     O_R   0.077140 0.941090 0.913770 -0.536907
O17   O     O_R   0.914540 0.269530 0.917020 -0.541447
O18   O     O_R   0.085460 0.769530 0.082980 -0.540747
C23   C     C_R   0.895931 0.609824 0.106683 0.718097
C24   C     C_R   0.104074 0.109814 0.893326 0.721973
O19   O     O_3   0.997510 0.602520 0.944550 -0.371296
O20   O     O_3   0.002490 0.102520 0.055450 -0.372658
V3    V     V_3+5 0.000460 0.328160 0.010290 1.409859
V4    V     V_3+5 0.999540 0.828160 0.989710 1.410757
N1    N     N_3   0.825321 0.454992 0.787697 -0.665104
H3    H     H_    0.883171 0.434590 0.769187 0.239843
H4    H     H_    0.826014 0.510322 0.851053 0.246176
N2    N     N_3   0.216506 0.945893 0.161077 -0.664809
H5    H     H_    0.161515 0.012647 0.165067 0.249980
H6    H     H_    0.225904 0.911866 0.096147 0.233034
N3    N     N_3   0.648930 0.413484 0.755213 -0.667484
H7    H     H_    0.639287 0.402612 0.821674 0.219895
H8    H     H_    0.673403 0.548910 0.744420 0.251687
N4    N     N_3   0.262297 0.923932 0.355068 -0.672619
H9    H     H_    0.270930 0.055274 0.323823 0.251938
H10   H     H_    0.203900 0.920544 0.373612 0.218382
N5    N     N_3   0.743932 0.998086 0.644717 -0.688830
H11   H     H_    0.747550 0.888881 0.691442 0.239380
H12   H     H_    0.799572 0.060507 0.638921 0.241558
N6    N     N_3   0.343284 0.487139 0.246982 -0.683592
H13   H     H_    0.344999 0.543908 0.184015 0.241715
H14   H     H_    0.297746 0.386366 0.248695 0.236756

loop_
_geom_bond_atom_site_label_1
_geom_bond_atom_site_label_2
_ccdc_geom_bond_type
O4    V2    S    
N6    H14   S    
C17   C19   T    
N2    H6    S    
O12   C24   A    
C21   O18   A    
O14   V4    S    
C13   C15   T    
C8    H2    S    
O13   V3    S    
O1    C3    A    
C2    C19   S    
C10   N4    S    
C4    C11   S    
O6    C4    A    
O2    C4    A    
C1    C20   S    
C5    N1    S    
C2    O7    A    
O20   V4    S    
N6    H13   S    
O7    V1    S    
C1    O8    A    
C15   C17   S    
O1    V2    S    
O8    V2    S    
N4    H10   S    
O5    C3    A    
O2    V1    S    
C18   C20   T    
N3    H7    S    
C5    C9    S    
O11   V4    S    
C6    C10   S    
C13   C24   S    
C14   C16   T    
O20   V3    S    
O14   C22   A    
O19   V3    S    
O19   V4    S    
C6    C8    D    
C9    C11   D    
O9    V1    S    
O16   C24   A    
O10   V1    S    
N5    H12   S    
O10   V2    S    
C14   C23   S    
N3    H8    S    
O4    C2    A    
C7    C22   S    
C6    N2    S    
N1    H4    S    
N5    H11   S    
C16   C18   S    
C3    C12   S    
O13   C21   A    
O3    V1    S    
O6    V2    S    
C11   N5    S    
O9    V2    S    
O18   V4    S    
C9    N3    S    
C8    C21   S    
O15   C23   A    
N2    H5    S    
O17   V3    S    
O5    V1    S    
O16   V4    S    
C5    C7    D    
O11   C23   A    
C7    H1    S    
O15   V3    S    
C22   O17   A    
O12   V3    S    
N1    H3    S    
C10   C12   D    
N4    H9    S    
O3    C1    A    
C12   N6    S    
