data_mof_unit_21762.cif
_audit_creation_date              2012-12-11T15:39:28-0500
_audit_creation_method            fapswitch 2.2
_symmetry_space_group_name_H-M    P1
_symmetry_Int_Tables_number       1
_space_group_crystal_system       triclinic
_cell_length_a                    17.456938
_cell_length_b                    24.411267
_cell_length_c                    15.182128
_cell_angle_alpha                 89.54446
_cell_angle_beta                  126.284175
_cell_angle_gamma                 90.779467
_cell_volume                      5214.77205848

loop_
_atom_site_label
_atom_site_type_symbol
_atom_type_description
_atom_site_fract_x
_atom_site_fract_y
_atom_site_fract_z
_atom_type_partial_charge
C1    C     C_R   0.351683 0.347025 0.911111 0.036663
C2    C     C_R   0.452460 0.499675 0.646064 -0.040927
C3    C     C_R   0.181020 0.856252 0.001946 -0.012105
C4    C     C_R   0.295731 0.327054 0.797205 0.076114
C5    C     C_R   0.331685 0.331478 0.735662 -0.134743
C6    C     C_R   0.278155 0.312665 0.627808 -0.091033
C7    C     C_R   0.188163 0.289452 0.580451 -0.065626
C8    C     C_R   0.151151 0.285653 0.640502 -0.096407
C9    C     C_R   0.203947 0.305051 0.747874 -0.213377
C10   C     C_R   0.749964 0.347222 0.203545 0.089309
C11   C     C_R   0.712419 0.318233 0.250537 -0.194814
C12   C     C_R   0.773052 0.295843 0.355074 -0.082938
C13   C     C_R   0.982821 0.997707 0.305215 -0.051326
C14   C     C_R   0.871381 0.301981 0.412969 -0.081769
C15   C     C_R   0.909358 0.329844 0.365818 -0.116813
C16   C     C_R   0.848898 0.352029 0.260890 -0.124630
C17   C     C_R   0.795727 0.827054 0.797205 0.076116
C18   C     C_R   0.831675 0.831483 0.735656 -0.134734
C19   C     C_R   0.778143 0.812670 0.627802 -0.091035
C20   C     C_R   0.688155 0.789452 0.580451 -0.065624
C21   C     C_R   0.651149 0.785649 0.640507 -0.096415
C22   C     C_R   0.703946 0.805047 0.747879 -0.213380
C23   C     C_R   0.249967 0.847231 0.203561 0.089255
C24   C     C_R   0.952472 0.999674 0.646074 -0.040925
C25   C     C_R   0.212437 0.818247 0.250575 -0.194869
C26   C     C_R   0.273082 0.795872 0.355124 -0.082955
C27   C     C_R   0.371408 0.802021 0.413007 -0.081801
C28   C     C_R   0.409371 0.829878 0.365835 -0.116800
C29   C     C_R   0.348899 0.852049 0.260896 -0.124618
C30   C     C_2   0.889473 0.654803 0.494077 1.072409
C31   C     C_2   0.095025 0.592874 0.520984 1.062645
C32   C     C_2   0.389476 0.154806 0.494073 1.072411
C33   C     C_2   0.595024 0.092872 0.520977 1.062647
C34   C     C_2   0.658824 0.497580 0.523897 1.045023
C35   C     C_R   0.173574 0.501377 0.717603 0.034291
C36   C     C_2   0.642059 0.496334 0.703412 1.053978
C37   C     C_2   0.158897 0.997597 0.523980 1.045018
C38   C     C_2   0.142083 0.996331 0.703469 1.054067
C39   C     C_2   0.535717 0.597733 0.331325 0.961602
C40   C     C_2   0.420452 0.600422 0.652330 0.933868
C41   C     C_2   0.035780 0.097734 0.331364 0.961489
C42   C     C_2   0.920455 0.100421 0.652329 0.933849
C43   C     C_R   0.798365 0.502483 0.370188 0.081498
C44   C     C_R   0.673573 0.001378 0.717599 0.034296
C45   C     C_R   0.298364 0.002485 0.370189 0.081551
C46   C     C_R   0.023185 0.553536 0.613598 0.094735
C47   C     C_R   0.926645 0.554597 0.532588 0.098396
C48   C     C_R   0.523186 0.053538 0.613595 0.094699
C49   C     C_R   0.685553 0.370543 0.093074 0.034310
C50   C     C_R   0.426646 0.054600 0.532587 0.098380
C51   C     C_R   0.070843 0.503939 0.658416 0.067451
C52   C     C_R   0.877205 0.505120 0.486158 0.052420
C53   C     C_R   0.570843 0.003941 0.658413 0.067461
C54   C     C_R   0.377203 0.005123 0.486159 0.052545
C55   C     C_R   0.015628 0.456126 0.633279 -0.191457
C56   C     C_R   0.918704 0.456605 0.546528 -0.139240
C57   C     C_R   0.515627 0.956129 0.633279 -0.191486
C58   C     C_R   0.418702 0.956608 0.546531 -0.139290
C59   C     C_3   0.935260 0.605906 0.482954 -0.400674
C60   C     C_R   0.851682 0.847025 0.911111 0.036662
C61   C     C_3   0.042021 0.603510 0.569737 -0.392096
C62   C     C_3   0.435261 0.105907 0.482951 -0.400677
C63   C     C_3   0.542022 0.103510 0.569732 -0.392081
C64   C     C_R   0.327718 0.774397 0.951802 -0.164191
C65   C     C_R   0.830661 0.697641 0.114960 -0.151755
C66   C     C_R   0.827850 0.274414 0.951977 -0.164169
C67   C     C_R   0.330664 0.197639 0.114959 -0.151759
C68   C     C_R   0.780600 0.318831 0.953913 -0.165976
C69   C     C_R   0.375177 0.243649 0.112237 -0.156111
C70   C     C_R   0.280452 0.818804 0.953737 -0.166012
C71   C     C_R   0.185543 0.870533 0.093075 0.034330
C72   C     C_R   0.875172 0.743651 0.112237 -0.156114
C73   C     C_R   0.731284 0.312085 0.999485 0.125030
C74   C     C_R   0.362826 0.258585 0.015372 0.123089
C75   C     C_R   0.231279 0.812073 0.999487 0.125021
C76   C     C_R   0.862824 0.758586 0.015373 0.123093
C77   C     C_R   0.436694 0.649560 0.089495 -0.128631
C78   C     C_R   0.603118 0.623567 0.913987 -0.030610
C79   C     C_R   0.936662 0.149550 0.089495 -0.128543
C80   C     C_R   0.103117 0.123567 0.913987 -0.030578
C81   C     C_R   0.724966 0.261689 0.038812 -0.139029
C82   C     C_R   0.372130 0.678606 0.997647 0.003753
C83   C     C_R   0.321979 0.220437 0.929558 -0.170648
C84   C     C_R   0.225111 0.761694 0.038980 -0.139046
C85   C     C_R   0.821982 0.720437 0.929562 -0.170633
C86   C     C_R   0.273682 0.718258 0.039576 -0.155440
C87   C     C_R   0.771437 0.675721 0.929339 -0.147633
C88   C     C_R   0.773509 0.218239 0.039391 -0.155395
C89   C     C_R   0.271434 0.175722 0.929336 -0.147612
C90   C     C_R   0.325012 0.725023 0.996867 0.131802
C91   C     C_R   0.769280 0.667293 0.019163 0.134177
C92   C     C_R   0.824974 0.225015 0.996853 0.131790
C93   C     C_R   0.692996 0.635821 0.009193 0.003346
C94   C     C_R   0.269280 0.167293 0.019162 0.134178
C95   C     C_R   0.381113 0.496825 0.455446 -0.103510
C96   C     C_R   0.389048 0.494140 0.371304 -0.119455
C97   C     C_R   0.881161 0.996815 0.455475 -0.103484
C98   C     C_R   0.889114 0.994129 0.371348 -0.119547
C99   C     C_R   0.479021 0.494145 0.394921 0.081783
C100  C     C_R   0.463354 0.499216 0.561667 0.097976
C101  C     C_R   0.979092 0.994146 0.394982 0.081816
C102  C     C_R   0.963389 0.999215 0.561698 0.097936
C103  C     C_R   0.563596 0.495375 0.502170 -0.147907
C104  C     C_R   0.872088 0.178593 0.997644 0.003699
C105  C     C_R   0.555513 0.497794 0.587900 -0.141914
C106  C     C_R   0.063660 0.995383 0.502236 -0.147927
C107  C     C_R   0.055556 0.997801 0.587951 -0.141902
C108  C     C_R   0.496417 0.452496 0.263358 -0.050021
C109  C     C_R   0.461761 0.453999 0.703808 -0.153874
C110  C     C_R   0.996459 0.952495 0.263397 -0.049990
C111  C     C_R   0.961768 0.953998 0.703813 -0.153880
C112  C     C_R   0.232764 0.546324 0.750878 -0.084763
C113  C     C_R   0.750628 0.546546 0.304524 -0.139458
C114  C     C_R   0.732763 0.046324 0.750874 -0.084767
C115  C     C_R   0.192995 0.135821 0.009192 0.003346
C116  C     C_R   0.250628 0.046547 0.304523 -0.139450
C117  C     C_R   0.505694 0.544781 0.273548 -0.073606
C118  C     C_R   0.456437 0.545565 0.700150 0.001622
C119  C     C_R   0.005741 0.044781 0.273589 -0.073534
C120  C     C_R   0.956442 0.045565 0.700153 0.001640
C121  C     C_R   0.228996 0.455078 0.744481 -0.116009
C122  C     C_R   0.752600 0.456287 0.307550 -0.074083
C123  C     C_R   0.728995 0.955078 0.744479 -0.116015
C124  C     C_R   0.252598 0.956290 0.307553 -0.074041
C125  C     C_R   0.347146 0.649994 0.907430 -0.104098
C126  C     C_R   0.482749 0.497708 0.305150 -0.051440
C127  C     C_R   0.691579 0.622547 0.096425 -0.111329
C128  C     C_R   0.847127 0.149988 0.907428 -0.104125
C129  C     C_R   0.191579 0.122548 0.096425 -0.111321
C130  C     C_R   0.443480 0.349054 0.092769 -0.177614
C131  C     C_R   0.595352 0.372832 0.909546 -0.136299
C132  C     C_R   0.943479 0.849054 0.092769 -0.177599
C133  C     C_R   0.095338 0.872817 0.909544 -0.136321
C134  C     C_R   0.382794 0.315844 0.004279 0.003362
C135  C     C_R   0.681042 0.356274 0.001947 -0.012128
C136  C     C_R   0.882792 0.815844 0.004280 0.003370
H1    H     H_    0.913752 0.600440 0.398374 0.153613
H2    H     H_    0.410134 0.270028 0.183078 0.120920
H3    H     H_    0.282309 0.857905 0.920722 0.141539
H4    H     H_    0.910126 0.770031 0.183076 0.120915
H5    H     H_    0.682486 0.256069 0.068888 0.131977
H6    H     H_    0.323076 0.226598 0.859922 0.157212
H7    H     H_    0.182717 0.756074 0.069165 0.132023
H8    H     H_    0.823082 0.726598 0.859927 0.157214
H9    H     H_    0.270128 0.679160 0.071526 0.136711
H10   H     H_    0.729573 0.650312 0.857051 0.160463
H11   H     H_    0.769839 0.179123 0.071210 0.136666
H12   H     H_    0.071797 0.638485 0.628089 0.158408
H13   H     H_    0.229568 0.150314 0.857046 0.160453
H14   H     H_    0.311331 0.497200 0.438258 0.128156
H15   H     H_    0.325380 0.493428 0.287726 0.123794
H16   H     H_    0.811375 0.997183 0.438274 0.128155
H17   H     H_    0.825454 0.993409 0.287768 0.123795
H18   H     H_    0.476079 0.664664 0.171834 0.140561
H19   H     H_    0.581010 0.629482 0.831727 0.115934
H20   H     H_    0.976030 0.164652 0.171834 0.140566
H21   H     H_    0.081009 0.129483 0.831727 0.115926
H22   H     H_    0.494805 0.409928 0.282422 0.110745
H23   H     H_    0.413751 0.100440 0.398369 0.153605
H24   H     H_    0.452751 0.411842 0.677826 0.102615
H25   H     H_    0.994856 0.909927 0.282469 0.110701
H26   H     H_    0.952764 0.911841 0.677835 0.102606
H27   H     H_    0.214398 0.588509 0.746506 0.105409
H28   H     H_    0.753570 0.587800 0.331062 0.158497
H29   H     H_    0.714396 0.088509 0.746498 0.105407
H30   H     H_    0.253572 0.087802 0.331057 0.158515
H31   H     H_    0.203758 0.413643 0.728594 0.123107
H32   H     H_    0.759559 0.416009 0.340273 0.125426
H33   H     H_    0.703757 0.913644 0.728593 0.123108
H34   H     H_    0.571800 0.138486 0.628082 0.158409
H35   H     H_    0.259551 0.916014 0.340283 0.125435
H36   H     H_    0.304898 0.664376 0.823833 0.138520
H37   H     H_    0.748769 0.625640 0.182253 0.122346
H38   H     H_    0.804884 0.164374 0.823834 0.138539
H39   H     H_    0.248769 0.125642 0.182253 0.122346
H40   H     H_    0.491301 0.336601 0.177156 0.099710
H41   H     H_    0.566662 0.363302 0.825957 0.115529
H42   H     H_    0.991300 0.836601 0.177157 0.099698
H43   H     H_    0.066645 0.863285 0.825954 0.115504
H44   H     H_    0.048314 0.417300 0.670942 0.125484
H45   H     H_    0.366901 0.778426 0.917280 0.132497
H46   H     H_    0.880781 0.417865 0.519230 0.139668
H47   H     H_    0.548312 0.917303 0.670943 0.125491
H48   H     H_    0.380777 0.917869 0.519235 0.139668
H49   H     H_    0.401198 0.348846 0.771035 0.111755
H50   H     H_    0.306690 0.315836 0.581147 0.111470
H51   H     H_    0.147096 0.274462 0.497255 0.106521
H52   H     H_    0.081786 0.267432 0.604106 0.123092
H53   H     H_    0.173990 0.302339 0.793127 0.132133
H54   H     H_    0.636511 0.312786 0.206093 0.121371
H55   H     H_    0.743807 0.273842 0.391290 0.130544
H56   H     H_    0.835199 0.691201 0.188344 0.140473
H57   H     H_    0.917852 0.285015 0.494218 0.110605
H58   H     H_    0.985551 0.334385 0.410617 0.119305
H59   H     H_    0.878928 0.373613 0.225092 0.122585
H60   H     H_    0.901185 0.848855 0.771024 0.111756
H61   H     H_    0.806673 0.815844 0.581136 0.111465
H62   H     H_    0.647087 0.774462 0.497254 0.106524
H63   H     H_    0.581787 0.767423 0.604116 0.123104
H64   H     H_    0.673994 0.802333 0.793136 0.132135
H65   H     H_    0.136531 0.812792 0.206139 0.121385
H66   H     H_    0.243849 0.773875 0.391356 0.130540
H67   H     H_    0.867153 0.278457 0.917600 0.132492
H68   H     H_    0.417888 0.785067 0.494266 0.110584
H69   H     H_    0.485562 0.834427 0.410627 0.119315
H70   H     H_    0.378918 0.873628 0.225081 0.122597
H71   H     H_    0.805861 0.720656 0.420888 0.318458
H72   H     H_    0.197287 0.618263 0.506263 0.331716
H73   H     H_    0.305866 0.220659 0.420883 0.318454
H74   H     H_    0.697286 0.118258 0.506253 0.331716
H75   H     H_    0.786896 0.535185 0.601968 0.332290
H76   H     H_    0.766122 0.459457 0.816062 0.322744
H77   H     H_    0.287015 0.035154 0.602199 0.332300
H78   H     H_    0.335206 0.191198 0.188346 0.140476
H79   H     H_    0.266130 0.959453 0.816119 0.322751
H80   H     H_    0.627592 0.661694 0.388295 0.327734
H81   H     H_    0.371785 0.672904 0.662161 0.330311
H82   H     H_    0.127634 0.161703 0.388266 0.327722
H83   H     H_    0.871785 0.172903 0.662152 0.330319
H84   H     H_    0.782586 0.357951 0.921041 0.141475
N1    N     N_R   0.394180 0.396910 0.943210 -0.062767
N2    N     N_R   0.474350 0.471570 0.793850 -0.043109
N3    N     N_R   0.025650 0.971570 0.206150 -0.046782
N4    N     N_R   0.974350 0.971570 0.793850 -0.043102
N5    N     N_R   0.319480 0.528420 0.793810 -0.038505
N6    N     N_R   0.680520 0.528420 0.206190 -0.044145
N7    N     N_R   0.819480 0.028420 0.793810 -0.038507
N8    N     N_R   0.180520 0.028420 0.206190 -0.044142
N9    N     N_R   0.525640 0.528390 0.206120 -0.058908
N10   N     N_R   0.474360 0.528390 0.793880 -0.056059
N11   N     N_R   0.025640 0.028390 0.206120 -0.058907
N12   N     N_R   0.605820 0.396910 0.056790 -0.062135
N13   N     N_R   0.974360 0.028390 0.793880 -0.056050
N14   N     N_R   0.319490 0.471590 0.793840 -0.051080
N15   N     N_R   0.680510 0.471590 0.206160 -0.051838
N16   N     N_R   0.819490 0.971590 0.793840 -0.051084
N17   N     N_R   0.180510 0.971590 0.206160 -0.051844
N18   N     N_R   0.394130 0.603080 0.943110 -0.041899
N19   N     N_R   0.605870 0.603080 0.056890 -0.044071
N20   N     N_R   0.894130 0.103080 0.943110 -0.041904
N21   N     N_R   0.105870 0.103080 0.056890 -0.044069
N22   N     N_R   0.450990 0.396900 0.056840 -0.049898
N23   N     N_R   0.894180 0.896910 0.943210 -0.062771
N24   N     N_R   0.549010 0.396900 0.943160 -0.057753
N25   N     N_R   0.950990 0.896900 0.056840 -0.049904
N26   N     N_R   0.049010 0.896900 0.943160 -0.057739
N27   N     N_R   0.105820 0.896910 0.056790 -0.062129
N28   N     N_R   0.450950 0.603070 0.056740 -0.048859
N29   N     N_R   0.549050 0.603070 0.943260 -0.034390
N30   N     N_R   0.950950 0.103070 0.056740 -0.048857
N31   N     N_R   0.049050 0.103070 0.943260 -0.034396
N32   N     N_R   0.525650 0.471570 0.206150 -0.046781
Ni1   Ni    Ni4+2 0.434860 0.434850 0.869700 0.208353
Ni2   Ni    Ni4+2 0.565140 0.434850 0.130300 0.216564
Ni3   Ni    Ni4+2 0.934860 0.934850 0.869700 0.208356
Ni4   Ni    Ni4+2 0.065140 0.934850 0.130300 0.216562
Ni5   Ni    Ni4+2 0.565130 0.565140 0.130240 0.260581
Ni6   Ni    Ni4+2 0.434870 0.565140 0.869760 0.274542
Ni7   Ni    Ni4+2 0.065130 0.065140 0.130240 0.260602
Ni8   Ni    Ni4+2 0.934870 0.065140 0.869760 0.274547
O1    O     O_2   0.900873 0.664049 0.580271 -0.629034
O2    O     O_R   0.725032 0.537713 0.593747 -0.771047
O3    O     O_2   0.653506 0.530070 0.769442 -0.656789
O4    O     O_R   0.710711 0.456377 0.735935 -0.806369
O5    O     O_2   0.179318 0.964449 0.481189 -0.663935
O6    O     O_R   0.225151 0.037678 0.593975 -0.771051
O7    O     O_2   0.153515 0.030055 0.769514 -0.656802
O8    O     O_R   0.210736 0.956377 0.735986 -0.806404
O9    O     O_2   0.496029 0.615503 0.369602 -0.612435
O10   O     O_R   0.612227 0.626436 0.345714 -0.815682
O11   O     O_2   0.411025 0.613848 0.568689 -0.615520
O12   O     O_R   0.833520 0.689504 0.404530 -0.826165
O13   O     O_R   0.395642 0.636665 0.702231 -0.815026
O14   O     O_2   0.996137 0.115498 0.369699 -0.612433
O15   O     O_R   0.112254 0.126445 0.345680 -0.815720
O16   O     O_2   0.911028 0.113844 0.568687 -0.615530
O17   O     O_R   0.895643 0.136665 0.702226 -0.815017
O18   O     O_2   0.075478 0.552872 0.462784 -0.640103
O19   O     O_R   0.166681 0.629389 0.542942 -0.804328
O20   O     O_2   0.400878 0.164053 0.580267 -0.629051
O21   O     O_R   0.333523 0.189507 0.404525 -0.826160
O22   O     O_2   0.575475 0.052870 0.462777 -0.640104
O23   O     O_R   0.666681 0.129386 0.542933 -0.804319
O24   O     O_2   0.679275 0.464379 0.481218 -0.663848

loop_
_geom_bond_atom_site_label_1
_geom_bond_atom_site_label_2
_ccdc_geom_bond_type
C127  H37   S    
H72   O19   S    
C40   C118  S    
C55   C56   A    
C33   O23   S    
C2    C109  A    
N20   N30   A    
H82   O15   S    
C43   C52   S    
C87   H10   S    
C87   C91   A    
N19   N29   A    
N6    N15   A    
C55   H44   S    
C31   C61   S    
N17   Ni4   S    
C99   C103  A    
C95   C96   A    
N21   N31   A    
C71   N27   A    
N29   Ni6   S    
C72   C76   A    
C42   C120  S    
C11   H54   S    
C97   C98   A    
C131  H41   S    
N8    Ni7   S    
N23   Ni3   S    
C7    C8    A    
C51   C55   A    
C8    H52   S    
C127  N19   A    
N7    N16   A    
C111  H26   S    
C100  C105  A    
C13   C110  A    
C56   H46   S    
C116  N8    A    
H74   O23   S    
C23   C29   A    
C7    H51   S    
C28   C29   A    
C68   H84   S    
C61   H12   S    
C84   C86   A    
N5    Ni6   S    
C25   H65   S    
C131  N24   A    
C54   C58   A    
C5    C6    A    
C77   H18   S    
C94   C115  S    
C132  N25   A    
C40   O11   D    
C108  H22   S    
N26   Ni3   S    
C59   H1    S    
C78   C93   A    
C15   C16   A    
C96   C99   A    
C74   C134  S    
C89   C94   A    
H73   O21   S    
N6    Ni5   S    
C1    N1    A    
C18   C19   A    
C109  H24   S    
C73   C81   A    
C38   C107  S    
C125  H36   S    
C31   O18   D    
C38   O8    S    
C77   C82   A    
C114  N7    A    
N26   N27   A    
C15   H58   S    
C44   C53   S    
C97   H16   S    
C6    C7    A    
C88   C92   A    
C8    C9    A    
N23   N25   A    
C80   N31   A    
C78   H19   S    
C67   C94   A    
C62   H23   S    
C65   H56   S    
C5    H49   S    
N13   Ni8   S    
C3    C75   S    
C117  C126  A    
H79   O8    S    
C113  N6    A    
C97   C102  A    
C41   O15   S    
C39   O10   S    
C119  N11   A    
C133  N26   A    
C111  N4    A    
C27   C28   A    
C42   O16   D    
N27   Ni4   S    
C68   C73   A    
C48   C50   A    
C122  N15   A    
C79   H20   S    
C98   H17   S    
C2    C100  S    
C70   H3    S    
C21   C22   A    
C28   H69   S    
C116  H30   S    
C130  C134  A    
C24   C111  A    
C41   C119  S    
C21   H63   S    
C9    H53   S    
C110  N3    A    
N3    Ni4   S    
C85   H8    S    
H80   O10   S    
C13   C119  A    
C110  H25   S    
N3    N11   A    
N10   Ni6   S    
C99   C126  S    
C57   C58   A    
N1    N22   A    
C85   C87   A    
C45   C124  A    
C2    C118  A    
C48   C53   A    
C83   C89   A    
N25   Ni4   S    
N1    Ni1   S    
C89   H13   S    
C59   C61   S    
C47   C59   S    
C19   H61   S    
C66   C68   A    
C34   O2    S    
C24   C120  A    
C18   H60   S    
C27   H68   S    
C81   C88   A    
C36   O3    D    
C23   C71   S    
C64   C90   A    
C35   C121  A    
C101  C106  A    
C122  H32   S    
C86   C90   A    
C42   O17   S    
C53   C57   A    
C95   C100  A    
C133  H43   S    
C48   C63   S    
C66   C92   A    
C46   C61   S    
C84   H7    S    
C130  H40   S    
C25   C26   A    
C39   C117  S    
C96   H15   S    
N11   Ni7   S    
H77   O6    S    
C12   H55   S    
C73   C135  S    
C29   H70   S    
C123  N16   A    
C67   C69   A    
C77   N28   A    
C3    C71   A    
N4    N13   A    
C93   C127  A    
C82   C125  A    
C30   O12   S    
C62   C63   S    
C37   C106  S    
C120  N13   A    
C91   C93   S    
H71   O12   S    
C104  C128  A    
C80   C115  A    
C33   C63   S    
C30   C59   S    
C74   C83   A    
C17   C18   A    
C26   C27   A    
N12   Ni2   S    
C102  C107  A    
C103  C105  A    
C95   H14   S    
C37   O5    D    
N20   Ni8   S    
C43   C122  A    
C20   H62   S    
C33   O22   D    
C123  H33   S    
N7    Ni8   S    
C35   C112  A    
N31   Ni8   S    
C66   H67   S    
C121  H31   S    
C14   H57   S    
C108  N32   A    
C45   C54   S    
C64   C70   A    
N24   Ni1   S    
C41   O14   D    
C35   C51   S    
N22   Ni2   S    
C79   N30   A    
C118  N10   A    
C79   C104  A    
C64   H45   S    
C13   C101  S    
C32   O21   S    
C98   C101  A    
C86   H9    S    
C36   O4    S    
N30   Ni7   S    
C57   H47   S    
C31   O19   S    
C114  H29   S    
N32   Ni2   S    
C3    C133  A    
C115  C129  A    
N2    Ni1   S    
C22   H64   S    
C69   H2    S    
C65   C91   A    
C112  H27   S    
C132  C136  A    
C46   C47   A    
H76   O4    S    
H75   O2    S    
C112  N5    A    
N21   Ni7   S    
C26   H66   S    
C36   C105  S    
N12   N24   A    
C128  H38   S    
N19   Ni5   S    
C14   C15   A    
N15   Ni2   S    
C12   C14   A    
C4    C5    A    
C63   H34   S    
C32   O20   D    
C83   H6    S    
C11   C12   A    
C47   C52   A    
C128  N20   A    
C65   C72   A    
C6    H50   S    
C44   C123  A    
C131  C135  A    
C17   C22   A    
C82   C90   S    
C60   C136  A    
C30   O1    D    
C1    C4    S    
C19   C20   A    
H81   O13   S    
C39   O9    D    
N14   Ni1   S    
N8    N17   A    
C50   C54   A    
C16   H59   S    
C10   C16   A    
C43   C113  A    
C60   N23   A    
C124  N17   A    
C130  N22   A    
C45   C116  A    
C58   H48   S    
C80   H21   S    
C38   O7    D    
C124  H35   S    
C129  N21   A    
C40   O13   S    
C49   N12   A    
C109  N2    A    
C50   C62   S    
C46   C51   A    
C34   C103  S    
C81   H5    S    
C88   H11   S    
N18   Ni6   S    
C24   C102  S    
C37   O6    S    
C23   C25   A    
N16   Ni3   S    
C49   C135  A    
C75   C84   A    
C117  N9    A    
N9    N32   A    
C10   C11   A    
C92   C104  S    
C17   C60   S    
C44   C114  A    
N28   Ni5   S    
C76   C136  S    
C52   C56   A    
C72   H4    S    
C20   C21   A    
N2    N10   A    
C121  N14   A    
C106  C107  A    
N18   N28   A    
C70   C75   A    
H83   O17   S    
C78   N29   A    
N5    N14   A    
C69   C74   A    
C129  H39   S    
C67   H78   S    
C32   C62   S    
C108  C126  A    
C4    C9    A    
C10   C49   S    
C76   C85   A    
C34   O24   D    
C125  N18   A    
C1    C134  A    
N4    Ni3   S    
C132  H42   S    
C113  H28   S    
N9    Ni5   S    
