data_mof_unit_13958.cif
_audit_creation_date              2013-03-05T15:50:55-0500
_audit_creation_method            fapswitch 2.2
_symmetry_space_group_name_H-M    P1
_symmetry_Int_Tables_number       1
_space_group_crystal_system       triclinic
_cell_length_a                    12.075116
_cell_length_b                    12.813214
_cell_length_c                    15.75614
_cell_angle_alpha                 91.073123
_cell_angle_beta                  86.021234
_cell_angle_gamma                 95.095735
_cell_volume                      2422.12547057

loop_
_atom_site_label
_atom_site_type_symbol
_atom_site_description
_atom_site_fract_x
_atom_site_fract_y
_atom_site_fract_z
_atom_type_partial_charge
O1    O     O_R   0.421690 0.658830 0.504140 -0.553984
O2    O     O_R   0.609320 0.646410 0.494190 -0.568210
C1    C     C_R   0.524074 0.700500 0.492197 0.935608
O3    O     O_R   0.406150 0.506210 0.627840 -0.579130
O4    O     O_R   0.593770 0.493790 0.617880 -0.578637
C2    C     C_R   0.499930 0.500325 0.661383 0.914595
Zn1   Zn    Zn3+2 0.374720 0.508290 0.506640 1.091475
Zn2   Zn    Zn3+2 0.625280 0.491710 0.493360 1.062097
O5    O     O_R   0.390680 0.353590 0.505810 -0.590755
O6    O     O_R   0.578310 0.341170 0.495860 -0.597095
O7    O     O_R   0.406230 0.506210 0.382120 -0.592849
O8    O     O_R   0.593850 0.493790 0.372160 -0.643429
C3    C     C_R   0.476025 0.299286 0.498622 0.864085
C4    C     C_R   0.500081 0.499789 0.338627 0.886419
C5    C     C_3   0.453830 0.606449 0.954925 -0.297683
C6    C     C_3   0.616745 0.498966 0.942946 -0.470827
C7    C     C_3   0.622853 0.514702 0.041750 0.183243
H1    H     H_    0.523556 0.667883 0.940828 0.269359
H2    H     H_    0.652263 0.426106 0.919989 0.227467
H3    H     H_    0.671365 0.559182 0.906609 0.252360
C8    C     C_1   0.500300 0.500863 0.250092 -0.058913
C9    C     C_3   0.494521 0.500638 0.916988 0.003034
C10   C     C_3   0.432755 0.595823 0.053315 -0.314288
C11   C     C_3   0.498181 0.503208 0.083163 0.035758
C12   C     C_3   0.435950 0.396804 0.051892 -0.368171
C13   C     C_3   0.418772 0.401370 0.953449 0.161872
C14   C     C_1   0.499719 0.502128 0.175011 0.027807
C15   C     C_1   0.497749 0.500933 0.825202 0.091722
C16   C     C_1   0.499502 0.500746 0.749997 0.013530
H4    H     H_    0.342460 0.574079 0.068182 0.168604
H5    H     H_    0.491677 0.335082 0.062385 0.164548
C17   C     C_R   0.458606 0.187000 0.487102 -0.052481
C18   C     C_R   0.543595 0.812443 0.474824 -0.182222
C19   C     C_R   0.636231 0.977097 0.516157 -0.219199
C20   C     C_R   0.640580 0.871249 0.500800 -0.099295
C21   C     C_R   0.457948 0.863962 0.440530 0.281569
C22   C     C_R   0.461617 0.974154 0.445931 0.053575
C23   C     C_R   0.545322 0.026875 0.493344 0.122707
C24   C     C_R   0.541290 0.130650 0.515051 -0.147709
C25   C     C_R   0.377113 0.139187 0.435060 -0.103029
C26   C     C_R   0.382940 0.033645 0.409688 -0.080633
H6    H     H_    0.605612 0.169138 0.552610 0.175063
H7    H     H_    0.705664 0.021702 0.544105 0.163995
N1    N     N_R   0.207800 0.519340 0.515510 -0.181914
N2    N     N_R   0.792190 0.480660 0.484490 -0.182010
C27   C     C_R   0.956324 0.424193 0.405505 0.222731
C28   C     C_R   0.839740 0.427576 0.416825 -0.066206
C29   C     C_R   0.857628 0.528424 0.544291 0.445348
C30   C     C_R   0.976141 0.531146 0.533663 -0.210426
C31   C     C_R   0.025125 0.475550 0.464614 -0.099270
C32   C     C_R   0.142071 0.470341 0.457639 0.063004
C33   C     C_R   0.163040 0.578189 0.580204 0.364233
C34   C     C_R   0.047578 0.586965 0.589849 0.191400
H8    H     H_    0.181680 0.426230 0.406836 0.205480
C35   C     C_2   0.455954 0.698803 0.101241 0.590048
H9    H     H_    0.440042 0.701301 0.169809 0.127040
O9    O     O_2   0.489521 0.779903 0.064639 -0.462617
C36   C     C_2   0.354587 0.645563 0.915214 0.551736
H10   H     H_    0.270231 0.614723 0.934174 0.094939
O10   O     O_2   0.368474 0.714850 0.862383 -0.447750
C37   C     C_2   0.291759 0.200163 0.400989 0.414922
H11   H     H_    0.292577 0.213617 0.333141 0.071828
O11   O     O_2   0.216751 0.230694 0.448388 -0.503042
C38   C     C_2   0.315257 0.992563 0.339052 0.506973
H12   H     H_    0.228448 0.008186 0.338424 0.100728
O12   O     O_2   0.357930 0.946024 0.278689 -0.489654
C39   C     C_2   0.747874 0.828240 0.513165 0.598717
H13   H     H_    0.795802 0.855806 0.566226 0.114255
O13   O     O_2   0.788342 0.768960 0.460474 -0.499641
N3    N     N_R   0.364276 0.803600 0.407085 0.229658
O14   O     O_R   0.379848 0.736730 0.345148 -0.368960
O15   O     O_R   0.264826 0.808139 0.443761 -0.334651
N4    N     N_R   0.233841 0.633953 0.637874 0.242147
O16   O     O_R   0.266896 0.731785 0.623562 -0.290958
O17   O     O_R   0.237494 0.598118 0.714247 -0.297558
N5    N     N_R   0.004083 0.369591 0.333394 0.195026
O18   O     O_R   0.978500 0.269644 0.322738 -0.317423
O19   O     O_R   0.068205 0.421016 0.275767 -0.311652
N6    N     N_R   0.006583 0.660443 0.651394 0.259362
O20   O     O_R   0.011590 0.644320 0.732254 -0.238315
O21   O     O_R   0.980627 0.750757 0.626346 -0.302278
C40   C     C_2   0.770269 0.373631 0.353628 0.615451
H14   H     H_    0.767061 0.407855 0.291492 0.099431
O22   O     O_2   0.721730 0.287685 0.368554 -0.542242
N7    N     N_R   0.805563 0.563971 0.622414 0.234632
O23   O     O_R   0.757960 0.651104 0.626024 -0.355467
O24   O     O_R   0.808617 0.510131 0.691293 -0.346594
N8    N     N_R   0.677886 0.619482 0.063471 0.260830
O25   O     O_R   0.691260 0.645446 0.142675 -0.319643
O26   O     O_R   0.718625 0.685814 0.005353 -0.300483
C41   C     C_2   0.692665 0.431084 0.073322 0.412672
H15   H     H_    0.673052 0.349021 0.058050 0.100811
O27   O     O_2   0.773859 0.454469 0.114126 -0.474718
C42   C     C_2   0.296763 0.414260 0.936541 0.402205
H16   H     H_    0.236428 0.433558 0.987235 0.093665
O28   O     O_2   0.265914 0.409216 0.864205 -0.471946
N9    N     N_R   0.451344 0.302232 0.911650 0.219373
O29   O     O_R   0.381836 0.243444 0.867815 -0.278302
O30   O     O_R   0.546267 0.266280 0.924149 -0.388811
C43   C     C_2   0.330972 0.356060 0.104842 0.373924
H17   H     H_    0.298459 0.275063 0.096535 0.132633
O31   O     O_2   0.281306 0.411913 0.155230 -0.504625

loop_
_geom_bond_atom_site_label_1
_geom_bond_atom_site_label_2
_geom_bond_distance
_ccdc_geom_bond_type
C13   C42   1.538873 S    
C5    H1    1.113877 S    
C35   H9    1.084494 S    
C12   H5    1.104746 S    
C7    N8    1.488976 S    
N4    O16   1.300287 A    
C3    C17   1.445312 S    
C7    C41   1.531222 S    
C11   C14   1.448914 S    
C27   N5    1.436646 S    
N9    O29   1.302895 A    
N7    O23   1.298920 A    
Zn1   O7    1.972560 S    
C4    C8    1.395111 S    
C21   C22   1.409836 A    
C34   N6    1.433104 S    
N5    O19   1.300895 A    
C23   C24   1.370982 A    
O7    C4    1.291264 A    
C17   C24   1.383138 A    
C1    C18   1.460663 S    
C36   O10   1.221091 D    
C18   C21   1.417552 A    
C19   C20   1.378158 A    
C28   C40   1.469733 S    
C37   O11   1.220357 D    
O5    C3    1.291215 A    
Zn2   N2    2.027931 S    
C5    C9    1.576085 S    
C6    C7    1.571993 S    
C10   C11   1.578788 S    
N3    O14   1.301418 A    
C6    H3    1.109890 S    
N1    C33   1.366341 A    
N7    O24   1.301226 A    
C8    C14   1.183915 T    
C19   C23   1.388791 A    
N4    O17   1.300961 A    
C42   H16   1.083414 S    
O3    Zn1   1.973770 S    
C9    C15   1.444080 S    
N9    O30   1.301264 A    
C21   N3    1.437816 S    
C24   H6    1.086965 S    
N2    C28   1.373397 A    
C7    C11   1.594260 S    
C39   H13   1.085551 S    
C10   H4    1.111005 S    
N5    O18   1.300972 A    
O3    C2    1.291155 A    
C33   N4    1.429005 S    
C41   H15   1.083429 S    
N6    O21   1.300697 A    
C12   C13   1.581943 S    
C25   C37   1.482029 S    
O1    C1    1.305047 A    
C38   O12   1.221074 D    
C22   C23   1.414424 A    
C41   O27   1.221652 D    
C12   C43   1.525586 S    
C20   C39   1.478538 S    
Zn2   O8    1.973771 S    
C43   O31   1.221076 D    
C31   C32   1.416186 A    
Zn1   N1    2.028052 S    
C11   C12   1.584438 S    
C42   O28   1.222212 D    
N1    C32   1.358677 A    
C29   C30   1.426628 A    
N8    O26   1.302024 A    
C30   C31   1.413314 A    
C40   O22   1.219631 D    
C35   O9    1.221434 D    
C5    C36   1.516993 S    
C33   C34   1.406197 A    
N2    C29   1.372058 A    
Zn1   O5    2.008229 S    
C27   C28   1.411104 A    
C15   C16   1.183624 T    
C6    C9    1.560659 S    
O1    Zn1   1.961964 S    
O2    Zn2   2.008229 S    
C19   H7    1.086358 S    
O8    C4    1.291158 A    
O6    C3    1.300409 A    
O4    Zn2   1.972561 S    
N3    O15   1.301639 A    
C10   C35   1.521898 S    
C27   C31   1.406381 A    
C32   H8    1.080223 S    
C38   H12   1.085240 S    
O2    C1    1.293422 A    
C36   H10   1.083348 S    
O4    C2    1.291406 A    
C6    H2    1.106013 S    
C30   C34   1.418450 A    
C5    C10   1.559990 S    
C43   H17   1.085371 S    
C18   C20   1.415974 A    
C17   C25   1.414945 A    
C22   C26   1.424760 A    
C37   H11   1.085240 S    
C13   N9    1.491144 S    
N6    O20   1.300878 A    
C2    C16   1.395772 S    
N8    O25   1.302700 A    
Zn2   O6    1.961964 S    
C40   H14   1.084727 S    
C9    C13   1.591310 S    
C29   N7    1.428415 S    
C25   C26   1.409375 A    
C26   C38   1.487132 S    
C39   O13   1.221057 D    
