data_mof_unit_62030.cif
_audit_creation_date              2012-12-10T19:46:50-0500
_audit_creation_method            fapswitch 2.2
_symmetry_space_group_name_H-M    P1
_symmetry_Int_Tables_number       1
_space_group_crystal_system       triclinic
_cell_length_a                    28.326413
_cell_length_b                    18.272817
_cell_length_c                    21.686454
_cell_angle_alpha                 89.358182
_cell_angle_beta                  139.886082
_cell_angle_gamma                 90.671466
_cell_volume                      7231.82099317

loop_
_atom_site_label
_atom_site_type_symbol
_atom_type_description
_atom_site_fract_x
_atom_site_fract_y
_atom_site_fract_z
_atom_type_partial_charge
C1    C     C_R   0.858750 0.499845 0.858723 0.922014
C2    C     C_R   0.141250 0.500156 0.141271 0.918859
C3    C     C_R   0.358750 0.999845 0.858723 0.922020
C4    C     C_R   0.641250 0.000156 0.141271 0.918861
C5    C     C_R   0.047765 0.538049 0.829827 -0.317014
C6    C     C_R   0.953710 0.459887 0.171980 -0.313268
C7    C     C_R   0.547758 0.038057 0.829819 -0.317033
C8    C     C_R   0.453741 0.959852 0.172015 -0.313097
C9    C     C_R   0.051659 0.533380 0.770333 0.467718
C10   C     C_R   0.952335 0.461846 0.234091 0.473553
C11   C     C_R   0.551652 0.033389 0.770325 0.467725
C12   C     C_R   0.452369 0.961810 0.234128 0.473522
C13   C     C_R   0.000107 0.489894 0.687271 -0.217870
C14   C     C_R   0.000593 0.509147 0.313555 -0.212404
C15   C     C_R   0.500105 0.989896 0.687270 -0.217849
C16   C     C_R   0.500597 0.009143 0.313561 -0.212448
C17   C     C_1   0.782268 0.499564 0.782152 -0.192153
C18   C     C_1   0.217732 0.500442 0.217837 -0.196886
C19   C     C_1   0.282268 0.999564 0.782152 -0.192144
C20   C     C_1   0.717732 0.000441 0.217837 -0.196888
C21   C     C_1   0.717459 0.499621 0.717345 -0.181626
C22   C     C_1   0.282541 0.500391 0.282647 -0.185851
C23   C     C_1   0.217459 0.999621 0.717345 -0.181620
C24   C     C_1   0.782541 0.000391 0.282647 -0.185854
C25   C     C_R   0.000139 0.641272 0.501112 0.935602
C26   C     C_R   0.999858 0.358729 0.498862 0.911771
C27   C     C_R   0.500139 0.141272 0.501113 0.935608
C28   C     C_R   0.499858 0.858729 0.498863 0.911743
C29   C     C_R   0.999929 0.496039 0.620453 0.933194
C30   C     C_R   0.000168 0.504265 0.379718 0.896689
C31   C     C_R   0.499928 0.996039 0.620453 0.933205
C32   C     C_R   0.500169 0.004271 0.379719 0.896555
C33   C     C_R   0.499816 0.640982 0.499510 0.925617
C34   C     C_R   0.500137 0.359023 0.500433 0.926405
C35   C     C_R   0.999816 0.140982 0.499510 0.925615
C36   C     C_R   0.000137 0.859023 0.500433 0.926406
C37   C     C_R   0.640968 0.499868 0.640947 0.928218
C38   C     C_R   0.359032 0.500145 0.359052 0.926843
C39   C     C_R   0.140968 0.999868 0.640947 0.928217
C40   C     C_R   0.859032 0.000145 0.359052 0.926840
C41   C     C_1   0.000418 0.717749 0.501471 -0.172432
C42   C     C_1   0.999558 0.282258 0.498446 -0.192391
C43   C     C_1   0.500418 0.217749 0.501472 -0.172428
C44   C     C_1   0.499558 0.782258 0.498447 -0.192364
C45   C     C_R   0.997727 0.500454 0.877631 0.892107
C46   C     C_R   0.001925 0.499513 0.122058 0.900638
C47   C     C_R   0.497727 0.000454 0.877631 0.892101
C48   C     C_R   0.501926 0.999513 0.122059 0.900640
C49   C     C_1   0.500374 0.282531 0.501261 -0.171507
C50   C     C_1   0.499574 0.717478 0.498639 -0.182490
C51   C     C_1   0.000374 0.782531 0.501260 -0.171516
C52   C     C_1   0.999574 0.217478 0.498639 -0.182426
C53   C     C_R   0.877424 0.432052 0.693313 -0.215884
C54   C     C_R   0.121652 0.569432 0.305551 -0.216118
C55   C     C_R   0.377433 0.932035 0.693324 -0.215843
C56   C     C_R   0.621629 0.069477 0.305527 -0.216132
C57   C     C_R   0.825287 0.389844 0.611370 -0.328632
C58   C     C_R   0.173012 0.612721 0.386564 -0.328986
C59   C     C_R   0.325301 0.889820 0.611387 -0.328703
C60   C     C_R   0.672972 0.112788 0.386521 -0.329001
C61   C     C_R   0.835670 0.370053 0.560156 0.547041
C62   C     C_R   0.162356 0.632409 0.437480 0.545351
C63   C     C_R   0.335681 0.870034 0.560167 0.547093
C64   C     C_R   0.662308 0.132472 0.437428 0.545395
C65   C     C_R   0.898640 0.394473 0.591539 0.056027
C66   C     C_R   0.099953 0.606841 0.406818 0.058652
C67   C     C_R   0.398648 0.894465 0.591547 0.056060
C68   C     C_R   0.599917 0.106879 0.406782 0.058590
C69   C     C_R   0.945998 0.447992 0.665987 -0.072062
C70   C     C_R   0.053615 0.552304 0.333585 -0.067425
C71   C     C_R   0.446001 0.947987 0.665990 -0.072080
C72   C     C_R   0.553600 0.052323 0.333569 -0.067401
C73   C     C_R   0.938838 0.460147 0.722585 0.085260
C74   C     C_R   0.060852 0.540229 0.277043 0.079515
C75   C     C_R   0.438841 0.960140 0.722589 0.085256
C76   C     C_R   0.560840 0.040251 0.277031 0.079532
C77   C     C_R   0.993095 0.500973 0.807207 -0.132402
C78   C     C_R   0.007004 0.498722 0.192938 -0.143494
C79   C     C_R   0.493094 0.000972 0.807206 -0.132399
C80   C     C_R   0.507010 0.998721 0.192944 -0.143594
H1    H     H_    0.087468 0.571185 0.893952 0.162077
H2    H     H_    0.913226 0.427318 0.107403 0.171886
H3    H     H_    0.587456 0.071200 0.893939 0.162067
H4    H     H_    0.413279 0.927254 0.107462 0.171973
H5    H     H_    0.868269 0.443944 0.732323 0.162790
H6    H     H_    0.130954 0.557591 0.266702 0.164226
H7    H     H_    0.368279 0.943923 0.732335 0.162799
H8    H     H_    0.630937 0.057638 0.266684 0.164252
H9    H     H_    0.778579 0.369751 0.590650 0.162519
H10   H     H_    0.219314 0.633669 0.406821 0.163667
H11   H     H_    0.278600 0.869717 0.590679 0.162476
H12   H     H_    0.719268 0.133752 0.406774 0.163715
O1    O     O_R   0.892670 0.439420 0.892670 -0.626725
O2    O     O_R   0.107330 0.560580 0.107330 -0.626803
O3    O     O_R   0.107330 0.439420 0.107330 -0.615684
O4    O     O_R   0.892670 0.560580 0.892670 -0.615043
O5    O     O_R   0.392670 0.939420 0.892670 -0.626722
O6    O     O_R   0.607330 0.060580 0.107330 -0.626812
O7    O     O_R   0.607330 0.939420 0.107330 -0.615682
O8    O     O_R   0.392670 0.060580 0.892670 -0.615043
O9    O     O_R   0.999990 0.439420 0.908380 -0.621413
O10   O     O_R   0.000010 0.560580 0.091620 -0.617574
O11   O     O_R   0.000010 0.439420 0.091620 -0.626760
O12   O     O_R   0.999990 0.560580 0.908380 -0.619102
O13   O     O_R   0.499990 0.939420 0.908380 -0.621417
O14   O     O_R   0.500010 0.060580 0.091620 -0.617575
O15   O     O_R   0.500010 0.939420 0.091620 -0.626754
O16   O     O_R   0.499990 0.060580 0.908380 -0.619104
O17   O     O_R   0.060590 0.607350 0.560620 -0.632527
O18   O     O_R   0.939410 0.392650 0.439380 -0.640582
O19   O     O_R   0.939410 0.607350 0.439380 -0.619822
O20   O     O_R   0.060590 0.392650 0.560620 -0.621949
O21   O     O_R   0.560590 0.107350 0.560620 -0.632527
O22   O     O_R   0.439410 0.892650 0.439380 -0.640521
O23   O     O_R   0.439410 0.107350 0.439380 -0.619822
O24   O     O_R   0.560590 0.892650 0.560620 -0.621975
O25   O     O_R   0.060610 0.500000 0.652240 -0.591344
O26   O     O_R   0.939390 0.500000 0.347760 -0.565209
O27   O     O_R   0.560610 0.000000 0.652240 -0.591336
O28   O     O_R   0.439390 0.000000 0.347760 -0.565258
O29   O     O_R   0.939430 0.500000 0.531050 -0.639470
O30   O     O_R   0.060570 0.500000 0.468950 -0.648377
O31   O     O_R   0.439430 0.000000 0.531050 -0.639468
O32   O     O_R   0.560570 0.000000 0.468950 -0.648378
O33   O     O_R   0.500010 0.607330 0.448300 -0.628110
O34   O     O_R   0.499990 0.392670 0.551700 -0.616114
O35   O     O_R   0.499990 0.607330 0.551700 -0.614740
O36   O     O_R   0.500010 0.392670 0.448300 -0.618414
O37   O     O_R   0.000010 0.107330 0.448300 -0.628085
O38   O     O_R   0.999990 0.892670 0.551700 -0.616108
O39   O     O_R   0.999990 0.107330 0.551700 -0.614752
O40   O     O_R   0.000010 0.892670 0.448300 -0.618425
O41   O     O_R   0.607330 0.500000 0.555630 -0.622839
O42   O     O_R   0.392670 0.500000 0.444370 -0.620667
O43   O     O_R   0.107330 1.000000 0.555630 -0.622841
O44   O     O_R   0.892670 0.000000 0.444370 -0.620662
O45   O     O_R   0.607340 0.500000 0.659080 -0.615828
O46   O     O_R   0.392660 0.500000 0.340920 -0.623103
O47   O     O_R   0.107340 0.000000 0.659080 -0.615824
O48   O     O_R   0.892660 1.000000 0.340920 -0.623111
Zn1   Zn    Zn3+2 0.000000 0.419100 0.000000 0.959545
Zn2   Zn    Zn3+2 0.000000 0.580900 0.000000 0.966774
Zn3   Zn    Zn3+2 0.500000 0.919100 0.000000 0.959558
Zn4   Zn    Zn3+2 0.500000 0.080900 0.000000 0.966766
Zn5   Zn    Zn3+2 0.080920 0.500000 0.580940 0.941598
Zn6   Zn    Zn3+2 0.919080 0.500000 0.419060 0.969984
Zn7   Zn    Zn3+2 0.580920 0.000000 0.580940 0.941570
Zn8   Zn    Zn3+2 0.419080 0.000000 0.419060 0.969980
Zn9   Zn    Zn3+2 0.500000 0.500000 0.430940 0.956171
Zn10  Zn    Zn3+2 0.500000 0.500000 0.569060 0.976109
Zn11  Zn    Zn3+2 0.000000 0.000000 0.430940 0.956164
Zn12  Zn    Zn3+2 0.000000 0.000000 0.569060 0.976121
O49   O     O_3   0.789150 0.321013 0.484449 -0.614033
C81   C     C_3   0.715108 0.342418 0.416327 0.083848
H13   H     H_    0.708446 0.403132 0.409068 0.125841
H14   H     H_    0.691791 0.319454 0.436504 0.191775
C82   C     C_3   0.671454 0.312198 0.318879 -0.795602
H15   H     H_    0.675911 0.251730 0.322205 0.263513
H16   H     H_    0.612848 0.327118 0.265212 0.207239
H17   H     H_    0.692714 0.335450 0.296048 0.248784
O50   O     O_3   0.208168 0.682164 0.512380 -0.613423
C83   C     C_3   0.282444 0.661367 0.581199 0.084445
H18   H     H_    0.305968 0.684678 0.561435 0.192352
H19   H     H_    0.289664 0.600714 0.588874 0.125687
C84   C     C_3   0.325312 0.691688 0.678265 -0.796746
H20   H     H_    0.303955 0.667876 0.700757 0.247648
H21   H     H_    0.384127 0.677469 0.732403 0.208438
H22   H     H_    0.320147 0.752078 0.674531 0.263492
O51   O     O_3   0.289171 0.820988 0.484464 -0.614052
C85   C     C_3   0.215112 0.842307 0.416398 0.083761
H23   H     H_    0.208387 0.903014 0.409146 0.125876
H24   H     H_    0.191861 0.819254 0.436634 0.191898
C86   C     C_3   0.171439 0.812122 0.318928 -0.795583
H25   H     H_    0.175984 0.751664 0.322260 0.263521
H26   H     H_    0.112816 0.826946 0.265313 0.207267
H27   H     H_    0.192614 0.835484 0.296024 0.248765
O52   O     O_3   0.708105 0.182243 0.512310 -0.613339
C87   C     C_3   0.782382 0.161431 0.581166 0.084516
H28   H     H_    0.805936 0.184732 0.561442 0.192367
H29   H     H_    0.789594 0.100777 0.588841 0.125636
C88   C     C_3   0.825219 0.191751 0.678219 -0.796765
H30   H     H_    0.803830 0.167944 0.700672 0.247639
H31   H     H_    0.884035 0.177523 0.732386 0.208432
H32   H     H_    0.820061 0.252141 0.674489 0.263495
N1    N     N_3   0.917089 0.356068 0.554927 -0.414219
H33   H     H_    0.884772 0.376284 0.486715 0.240220
H34   H     H_    0.972926 0.359721 0.600768 0.160741
N2    N     N_3   0.081182 0.644697 0.443278 -0.414545
H35   H     H_    0.025321 0.640713 0.397245 0.163914
H36   H     H_    0.113564 0.624373 0.511459 0.238830
N3    N     N_3   0.417101 0.856064 0.554937 -0.414211
H37   H     H_    0.384784 0.876280 0.486725 0.240234
H38   H     H_    0.472938 0.859720 0.600780 0.160734
N4    N     N_3   0.581140 0.144719 0.443241 -0.414539
H39   H     H_    0.525281 0.140724 0.397207 0.163923
H40   H     H_    0.613527 0.124392 0.511421 0.238813
O53   O     O_3   0.101132 0.577366 0.787854 -0.590813
C89   C     C_3   0.172394 0.548742 0.866507 0.124298
H41   H     H_    0.174053 0.489277 0.857149 0.135981
H42   H     H_    0.192290 0.556949 0.934317 0.128587
C90   C     C_3   0.224282 0.588786 0.874516 -0.787642
H43   H     H_    0.224955 0.648184 0.885520 0.255412
H44   H     H_    0.280593 0.566886 0.936188 0.192366
H45   H     H_    0.206248 0.581031 0.808075 0.260637
O54   O     O_3   0.901331 0.419306 0.214583 -0.586872
C91   C     C_3   0.930072 0.348173 0.251188 0.101625
H46   H     H_    0.982569 0.349602 0.329882 0.125745
H47   H     H_    0.939398 0.321808 0.215113 0.136274
C92   C     C_3   0.875634 0.301421 0.233109 -0.780853
H48   H     H_    0.823347 0.296858 0.154975 0.251631
H49   H     H_    0.898352 0.245761 0.263360 0.205631
H50   H     H_    0.864697 0.326470 0.267649 0.270331
O55   O     O_3   0.601117 0.077383 0.787836 -0.590823
C93   C     C_3   0.672387 0.048782 0.866509 0.124293
H51   H     H_    0.674063 0.989310 0.857198 0.135962
H52   H     H_    0.692282 0.057030 0.934313 0.128599
C94   C     C_3   0.724262 0.088811 0.874483 -0.787651
H53   H     H_    0.724909 0.148218 0.885424 0.255419
H54   H     H_    0.780582 0.066939 0.936181 0.192362
H55   H     H_    0.706234 0.081006 0.808053 0.260630
O56   O     O_3   0.401402 0.919223 0.214651 -0.586893
C95   C     C_3   0.430287 0.848167 0.251533 0.101745
H56   H     H_    0.482680 0.849756 0.330261 0.125760
H57   H     H_    0.439853 0.821771 0.215747 0.136190
C96   C     C_3   0.375828 0.801325 0.233329 -0.780809
H58   H     H_    0.323685 0.796523 0.155167 0.251521
H59   H     H_    0.398700 0.745761 0.263911 0.205678
H60   H     H_    0.364580 0.826449 0.267476 0.270371

loop_
_geom_bond_atom_site_label_1
_geom_bond_atom_site_label_2
_ccdc_geom_bond_type
C58   C62   A    
N4    H40   S    
C84   H20   S    
C56   C76   A    
C66   N2    S    
C2    C18   S    
C14   C70   A    
C90   H43   S    
C32   O32   A    
O22   Zn8   S    
C7    H3    S    
C16   C72   A    
C47   C79   S    
C72   C76   A    
C96   H60   S    
C56   H8    S    
C87   H28   S    
C39   O43   A    
C86   H25   S    
C94   H55   S    
C7    C11   A    
C46   O10   A    
C82   H15   S    
C7    C79   A    
C57   H9    S    
C6    H2    S    
C64   C68   A    
C13   C29   S    
C2    O3    A    
C10   O54   S    
C32   O28   A    
O37   Zn11  S    
C4    O6    A    
C36   O40   A    
O35   Zn10  S    
C67   N3    S    
N1    H34   S    
C62   O50   S    
C85   H23   S    
O27   Zn7   S    
O42   Zn10  S    
C88   H30   S    
O47   Zn12  S    
C33   O35   A    
C92   H50   S    
O20   Zn5   S    
C15   C31   S    
C6    C78   A    
N2    H36   S    
O51   C85   S    
O30   Zn5   S    
C57   C61   A    
C13   C69   A    
C9    C13   A    
C16   C32   S    
O5    Zn3   S    
C28   O24   A    
C92   H49   S    
C54   C74   A    
C11   C15   A    
C3    O8    A    
C48   O14   A    
C12   C16   A    
C93   H52   S    
C47   O13   A    
C29   O29   A    
C70   C74   A    
C22   C38   S    
C3    C19   S    
C89   H41   S    
O54   C91   S    
C8    C12   A    
C35   O37   A    
C81   H14   S    
O10   Zn2   S    
C68   C72   A    
C55   C75   A    
C60   H12   S    
N4    H39   S    
C82   H16   S    
C37   O45   A    
C53   H5    S    
C90   H44   S    
O39   Zn12  S    
O53   C89   S    
O9    Zn1   S    
C14   C30   S    
O11   Zn1   S    
O44   Zn12  S    
C9    O53   S    
C92   H48   S    
C83   H19   S    
C86   H26   S    
O46   Zn9   S    
O32   Zn7   S    
C65   N1    S    
C62   C66   A    
N3    H37   S    
O2    Zn2   S    
C20   C24   T    
C2    O2    A    
O41   Zn9   S    
C81   C82   S    
O13   Zn3   S    
O8    Zn4   S    
O19   Zn6   S    
C25   C41   S    
C54   H6    S    
C53   C57   A    
C91   H46   S    
C43   C49   T    
C30   O26   A    
C95   C96   S    
C8    H4    S    
C94   H53   S    
O55   C93   S    
C29   O25   A    
O23   Zn8   S    
C28   C44   S    
C1    O1    A    
C17   C21   T    
C56   C60   A    
N2    H35   S    
C4    C20   S    
C30   O30   A    
C19   C23   T    
N3    H38   S    
C63   C67   A    
C5    C9    A    
O56   C95   S    
C45   O12   A    
C36   O38   A    
C83   C84   S    
C5    H1    S    
C3    O5    A    
O26   Zn6   S    
C68   N4    S    
C34   O34   A    
C89   C90   S    
C33   O33   A    
C96   H58   S    
C38   O46   A    
C59   H11   S    
C69   C73   A    
C58   H10   S    
O48   Zn11  S    
C31   O27   A    
C81   H13   S    
C36   C51   S    
C28   O22   A    
C11   O55   S    
C27   O21   A    
C34   O36   A    
O3    Zn1   S    
C84   H22   S    
O17   Zn5   S    
C45   O9    A    
O38   Zn12  S    
C90   H45   S    
O12   Zn2   S    
O45   Zn10  S    
C94   H54   S    
C5    C77   A    
C26   O20   A    
O16   Zn4   S    
O1    Zn1   S    
C55   C59   A    
C26   C42   S    
C46   C78   S    
C83   H18   S    
C54   C58   A    
C86   H27   S    
C44   C50   T    
C65   C69   A    
C27   C43   S    
C26   O18   A    
C95   H57   S    
C34   C49   S    
C88   H32   S    
O28   Zn8   S    
O6    Zn4   S    
C93   H51   S    
C1    C17   S    
O25   Zn5   S    
C53   C73   A    
C76   C80   A    
C93   C94   S    
C61   O49   S    
C6    C10   A    
O24   Zn7   S    
C87   H29   S    
O14   Zn4   S    
C25   O17   A    
C82   H17   S    
C15   C71   A    
C46   O11   A    
C59   C63   A    
C60   C64   A    
O21   Zn7   S    
O52   C87   S    
C18   C22   T    
C33   C50   S    
C35   O39   A    
C31   O31   A    
O50   C83   S    
C75   C79   A    
C71   C75   A    
C64   O52   S    
O34   Zn10  S    
C91   C92   S    
C48   C80   S    
N1    H33   S    
C66   C70   A    
C85   H24   S    
C1    O4    A    
O43   Zn11  S    
C40   O48   A    
C96   H59   S    
C41   C51   T    
C67   C71   A    
C38   O42   A    
C55   H7    S    
C95   H56   S    
O33   Zn9   S    
C37   O41   A    
C12   O56   S    
C24   C40   S    
C87   C88   S    
C63   O51   S    
C25   O19   A    
O7    Zn3   S    
O4    Zn2   S    
C48   O15   A    
C61   C65   A    
O36   Zn9   S    
C88   H31   S    
C21   C37   S    
O31   Zn8   S    
C84   H21   S    
C47   O16   A    
C74   C78   A    
C4    O7    A    
C42   C52   T    
C35   C52   S    
C8    C80   A    
O40   Zn11  S    
C73   C77   A    
O29   Zn6   S    
C89   H42   S    
C40   O44   A    
C45   C77   S    
O49   C81   S    
O18   Zn6   S    
C91   H47   S    
O15   Zn3   S    
C23   C39   S    
C39   O47   A    
C10   C14   A    
C85   C86   S    
C27   O23   A    
