data_mof_unit_27349.cif
_audit_creation_date              2012-12-11T15:15:52-0500
_audit_creation_method            fapswitch 2.2
_symmetry_space_group_name_H-M    P1
_symmetry_Int_Tables_number       1
_space_group_crystal_system       triclinic
_cell_length_a                    14.103528
_cell_length_b                    14.107872
_cell_length_c                    28.127465
_cell_angle_alpha                 90.019436
_cell_angle_beta                  90.160525
_cell_angle_gamma                 120.046295
_cell_volume                      4844.45726757

loop_
_atom_site_label
_atom_site_type_symbol
_atom_type_description
_atom_site_fract_x
_atom_site_fract_y
_atom_site_fract_z
_atom_type_partial_charge
C1    C     C_R   0.566625 0.453682 0.566634 0.548866
C2    C     C_R   0.546464 0.112974 0.566640 0.549068
C3    C     C_R   0.887255 0.433569 0.566596 0.549526
C4    C     C_R   0.453502 0.567129 0.066903 0.549435
C5    C     C_R   0.114101 0.546891 0.066974 0.548295
C6    C     C_R   0.433108 0.886129 0.067060 0.548525
C7    C     C_3   0.992201 0.495845 0.703068 0.040254
C8    C     C_3   0.504632 0.496441 0.703075 0.040235
C9    C     C_3   0.503647 0.007804 0.703021 0.040267
C10   C     C_3   0.486088 0.971425 0.206277 0.051611
C11   C     C_3   0.491469 0.517451 0.205648 0.045207
C12   C     C_3   0.022311 0.509909 0.205137 0.063060
C13   C     C_3   0.954058 0.409115 0.769931 0.013709
C14   C     C_3   0.590878 0.544392 0.770296 0.013770
C15   C     C_3   0.455370 0.046003 0.769975 0.013860
C16   C     C_3   0.399008 0.944926 0.272504 0.014209
C17   C     C_3   0.559069 0.600542 0.272205 0.017485
C18   C     C_3   0.059173 0.466569 0.273521 0.015960
C19   C     C_3   0.901023 0.463239 0.740647 -0.128125
C20   C     C_3   0.536161 0.437246 0.740921 -0.127925
C21   C     C_3   0.562742 0.098480 0.740992 -0.127927
C22   C     C_3   0.440310 0.879155 0.243853 -0.125060
C23   C     C_3   0.453246 0.569602 0.243873 -0.129791
C24   C     C_3   0.108834 0.573451 0.244084 -0.121362
C25   C     C_1   0.045729 0.526722 0.846473 -0.049893
C26   C     C_1   0.472881 0.519061 0.846413 -0.049911
C27   C     C_1   0.480131 0.953281 0.846360 -0.049949
C28   C     C_1   0.520268 0.030252 0.349184 -0.058285
C29   C     C_1   0.512456 0.477506 0.348297 -0.056825
C30   C     C_1   0.956095 0.483705 0.347141 -0.051722
C31   C     C_1   0.968000 0.482712 0.652522 -0.061624
C32   C     C_1   0.517960 0.485356 0.652546 -0.061647
C33   C     C_1   0.515045 0.032393 0.652509 -0.061642
C34   C     C_1   0.475632 0.952774 0.155240 -0.040851
C35   C     C_1   0.481790 0.527475 0.154769 -0.052597
C36   C     C_1   0.045290 0.520281 0.154572 -0.041286
C37   C     C_R   0.566365 0.453389 0.434444 0.546453
C38   C     C_R   0.546220 0.112621 0.434577 0.547934
C39   C     C_R   0.886192 0.433136 0.434270 0.547327
C40   C     C_R   0.453096 0.566852 0.934165 0.547086
C41   C     C_R   0.113564 0.546689 0.934212 0.546825
C42   C     C_R   0.432941 0.886135 0.934147 0.547040
C43   C     C_3   0.063393 0.603258 0.729167 0.173552
C44   C     C_3   0.397162 0.460930 0.728749 0.173396
C45   C     C_3   0.538763 0.935684 0.728954 0.173300
C46   C     C_3   0.594370 0.030091 0.233054 0.179181
C47   C     C_3   0.433556 0.408688 0.231721 0.174595
C48   C     C_3   0.942941 0.538370 0.228709 0.176252
C49   C     C_3   0.974255 0.573713 0.766887 -0.088112
C50   C     C_3   0.425640 0.400727 0.766719 -0.087939
C51   C     C_3   0.598865 0.024315 0.767052 -0.088063
C52   C     C_3   0.551518 0.939420 0.270851 -0.093748
C53   C     C_3   0.393745 0.457836 0.270108 -0.111872
C54   C     C_3   0.027585 0.603349 0.267680 -0.104675
C55   C     C_1   0.069571 0.533318 0.887669 -0.010899
C56   C     C_1   0.466145 0.536171 0.887604 -0.010889
C57   C     C_1   0.463136 0.929640 0.887557 -0.010656
C58   C     C_1   0.529634 0.061198 0.389469 -0.014652
C59   C     C_1   0.532461 0.468511 0.388870 -0.016751
C60   C     C_1   0.930789 0.464791 0.388043 -0.010579
C61   C     C_1   0.937696 0.465443 0.612030 -0.022286
C62   C     C_1   0.535139 0.472319 0.612078 -0.022503
C63   C     C_1   0.528130 0.062747 0.612060 -0.022382
C64   C     C_1   0.461467 0.929294 0.113895 -0.007093
C65   C     C_1   0.470109 0.539977 0.113548 -0.012250
C66   C     C_1   0.070411 0.531179 0.113519 -0.012535
C67   C     C_3   0.117250 0.550457 0.758261 -0.089448
C68   C     C_3   0.450552 0.567573 0.757929 -0.089430
C69   C     C_3   0.431895 0.882385 0.757753 -0.089597
C70   C     C_3   0.554574 0.096930 0.261055 -0.104523
C71   C     C_3   0.538734 0.438061 0.259447 -0.079674
C72   C     C_3   0.892632 0.432258 0.257923 -0.102802
C73   C     C_3   0.026052 0.518269 0.795530 0.027147
C74   C     C_3   0.481677 0.507939 0.795469 0.027003
C75   C     C_3   0.491438 0.973103 0.795414 0.026983
C76   C     C_3   0.509353 0.004887 0.298681 0.020300
C77   C     C_3   0.500033 0.489646 0.297736 0.022856
C78   C     C_3   0.979294 0.496602 0.296564 0.021735
C79   C     C_3   0.044078 0.440199 0.731935 -0.130053
C80   C     C_3   0.560854 0.603937 0.732041 -0.129780
C81   C     C_3   0.395923 0.956480 0.731595 -0.129742
C82   C     C_3   0.443035 0.036141 0.234277 -0.135794
C83   C     C_3   0.597948 0.550135 0.233302 -0.127699
C84   C     C_3   0.973947 0.402768 0.234063 -0.136648
Cr1   Cr    Cr6+3 0.504830 0.254570 0.500510 1.024019
Cr2   Cr    Cr6+3 0.745430 0.250260 0.500510 1.024328
Cr3   Cr    Cr6+3 0.749740 0.495170 0.500510 1.025040
Cr4   Cr    Cr6+3 0.254570 0.504830 0.000510 1.029725
Cr5   Cr    Cr6+3 0.250260 0.745430 0.000510 1.033678
Cr6   Cr    Cr6+3 0.495170 0.749740 0.000510 1.034028
H1    H     H_    0.948250 0.630639 0.780326 0.132150
H2    H     H_    0.367972 0.317865 0.780018 0.131833
H3    H     H_    0.681609 0.049329 0.780648 0.132087
H4    H     H_    0.597450 0.901296 0.284961 0.132916
H5    H     H_    0.309241 0.416350 0.283401 0.141387
H6    H     H_    0.045440 0.684831 0.280231 0.134171
H7    H     H_    0.812139 0.426322 0.732999 0.102204
H8    H     H_    0.572421 0.384718 0.733556 0.102323
H9    H     H_    0.615497 0.187328 0.733729 0.102244
H10   H     H_    0.392467 0.790141 0.236059 0.093499
H11   H     H_    0.419471 0.624426 0.236929 0.101671
H12   H     H_    0.197482 0.629922 0.237931 0.099863
H13   H     H_    0.072090 0.386097 0.716492 0.121230
H14   H     H_    0.615667 0.686039 0.716739 0.120662
H15   H     H_    0.313950 0.929287 0.715961 0.120365
H16   H     H_    0.399154 0.074388 0.217623 0.110860
H17   H     H_    0.679882 0.590156 0.216840 0.099129
H18   H     H_    0.955221 0.323589 0.218080 0.096260
H19   H     H_    0.206147 0.588064 0.765965 0.105607
H20   H     H_    0.413562 0.619399 0.765339 0.106160
H21   H     H_    0.379852 0.793515 0.765075 0.105711
H22   H     H_    0.603346 0.186144 0.268493 0.096564
H23   H     H_    0.571676 0.382384 0.266125 0.100041
H24   H     H_    0.803960 0.375967 0.264208 0.097196
O1    O     O_R   0.479630 0.139450 0.552170 -0.511890
O2    O     O_R   0.860550 0.340180 0.552170 -0.511587
O3    O     O_R   0.659820 0.520370 0.552170 -0.512123
O4    O     O_R   0.139450 0.479630 0.052170 -0.512689
O5    O     O_R   0.340180 0.860550 0.052170 -0.509216
O6    O     O_R   0.520370 0.659820 0.052170 -0.508068
O7    O     O_R   0.516200 0.360080 0.548600 -0.500309
O8    O     O_R   0.639920 0.156120 0.548600 -0.500323
O9    O     O_R   0.843880 0.483800 0.548600 -0.500059
O10   O     O_R   0.360080 0.516200 0.048600 -0.499470
O11   O     O_R   0.156120 0.639920 0.048600 -0.495542
O12   O     O_R   0.483800 0.843880 0.048600 -0.496257
O13   O     O_R   0.478560 0.139320 0.448720 -0.507547
O14   O     O_R   0.860680 0.339240 0.448720 -0.507999
O15   O     O_R   0.660760 0.521440 0.448720 -0.506725
O16   O     O_R   0.139320 0.478560 0.948720 -0.506104
O17   O     O_R   0.339240 0.860680 0.948720 -0.506170
O18   O     O_R   0.521440 0.660760 0.948720 -0.506358
O19   O     O_R   0.515210 0.359960 0.452710 -0.503313
O20   O     O_R   0.640040 0.155250 0.452710 -0.502627
O21   O     O_R   0.844750 0.484790 0.452710 -0.502998
O22   O     O_R   0.359960 0.515210 0.952710 -0.502567
O23   O     O_R   0.155250 0.640040 0.952710 -0.502713
O24   O     O_R   0.484790 0.844750 0.952710 -0.502931
O25   O     O_3   0.666667 0.333333 0.499990 -0.249498
O26   O     O_3   0.333333 0.666667 0.999990 -0.253948
N1    N     N_2   0.126254 0.709157 0.706705 -0.528342
H25   H     H_    0.184639 0.712863 0.683605 0.244776
C85   C     C_3   0.063102 0.755379 0.687501 -0.313540
H26   H     H_    0.119445 0.837672 0.672627 0.131198
H27   H     H_    0.013985 0.764926 0.715908 0.148523
H28   H     H_    0.007962 0.702456 0.658697 0.154218
N2    N     N_2   0.291496 0.418637 0.705881 -0.528640
H29   H     H_    0.288517 0.473671 0.682691 0.244919
C86   C     C_3   0.244527 0.309193 0.686623 -0.313749
H30   H     H_    0.162468 0.283861 0.671424 0.131570
H31   H     H_    0.234228 0.250246 0.715068 0.148358
H32   H     H_    0.297383 0.306609 0.658053 0.154266
N3    N     N_2   0.581068 0.872315 0.706370 -0.528466
H33   H     H_    0.526061 0.814215 0.683080 0.244881
C87   C     C_3   0.690603 0.934884 0.687408 -0.313689
H34   H     H_    0.715972 0.878177 0.672438 0.131245
H35   H     H_    0.749494 0.983690 0.715975 0.148581
H36   H     H_    0.693281 0.990229 0.658724 0.154117
N4    N     N_2   0.699696 0.075424 0.209963 -0.508925
H37   H     H_    0.713185 0.135289 0.185508 0.246976
C88   C     C_3   0.791455 0.105467 0.241533 -0.316465
H38   H     H_    0.866755 0.132441 0.220237 0.132809
H39   H     H_    0.802572 0.172685 0.265667 0.137881
H40   H     H_    0.778706 0.034054 0.262900 0.163281
N5    N     N_2   0.364434 0.305564 0.207931 -0.515162
H41   H     H_    0.313536 0.310429 0.182879 0.254461
C89   C     C_3   0.306916 0.213029 0.239230 -0.322800
H42   H     H_    0.365533 0.205125 0.263062 0.156368
H43   H     H_    0.246370 0.222258 0.260946 0.138480
H44   H     H_    0.262217 0.137562 0.217489 0.134145
N6    N     N_2   0.881561 0.579581 0.203513 -0.514539
H45   H     H_    0.856612 0.621585 0.225316 0.237359
C90   C     C_3   0.795744 0.501392 0.172611 -0.304521
H46   H     H_    0.762878 0.544092 0.150811 0.147822
H47   H     H_    0.728101 0.436953 0.194026 0.131485
H48   H     H_    0.827836 0.462550 0.148079 0.159979
C91   C     C_R   0.895243 0.304090 0.797690 0.041538
C92   C     C_R   0.810963 0.287747 0.828976 -0.104799
C93   C     C_R   0.765607 0.197999 0.859767 -0.119669
C94   C     C_R   0.803918 0.123820 0.859472 -0.105960
C95   C     C_R   0.886347 0.138337 0.827785 -0.124738
C96   C     C_R   0.931946 0.228098 0.796952 -0.099275
H49   H     H_    0.782427 0.346025 0.830332 0.094564
H50   H     H_    0.701271 0.186322 0.884065 0.107809
H51   H     H_    0.768844 0.054454 0.883361 0.119777
H52   H     H_    0.915579 0.080537 0.827401 0.101151
H53   H     H_    0.997826 0.239626 0.773678 0.102651
C97   C     C_R   0.695805 0.589913 0.798354 0.041405
C98   C     C_R   0.711737 0.521299 0.829490 -0.104941
C99   C     C_R   0.801718 0.564957 0.860374 -0.119599
C100  C     C_R   0.876500 0.677400 0.860349 -0.105386
C101  C     C_R   0.862275 0.746021 0.828876 -0.124677
C102  C     C_R   0.772316 0.702586 0.797931 -0.099731
H54   H     H_    0.653069 0.434504 0.830606 0.094665
H55   H     H_    0.813120 0.511760 0.884532 0.107624
H56   H     H_    0.946053 0.711116 0.884307 0.120090
H57   H     H_    0.920507 0.833027 0.828716 0.101632
H58   H     H_    0.761100 0.757461 0.774789 0.102539
C103  C     C_R   0.409776 0.105312 0.797783 0.041491
C104  C     C_R   0.478230 0.189614 0.829194 -0.104769
C105  C     C_R   0.434402 0.235663 0.859909 -0.119240
C106  C     C_R   0.321951 0.197943 0.859452 -0.105633
C107  C     C_R   0.253501 0.115365 0.827697 -0.124901
C108  C     C_R   0.297106 0.069136 0.796912 -0.099388
H59   H     H_    0.565011 0.217692 0.830681 0.094320
H60   H     H_    0.487461 0.300054 0.884289 0.107865
H61   H     H_    0.288099 0.233545 0.883289 0.119824
H62   H     H_    0.166490 0.086556 0.827200 0.101234
H63   H     H_    0.242342 0.003212 0.773557 0.102956
C109  C     C_R   0.292864 0.895259 0.299588 0.042669
C110  C     C_R   0.217900 0.931819 0.292721 -0.095839
C111  C     C_R   0.125484 0.893268 0.321741 -0.123104
C112  C     C_R   0.106781 0.817086 0.357505 -0.109038
C113  C     C_R   0.179735 0.778261 0.363826 -0.116884
C114  C     C_R   0.272376 0.817075 0.334971 -0.100510
H64   H     H_    0.231467 0.991029 0.265523 0.090265
H65   H     H_    0.068506 0.922607 0.316550 0.098715
H66   H     H_    0.035151 0.787153 0.379878 0.119524
H67   H     H_    0.164810 0.718528 0.391212 0.109602
H68   H     H_    0.329662 0.788307 0.340919 0.094260
C115  C     C_R   0.626859 0.706025 0.299022 0.040780
C116  C     C_R   0.737813 0.775896 0.288122 -0.090814
C117  C     C_R   0.801072 0.870183 0.315298 -0.126503
C118  C     C_R   0.754310 0.895101 0.353578 -0.112290
C119  C     C_R   0.643994 0.825950 0.364682 -0.120426
C120  C     C_R   0.580184 0.732170 0.337313 -0.105518
H69   H     H_    0.775903 0.757556 0.258967 0.096815
H70   H     H_    0.886447 0.923986 0.306692 0.093835
H71   H     H_    0.803449 0.968166 0.374510 0.113936
H72   H     H_    0.607643 0.845528 0.394178 0.111094
H73   H     H_    0.494692 0.679410 0.346205 0.101530
C121  C     C_R   0.118889 0.426160 0.304409 0.036954
C122  C     C_R   0.085968 0.314284 0.305845 -0.105326
C123  C     C_R   0.132116 0.275408 0.339190 -0.127438
C124  C     C_R   0.211282 0.347798 0.371269 -0.102224
C125  C     C_R   0.244697 0.459272 0.369950 -0.120824
C126  C     C_R   0.198641 0.498353 0.336698 -0.107706
H74   H     H_    0.023085 0.256669 0.282065 0.091973
H75   H     H_    0.106188 0.189089 0.340266 0.100940
H76   H     H_    0.247061 0.317646 0.396973 0.118348
H77   H     H_    0.306060 0.515324 0.394741 0.104279
H78   H     H_    0.223428 0.584355 0.336695 0.098907

loop_
_geom_bond_atom_site_label_1
_geom_bond_atom_site_label_2
_ccdc_geom_bond_type
C68   C80   S    
C85   H28   S    
C15   C75   S    
N6    H45   S    
C13   C79   S    
C9    C45   S    
C99   C100  A    
Cr1   O19   S    
C72   H24   S    
C53   H5    S    
C124  H76   S    
C31   C61   T    
C11   C47   S    
C117  C118  A    
Cr4   O16   S    
C12   C48   S    
C1    C62   S    
C88   H38   S    
C19   H7    S    
C86   H30   S    
C15   C81   S    
N5    H41   S    
Cr5   O11   S    
C95   C96   A    
C10   C22   S    
C48   C54   S    
C40   O22   A    
C12   C84   S    
C17   C23   S    
C11   C35   S    
C126  H78   S    
C80   H14   S    
C18   C24   S    
C14   C74   S    
C22   C52   S    
N2    C86   S    
C51   C75   S    
C34   C64   T    
Cr3   O3    S    
C113  H67   S    
C86   H31   S    
C41   O16   A    
C47   N5    S    
C36   C66   T    
C21   C51   S    
C42   O24   A    
C111  H65   S    
C45   C51   S    
C3    C61   S    
C68   C74   S    
C120  H73   S    
C104  H59   S    
C46   C52   S    
C44   N2    S    
C14   C97   S    
C125  C126  A    
C71   H23   S    
Cr2   O2    S    
C4    C65   S    
C105  C106  A    
C6    C64   S    
C11   C23   S    
C100  H56   S    
C41   C55   S    
C7    C19   S    
C72   C78   S    
N2    H29   S    
C88   H39   S    
C38   C58   S    
C98   H54   S    
C67   H19   S    
Cr4   O26   S    
C24   H12   S    
Cr5   O5    S    
C3    O9    A    
C104  C105  A    
C40   C56   S    
C29   C59   T    
C30   C60   T    
C108  H63   S    
Cr2   O8    S    
C20   C50   S    
C124  C125  A    
N4    C88   S    
Cr1   O13   S    
C52   H4    S    
C42   O17   A    
C67   C73   S    
C7    C43   S    
C12   C36   S    
C122  C123  A    
Cr1   O25   S    
C83   H17   S    
C41   O23   A    
C92   H49   S    
Cr4   O10   S    
C47   C53   S    
Cr6   O18   S    
C37   C59   S    
C90   H47   S    
C110  H64   S    
C40   O18   A    
C103  C104  A    
N5    C89   S    
C118  C119  A    
C87   H36   S    
C9    C33   S    
C79   H13   S    
C98   C99   A    
C49   H1    S    
C27   C75   S    
C42   C57   S    
C16   C82   S    
Cr6   O24   S    
Cr2   O20   S    
C38   O13   A    
C89   H44   S    
C71   C83   S    
C2    O8    A    
C81   H15   S    
C33   C63   T    
C7    C31   S    
C106  C107  A    
C13   C19   S    
C45   C69   S    
C100  C101  A    
C8    C32   S    
C14   C20   S    
C118  H71   S    
Cr1   O1    S    
C17   C115  S    
C6    O12   A    
C89   H43   S    
C27   C57   T    
C86   H32   S    
C89   H42   S    
C117  H70   S    
C43   C49   S    
C39   O21   A    
C11   C83   S    
C90   H46   S    
Cr2   O14   S    
C115  C120  A    
C10   C82   S    
C97   C98   A    
C17   C83   S    
Cr6   O6    S    
C125  H77   S    
C53   C77   S    
C122  H74   S    
C110  C111  A    
C10   C46   S    
C115  C116  A    
Cr3   O21   S    
C48   N6    S    
C15   C103  S    
C2    O1    A    
C19   C49   S    
C18   C84   S    
N4    H37   S    
C112  C113  A    
C105  H60   S    
Cr5   O26   S    
C47   C71   S    
C17   C77   S    
C119  C120  A    
Cr6   O12   S    
C20   H8    S    
C10   C34   S    
C68   H20   S    
C101  H57   S    
Cr1   O7    S    
C87   H35   S    
C50   C74   S    
Cr4   O22   S    
N3    C87   S    
C72   C84   S    
C70   H22   S    
Cr2   O25   S    
C51   H3    S    
C69   C81   S    
C99   H55   S    
C50   H2    S    
C18   C78   S    
C8    C20   S    
C4    O10   A    
C13   C73   S    
C97   C102  A    
C109  C110  A    
C14   C80   S    
C106  H61   S    
C70   C76   S    
C121  C126  A    
C49   C73   S    
C44   C68   S    
C45   N3    S    
C123  C124  A    
C48   C72   S    
Cr4   O4    S    
C28   C76   S    
C6    O5    A    
C71   C77   S    
C88   H40   S    
C2    C63   S    
C7    C79   S    
C91   C96   A    
C93   H50   S    
C90   H48   S    
C44   C50   S    
C85   H27   S    
C38   O20   A    
C16   C22   S    
C39   O14   A    
C16   C76   S    
C54   H6    S    
C4    O6    A    
C8    C44   S    
Cr3   O25   S    
C5    C66   S    
C52   C76   S    
C26   C56   T    
Cr6   O26   S    
C95   H52   S    
C28   C58   T    
N6    C90   S    
C107  H62   S    
C12   C24   S    
Cr5   O23   S    
C119  H72   S    
Cr5   O17   S    
C5    O4    A    
C3    O2    A    
C112  H66   S    
C101  C102  A    
Cr3   O15   S    
N1    C85   S    
C85   H26   S    
C25   C55   T    
C46   N4    S    
C18   C121  S    
N1    H25   S    
Cr3   O9    S    
C69   H21   S    
C9    C21   S    
C103  C108  A    
C116  H69   S    
C21   H9    S    
C39   C60   S    
C113  C114  A    
C23   C53   S    
C16   C109  S    
C114  H68   S    
C26   C74   S    
C13   C91   S    
C37   O15   A    
C69   C75   S    
C25   C73   S    
C96   H53   S    
C82   H16   S    
C116  C117  A    
C70   C82   S    
C37   O19   A    
C1    O7    A    
C46   C70   S    
C22   H10   S    
C43   N1    S    
C94   H51   S    
C109  C114  A    
C23   H11   S    
C32   C62   T    
C93   C94   A    
C30   C78   S    
C121  C122  A    
C15   C21   S    
C29   C77   S    
C111  C112  A    
C43   C67   S    
C91   C92   A    
C5    O11   A    
C87   H34   S    
C8    C80   S    
C35   C65   T    
C123  H75   S    
C107  C108  A    
N3    H33   S    
C1    O3    A    
C84   H18   S    
C24   C54   S    
C67   C79   S    
C94   C95   A    
C102  H58   S    
C9    C81   S    
C92   C93   A    
C54   C78   S    
