data_mof_unit_35226.cif
_audit_creation_date              2012-12-11T17:20:08-0500
_audit_creation_method            fapswitch 2.2
_symmetry_space_group_name_H-M    P1
_symmetry_Int_Tables_number       1
_space_group_crystal_system       triclinic
_cell_length_a                    8.299101
_cell_length_b                    16.451436
_cell_length_c                    22.854723
_cell_angle_alpha                 96.744615
_cell_angle_beta                  89.778034
_cell_angle_gamma                 93.238054
_cell_volume                      3093.84990096

loop_
_atom_site_label
_atom_site_type_symbol
_atom_type_description
_atom_site_fract_x
_atom_site_fract_y
_atom_site_fract_z
_atom_type_partial_charge
Ba1   Ba    Ba6+2 0.848660 0.538140 0.472240 1.733939
Ba2   Ba    Ba6+2 0.341160 0.461930 0.527770 1.781910
C1    C     C_3   0.680559 0.839991 0.323515 -0.326550
C2    C     C_3   0.645593 0.755147 0.342564 0.385864
C3    C     C_3   0.627782 0.331243 0.339021 0.855729
C4    C     C_3   0.615294 0.303171 0.273248 -0.315622
C5    C     C_3   0.974799 0.261871 0.672053 0.886288
C6    C     C_3   0.964895 0.238040 0.734558 -0.120285
C7    C     C_3   0.470128 0.262712 0.679031 0.413793
C8    C     C_3   0.476615 0.183490 0.706947 -0.355444
C9    C     C_R   0.336788 0.523243 0.332011 -0.192581
C10   C     C_R   0.083536 0.579172 0.941914 -0.031963
C11   C     C_R   0.039879 0.576598 0.881714 0.595554
C12   C     C_3   0.154761 0.741698 0.311819 0.418584
C13   C     C_R   0.946594 0.435454 0.879288 0.579620
C14   C     C_R   0.992698 0.435489 0.938971 -0.022829
C15   C     C_R   0.060529 0.507983 0.970517 -0.048474
C16   C     C_R   0.148939 0.651484 0.974363 -0.073663
C17   C     C_R   0.190073 0.653165 0.033864 -0.065443
C18   C     C_R   0.169203 0.582325 0.062889 -0.040847
C19   C     C_R   0.105074 0.509361 0.030960 -0.049583
C20   C     C_R   0.972429 0.364592 0.967927 -0.078446
C21   C     C_R   0.018890 0.365584 0.026863 -0.074106
C22   C     C_R   0.085344 0.437786 0.059221 -0.021605
C23   C     C_3   0.243329 0.813490 0.286471 0.550196
C24   C     C_R   0.133531 0.439721 0.118938 0.583581
C25   C     C_R   0.210729 0.583116 0.123083 0.600870
C26   C     C_2   0.768698 0.487371 0.771725 -0.129834
C27   C     C_3   0.720036 0.491620 0.707939 -0.107295
C28   C     C_1   0.003194 0.519010 0.686516 0.016539
C29   C     C_2   0.047621 0.522495 0.742812 -0.182785
C30   C     C_2   0.924917 0.504131 0.789075 0.215337
C31   C     C_R   0.397216 0.549119 0.231834 -0.071035
C32   C     C_R   0.441874 0.554424 0.291447 0.026418
C33   C     C_R   0.190045 0.483431 0.314097 -0.028739
C34   C     C_3   0.191316 0.709089 0.594100 0.276361
C35   C     C_R   0.141840 0.479935 0.254534 -0.128918
C36   C     C_R   0.244360 0.513621 0.212481 0.228251
C37   C     C_2   0.864938 0.481992 0.668041 0.370101
C38   C     C_R   0.389740 0.730154 0.471196 -0.292593
C39   C     C_R   0.532591 0.756658 0.500987 0.049296
C40   C     C_R   0.586493 0.840013 0.504537 -0.129643
C41   C     C_R   0.494860 0.896941 0.478761 0.245860
C42   C     C_R   0.346031 0.869092 0.452344 -0.172584
C43   C     C_R   0.292608 0.786421 0.449634 -0.033454
C44   C     C_R   0.627464 0.145241 0.477046 -0.143684
C45   C     C_3   0.217287 0.801420 0.609394 -0.374359
C46   C     C_R   0.685200 0.226557 0.474054 -0.065375
C47   C     C_R   0.723567 0.089800 0.502570 0.268215
C48   C     C_R   0.842883 0.252117 0.494168 -0.032923
C49   C     C_R   0.930906 0.201022 0.525146 0.065075
C50   C     C_R   0.872768 0.119717 0.528276 -0.139413
C51   C     C_3   0.155979 0.289435 0.319861 0.222929
C52   C     C_3   0.067079 0.258017 0.262850 -0.391576
C53   C     C_3   0.633291 0.662583 0.657434 0.377325
C54   C     C_3   0.529637 0.681289 0.712297 -0.301565
H1    H     H_    0.714388 0.751845 0.383728 0.075910
H2    H     H_    0.315798 0.815525 0.642399 0.132177
H3    H     H_    0.250237 0.830912 0.569600 0.067212
H4    H     H_    0.104600 0.827313 0.627857 0.125777
H5    H     H_    0.206141 0.236149 0.337606 0.078631
H6    H     H_    0.260729 0.330950 0.310941 0.032308
H7    H     H_    0.972063 0.210518 0.271237 0.104776
H8    H     H_    0.153295 0.230723 0.229918 0.118227
H9    H     H_    0.009495 0.308847 0.244765 0.137515
H10   H     H_    0.595554 0.600044 0.636498 0.057979
H11   H     H_    0.811847 0.851511 0.316782 0.131274
H12   H     H_    0.567523 0.742060 0.736196 0.113668
H13   H     H_    0.540971 0.633607 0.742386 0.069137
H14   H     H_    0.401469 0.682630 0.699937 0.140851
H15   H     H_    0.514491 0.747291 0.351382 -0.065728
H16   H     H_    0.638706 0.887390 0.357940 0.066477
H17   H     H_    0.751650 0.321004 0.352736 -0.037487
H18   H     H_    0.494281 0.313820 0.256222 0.096091
H19   H     H_    0.707247 0.338209 0.249368 0.087073
H20   H     H_    0.637147 0.236865 0.264536 0.045965
H21   H     H_    0.617465 0.845307 0.281593 0.182194
H22   H     H_    0.002547 0.329047 0.674881 -0.004445
H23   H     H_    0.861566 0.267492 0.757816 0.149340
H24   H     H_    0.943083 0.170456 0.732576 0.110703
H25   H     H_    0.500815 0.249894 0.631566 0.093881
H26   H     H_    0.345818 0.283659 0.683911 0.058164
H27   H     H_    0.388107 0.136728 0.684897 0.100710
H28   H     H_    0.446422 0.194492 0.754499 0.129374
H29   H     H_    0.599204 0.159814 0.702160 0.149895
H30   H     H_    0.001737 0.309441 0.047140 0.121544
H31   H     H_    0.921152 0.307727 0.944951 0.119094
H32   H     H_    0.239302 0.710329 0.057049 0.136403
H33   H     H_    0.481106 0.572641 0.200688 0.109953
H34   H     H_    0.167900 0.707376 0.953893 0.124794
H35   H     H_    0.171919 0.539001 0.755694 0.131347
H36   H     H_    0.676083 0.476457 0.804017 0.108502
H37   H     H_    0.024640 0.452055 0.241172 0.115048
H38   H     H_    0.372935 0.526668 0.377711 0.103155
H39   H     H_    0.246801 0.705005 0.330323 -0.058068
H40   H     H_    0.508587 0.125889 0.459588 0.099934
H41   H     H_    0.270539 0.912128 0.434814 0.079806
H42   H     H_    0.696847 0.860163 0.528307 0.119680
H43   H     H_    0.942587 0.079923 0.551497 0.088265
H44   H     H_    0.347108 0.666526 0.469334 0.066941
H45   H     H_    0.155532 0.852209 0.267935 0.012774
H46   H     H_    0.313778 0.851874 0.321692 -0.080742
H47   H     H_    0.305339 0.683473 0.577897 0.008317
H48   H     H_    0.097539 0.696633 0.559287 0.071591
N1    N     N_R   0.971869 0.505253 0.850917 -0.419228
N2    N     N_R   0.194593 0.512099 0.150747 -0.427910
N3    N     N_2   0.543787 0.982022 0.479051 -0.236148
N4    N     N_2   0.674996 0.004877 0.504230 -0.230392
O1    O     O_2   0.899090 0.455560 0.360740 -0.411049
O2    O     O_3   0.615345 0.723078 0.620017 -0.646151
O3    O     O_3   0.040251 0.772684 0.353356 -0.652624
O4    O     O_2   0.290610 0.544470 0.639300 -0.491866
O5    O     O_3   0.050220 0.543670 0.568220 -0.437493
O6    O     O_3   0.537630 0.397360 0.604330 -0.402818
O7    O     O_3   0.142906 0.675298 0.645077 -0.647739
O8    O     O_3   0.634180 0.402670 0.470930 -0.387376
O9    O     O_3   0.127750 0.355750 0.575620 -0.416353
O10   O     O_2   0.267891 0.212709 0.546042 -0.516527
O11   O     O_3   0.095940 0.218700 0.640934 -0.644953
O12   O     O_3   0.139470 0.456390 0.431790 -0.463856
O13   O     O_3   0.555510 0.597400 0.529070 -0.484459
O14   O     O_2   0.384010 0.302440 0.472310 -0.447329
O15   O     O_3   0.515575 0.285811 0.369374 -0.694873
O16   O     O_2   0.386016 0.440466 0.705808 -0.535334
O17   O     O_3   0.580749 0.321814 0.707570 -0.583949
O18   O     O_2   0.060406 0.638310 0.856998 -0.588455
O19   O     O_2   0.884371 0.373018 0.852546 -0.615275
O20   O     O_2   0.123297 0.376475 0.142206 -0.613756
O21   O     O_2   0.260111 0.647547 0.150956 -0.517761
O22   O     O_3   0.652060 0.602710 0.395680 -0.465561
O23   O     O_2   0.773902 0.543529 0.292295 -0.464514
O24   O     O_3   0.047093 0.324250 0.361610 -0.657979
O25   O     O_3   0.693021 0.695306 0.297804 -0.593043
O26   O     O_2   0.805680 0.697590 0.527730 -0.471606
O27   O     O_3   0.061950 0.644310 0.424380 -0.480853
O28   O     O_2   0.959983 0.790903 0.464642 -0.484642
P1    P     P_3+3 0.070660 0.431690 0.369620 1.011490
P2    P     P_3+3 0.630590 0.685720 0.544880 0.982031
P3    P     P_3+3 0.089059 0.750222 0.423857 0.928171
P4    P     P_3+3 0.119040 0.568370 0.630390 1.026100
P5    P     P_3+3 0.107353 0.247241 0.569597 1.019915
P6    P     P_3+3 0.640158 0.598272 0.318747 1.037326
P7    P     P_3+3 0.558297 0.302156 0.445075 1.003969
P8    P     P_3+3 0.552968 0.415863 0.681366 1.045437
N5    N     N_3   0.800992 0.665137 0.675071 -0.538366
H49   H     H_    0.834291 0.723406 0.696474 0.199018
H50   H     H_    0.863287 0.660427 0.635493 0.175643
F1    F     F_    0.595329 0.413037 0.348853 -0.713044
F2    F     F_    0.347090 0.784654 0.242303 -0.677949
F3    F     F_    0.826416 0.242283 0.645068 -0.756805
N6    N     N_3   0.114475 0.263248 0.766747 -0.520658
H51   H     H_    0.103096 0.244061 0.808662 0.207999
H52   H     H_    0.125693 0.327347 0.772901 0.192016
N7    N     N_3   0.071575 0.688848 0.264309 -0.425644
H53   H     H_    0.017499 0.638840 0.282475 0.195683
H54   H     H_    0.979055 0.720493 0.247919 0.209772
F4    F     F_    0.856529 0.431819 0.616269 -0.684723
N8    N     N_3   0.915270 0.330523 0.484045 -0.380614
H55   H     H_    0.873195 0.345067 0.444276 0.173674
H56   H     H_    0.036372 0.322707 0.473528 0.191027

loop_
_geom_bond_atom_site_label_1
_geom_bond_atom_site_label_2
_ccdc_geom_bond_type
C53   C54   S    
C8    H29   S    
C39   C40   A    
O4    P4    D    
C17   C18   A    
O10   P5    D    
C24   N2    Am   
N5    H49   S    
O3    P3    S    
C5    C6    S    
C52   H9    S    
C51   C52   S    
C48   N8    S    
O27   P3    S    
C10   C11   A    
C44   C47   A    
Ba2   O4    S    
O25   P6    S    
C34   H47   S    
O1    P1    D    
C26   C27   S    
C33   C35   A    
C22   C24   A    
Ba1   Ba2   S    
C40   H42   S    
C28   C29   D    
Ba2   O5    S    
C23   H46   S    
C53   N5    S    
C7    O17   S    
C52   H7    S    
O17   P8    S    
C13   C14   A    
C5    F3    S    
C8    H27   S    
C43   P3    S    
C34   C45   S    
C23   F2    S    
C16   C17   A    
C51   H6    S    
Ba1   O1    S    
C45   H4    S    
C51   H5    S    
Ba2   O14   S    
C14   C15   A    
C21   H30   S    
C2    H1    S    
C6    H23   S    
C21   C22   A    
Ba1   O8    S    
C7    C8    S    
N7    H54   S    
C7    H26   S    
C46   C48   A    
C3    F1    S    
C13   O19   D    
C12   N7    S    
N8    H56   S    
C38   C43   A    
Ba1   O5    S    
O14   P7    D    
O28   P3    D    
N5    H50   S    
Ba2   O9    S    
C4    H18   S    
C47   N4    S    
C49   P5    S    
C12   O3    S    
C44   C46   A    
C28   P4    S    
C49   C50   A    
C16   H34   S    
C5    O11   S    
O2    P2    S    
C6    N6    S    
C11   N1    Am   
Ba1   O22   S    
Ba2   O12   S    
C24   O20   D    
C25   N2    Am   
C48   C49   A    
O24   P1    S    
C54   H12   S    
C27   P8    S    
C15   C19   A    
C46   P7    S    
Ba1   O12   S    
O6    P8    S    
O13   P2    S    
C36   N2    S    
O9    P5    S    
C41   C42   A    
O26   P2    D    
C35   C36   A    
C31   H33   S    
O8    P7    S    
C42   H41   S    
C29   C30   S    
C26   C30   D    
N6    H51   S    
C47   C50   A    
C27   C37   S    
C31   C32   A    
N7    H53   S    
O5    P4    S    
C35   H37   S    
C26   H36   S    
C51   O24   S    
C41   N3    S    
C20   H31   S    
C18   C19   A    
C39   P2    S    
O23   P6    D    
C5    H22   S    
C11   O18   D    
C9    H38   S    
C38   C39   A    
C17   H32   S    
C54   H14   S    
C30   N1    S    
C53   O2    S    
N8    H55   S    
O11   P5    S    
C40   C41   A    
N3    N4    D    
O15   P7    S    
Ba1   O26   S    
C1    H21   S    
C12   H39   S    
C53   H10   S    
Ba1   P1    S    
C42   C43   A    
Ba2   O13   S    
C32   P6    S    
C14   C20   A    
C9    C32   A    
C1    H11   S    
C38   H44   S    
C4    H20   S    
C18   C25   A    
C3    O15   S    
C50   H43   S    
C29   H35   S    
C31   C36   A    
C34   H48   S    
Ba2   P4    S    
C13   N1    Am   
C9    C33   A    
C1    H16   S    
C33   P1    S    
C45   H2    S    
Ba2   O6    S    
C23   H45   S    
C3    C4    S    
C52   H8    S    
C25   O21   D    
C8    H28   S    
C28   C37   D    
Ba2   O8    S    
N6    H52   S    
C12   C23   S    
C3    H17   S    
O22   P6    S    
Ba1   O13   S    
C45   H3    S    
C10   C15   A    
C44   H40   S    
O7    P4    S    
C54   H13   S    
C19   C22   A    
C10   C16   A    
C6    H24   S    
C20   C21   A    
O16   P8    D    
O12   P1    S    
Ba1   O27   S    
C34   O7    S    
C2    H15   S    
C37   F4    S    
Ba1   P2    S    
C1    C2    S    
C7    H25   S    
C2    O25   S    
C4    H19   S    
