data_mof_unit_21275.cif
_audit_creation_date              2012-12-11T17:19:12-0500
_audit_creation_method            fapswitch 2.2
_symmetry_space_group_name_H-M    P1
_symmetry_Int_Tables_number       1
_space_group_crystal_system       triclinic
_cell_length_a                    14.817341
_cell_length_b                    7.277197
_cell_length_c                    13.346786
_cell_angle_alpha                 89.999312
_cell_angle_beta                  100.135908
_cell_angle_gamma                 90.001376
_cell_volume                      1416.7057528

loop_
_atom_site_label
_atom_site_type_symbol
_atom_type_description
_atom_site_fract_x
_atom_site_fract_y
_atom_site_fract_z
_atom_type_partial_charge
O1    O     O_R   0.648180 0.355050 0.151550 -0.543879
O2    O     O_R   0.351820 0.644950 0.848450 -0.543878
O3    O     O_R   0.851820 0.855050 0.348450 -0.543871
O4    O     O_R   0.148180 0.144950 0.651550 -0.543871
O5    O     O_R   0.835240 0.681980 0.154280 -0.524393
O6    O     O_R   0.164760 0.318020 0.845720 -0.524394
O7    O     O_R   0.664760 0.181980 0.345720 -0.524413
O8    O     O_R   0.335240 0.818020 0.654280 -0.524414
C1    C     C_R   0.863918 0.516590 0.133353 0.803131
C2    C     C_R   0.136082 0.483410 0.866646 0.803133
C3    C     C_R   0.636074 0.016587 0.366637 0.803104
C4    C     C_R   0.363925 0.983413 0.633362 0.803106
O9    O     O_R   0.647870 0.684600 0.139630 -0.531367
O10   O     O_R   0.352130 0.315400 0.860370 -0.531367
O11   O     O_R   0.852130 0.184600 0.360370 -0.531382
O12   O     O_R   0.147870 0.815400 0.639630 -0.531384
O13   O     O_R   0.663110 0.857440 0.333700 -0.541031
O14   O     O_R   0.336890 0.142560 0.666300 -0.541031
O15   O     O_R   0.836890 0.357440 0.166300 -0.541034
O16   O     O_R   0.163110 0.642560 0.833700 -0.541033
C5    C     C_R   0.614871 0.516060 0.113520 0.824501
C6    C     C_R   0.385129 0.483940 0.886480 0.824504
C7    C     C_R   0.885130 0.016061 0.386478 0.824599
C8    C     C_R   0.114870 0.983939 0.613522 0.824601
O17   O     O_3   0.755220 0.522230 0.313690 -0.381999
O18   O     O_3   0.244780 0.477770 0.686310 -0.382001
O19   O     O_3   0.744780 0.022230 0.186310 -0.381966
O20   O     O_3   0.255220 0.977770 0.813690 -0.381964
V1    V     V_3+5 0.749030 0.796100 0.238190 1.494595
V2    V     V_3+5 0.250970 0.203900 0.761810 1.494595
V3    V     V_3+5 0.750970 0.296100 0.261810 1.494537
V4    V     V_3+5 0.249030 0.703900 0.738190 1.494537
C9    C     C_1   0.966103 0.005387 0.466628 -0.134735
C10   C     C_1   0.033896 0.994613 0.533372 -0.134735
C11   C     C_1   0.533897 0.505386 0.033372 -0.134849
C12   C     C_1   0.466103 0.494614 0.966628 -0.134847
H1    H     H_    0.226686 0.770749 0.293393 0.168553
H2    H     H_    0.773305 0.229288 0.706602 0.168549
H3    H     H_    0.273208 0.270322 0.206582 0.168487
H4    H     H_    0.726788 0.729663 0.793415 0.168490
C13   C     C_R   0.560999 0.064391 0.715955 -0.026018
C14   C     C_R   0.438998 0.935621 0.284042 -0.026023
C15   C     C_R   0.939037 0.564520 0.784057 -0.025970
C16   C     C_R   0.060961 0.435473 0.215941 -0.025967
C17   C     C_R   0.645301 0.155709 0.745882 0.584777
C18   C     C_R   0.354692 0.844317 0.254114 0.584775
C19   C     C_R   0.854775 0.655966 0.754139 0.584802
C20   C     C_R   0.145221 0.344019 0.245858 0.584804
C21   C     C_R   0.705769 0.173413 0.679272 -0.252463
C22   C     C_R   0.294224 0.826614 0.320724 -0.252454
C23   C     C_R   0.794302 0.673697 0.820742 -0.252525
C24   C     C_R   0.205695 0.326292 0.179255 -0.252531
C25   C     C_R   0.682933 0.111872 0.580123 0.554009
C26   C     C_R   0.317063 0.888141 0.419876 0.554010
C27   C     C_R   0.817102 0.612056 0.919877 0.553993
C28   C     C_R   0.182896 0.387943 0.080121 0.553995
C29   C     C_R   0.591991 0.053306 0.539441 -0.055542
C30   C     C_R   0.408007 0.946699 0.460557 -0.055547
C31   C     C_R   0.908024 0.553393 0.960560 -0.055458
C32   C     C_R   0.091975 0.446605 0.039439 -0.055453
C33   C     C_R   0.527862 0.035318 0.607934 -0.131403
C34   C     C_R   0.472136 0.964687 0.392064 -0.131402
C35   C     C_R   0.972155 0.535385 0.892073 -0.131419
C36   C     C_R   0.027843 0.464613 0.107925 -0.131419
C37   C     C_R   0.565314 0.012048 0.433324 -0.074879
C38   C     C_R   0.434685 0.987953 0.566675 -0.074880
C39   C     C_R   0.934681 0.512060 0.066669 -0.074879
C40   C     C_R   0.065319 0.487939 0.933330 -0.074878
F1    F     F_    0.672183 0.223162 0.841171 -0.679059
F2    F     F_    0.327806 0.776873 0.158823 -0.679057
F3    F     F_    0.827935 0.723498 0.658859 -0.679047
F4    F     F_    0.172059 0.276479 0.341137 -0.679047
C41   C     C_3   0.513707 0.981724 0.798957 -0.361694
C42   C     C_3   0.572889 0.949133 0.903782 -0.562134
H5    H     H_    0.639330 0.885356 0.896847 0.264315
H6    H     H_    0.584124 0.078945 0.947809 0.255570
H7    H     H_    0.536323 0.855332 0.948260 0.180228
H8    H     H_    0.456177 0.070002 0.811405 0.193865
H9    H     H_    0.488030 0.843454 0.773047 0.170411
C43   C     C_3   0.486294 0.018281 0.201042 -0.361690
C44   C     C_3   0.427118 0.050873 0.096214 -0.562137
H10   H     H_    0.415878 0.921058 0.052189 0.255576
H11   H     H_    0.360680 0.114669 0.103144 0.264321
H12   H     H_    0.463693 0.144658 0.051735 0.180218
H13   H     H_    0.511973 0.156549 0.226952 0.170412
H14   H     H_    0.543824 0.929996 0.188597 0.193864
C45   C     C_3   0.986287 0.481759 0.701050 -0.361685
C46   C     C_3   0.927070 0.449199 0.596240 -0.562120
H15   H     H_    0.860598 0.385590 0.603201 0.264204
H16   H     H_    0.915898 0.578994 0.552191 0.255530
H17   H     H_    0.963573 0.355274 0.551769 0.180280
H18   H     H_    0.043840 0.569956 0.688579 0.193873
H19   H     H_    0.011931 0.343475 0.726969 0.170393
C47   C     C_3   0.013714 0.518238 0.298949 -0.361683
C48   C     C_3   0.072935 0.550801 0.403757 -0.562124
H20   H     H_    0.084107 0.421008 0.447808 0.255530
H21   H     H_    0.139407 0.614404 0.396792 0.264195
H22   H     H_    0.036434 0.644731 0.448228 0.180285
H23   H     H_    0.988070 0.656522 0.273029 0.170393
H24   H     H_    0.956161 0.430044 0.311423 0.193873
F5    F     F_    0.751899 0.113959 0.525805 -0.693246
F6    F     F_    0.248099 0.886052 0.474195 -0.693245
F7    F     F_    0.748127 0.614135 0.974182 -0.693301
F8    F     F_    0.251872 0.385873 0.025818 -0.693304

loop_
_geom_bond_atom_site_label_1
_geom_bond_atom_site_label_2
_ccdc_geom_bond_type
O17   V3    S    
C16   C20   A    
C45   C46   S    
O1    C5    A    
C27   C31   A    
O19   V1    S    
O13   V1    S    
C41   C42   S    
O3    C7    A    
C11   C12   T    
C13   C33   A    
O15   V3    S    
C44   H10   S    
C48   H22   S    
C15   C35   A    
H2    C21   S    
C16   C36   A    
O7    C3    A    
C22   C26   A    
C42   H6    S    
O9    V1    S    
O10   V2    S    
C26   C30   A    
C14   C43   S    
O4    C8    A    
C27   F7    S    
O1    V3    S    
O2    V4    S    
C14   C18   A    
O3    V1    S    
C43   H14   S    
C31   C39   A    
C33   C38   A    
C30   C38   A    
C48   H20   S    
C25   F5    S    
C7    C9    S    
C42   H7    S    
O2    C6    A    
C41   H8    S    
O14   V2    S    
C47   H24   S    
C14   C34   A    
O11   C7    A    
H3    C24   S    
O12   C8    A    
C45   H18   S    
C20   F4    S    
C44   H11   S    
C1    O15   A    
O5    V1    S    
O7    V3    S    
C42   H5    S    
C17   F1    S    
O8    V4    S    
C36   C39   A    
C28   F8    S    
C2    O16   A    
C25   C29   A    
O18   V4    S    
C19   C23   A    
C4    C38   S    
C8    C10   S    
C28   C32   A    
C1    C39   S    
O5    C1    A    
C43   H13   S    
C46   H17   S    
C17   C21   A    
O8    C4    A    
C9    C10   T    
C41   H9    S    
O9    C5    A    
O11   V3    S    
C19   F3    S    
C30   C34   A    
O6    V2    S    
C46   H16   S    
C44   H12   S    
O16   V4    S    
C35   C40   A    
C3    O13   A    
C34   C37   A    
C26   F6    S    
C29   C37   A    
C43   C44   S    
O6    C2    A    
C48   H21   S    
C29   C33   A    
C5    C11   S    
C2    C40   S    
O12   V4    S    
H4    C23   S    
C6    C12   S    
C18   C22   A    
C31   C35   A    
C32   C36   A    
C15   C45   S    
O10   C6    A    
O20   V2    S    
H1    C22   S    
C47   H23   S    
C21   C25   A    
C45   H19   S    
C23   C27   A    
C47   C48   S    
C18   F2    S    
C16   C47   S    
C13   C41   S    
C24   C28   A    
C20   C24   A    
C46   H15   S    
C32   C40   A    
C4    O14   A    
C13   C17   A    
C15   C19   A    
O4    V2    S    
C3    C37   S    
