data_mof_unit_44819.cif
_audit_creation_date              2012-12-11T15:47:09-0500
_audit_creation_method            fapswitch 2.2
_symmetry_space_group_name_H-M    P1
_symmetry_Int_Tables_number       1
_space_group_crystal_system       triclinic
_cell_length_a                    20.14752
_cell_length_b                    7.274525
_cell_length_c                    13.574157
_cell_angle_alpha                 90.001005
_cell_angle_beta                  102.68817
_cell_angle_gamma                 89.998693
_cell_volume                      1940.89461397

loop_
_atom_site_label
_atom_site_type_symbol
_atom_type_description
_atom_site_fract_x
_atom_site_fract_y
_atom_site_fract_z
_atom_type_partial_charge
O1    O     O_R   0.449560 0.506810 0.599700 -0.532014
O2    O     O_R   0.550440 0.006810 0.400300 -0.532009
O3    O     O_R   0.587960 0.180060 0.595760 -0.542659
O4    O     O_R   0.412040 0.680060 0.404240 -0.542662
C1    C     C_R   0.614511 0.345629 0.619059 0.691583
C2    C     C_R   0.385489 0.845630 0.380939 0.691592
O5    O     O_R   0.452380 0.177430 0.611700 -0.540690
O6    O     O_R   0.547620 0.677430 0.388300 -0.540699
O7    O     O_R   0.413900 0.001890 0.416350 -0.522190
O8    O     O_R   0.586100 0.501890 0.583650 -0.522194
C3    C     C_R   0.436499 0.345542 0.637777 0.706709
C4    C     C_R   0.563501 0.845537 0.362222 0.706704
O9    O     O_3   0.487530 0.337490 0.435890 -0.354721
O10   O     O_3   0.512470 0.837490 0.564110 -0.354720
V1    V     V_3+5 0.502310 0.064660 0.511890 1.572183
V2    V     V_3+5 0.497690 0.564660 0.488110 1.572170
C5    C     C_R   0.608044 0.814614 0.108330 0.445647
C6    C     C_R   0.391968 0.314849 0.891685 0.445640
H1    H     H_    0.516728 0.785815 0.164374 0.187071
H2    H     H_    0.483288 0.286068 0.835650 0.187067
C7    C     C_R   0.602453 0.851962 0.283354 -0.109960
C8    C     C_R   0.397546 0.351987 0.716643 -0.109974
C9    C     C_R   0.930004 0.854761 0.317500 0.368145
C10   C     C_R   0.069996 0.354567 0.682504 0.368148
C11   C     C_R   0.892849 0.850264 0.392440 -0.092803
C12   C     C_R   0.107150 0.349984 0.607563 -0.092807
C13   C     C_R   0.822036 0.853601 0.367494 -0.219899
C14   C     C_R   0.177963 0.353390 0.632507 -0.219896
C15   C     C_R   0.785733 0.862878 0.265503 0.106009
C16   C     C_R   0.214266 0.362826 0.734496 0.106013
C17   C     C_R   0.823774 0.864265 0.188949 0.023262
C18   C     C_R   0.176227 0.364302 0.811051 0.023251
C19   C     C_R   0.713044 0.863975 0.237383 0.037916
C20   C     C_R   0.286955 0.363989 0.762614 0.037929
C21   C     C_R   0.679298 0.852233 0.133132 0.011102
C22   C     C_R   0.320706 0.352386 0.866871 0.011060
C23   C     C_R   0.718464 0.873306 0.058777 -0.035663
C24   C     C_R   0.281536 0.373512 0.941220 -0.035612
C25   C     C_R   0.789296 0.872878 0.087223 -0.253655
C26   C     C_R   0.210704 0.373041 0.912775 -0.253632
C27   C     C_R   0.672725 0.874183 0.310299 -0.214496
C28   C     C_R   0.327269 0.374130 0.689690 -0.214495
C29   C     C_R   0.570730 0.816164 0.183540 -0.133409
C30   C     C_R   0.429280 0.316341 0.816473 -0.133382
C31   C     C_R   0.896001 0.861318 0.215562 -0.156207
C32   C     C_R   0.103999 0.361288 0.784440 -0.156209
H3    H     H_    0.694319 0.897789 0.389208 0.107650
H4    H     H_    0.305670 0.397637 0.610773 0.107639
H5    H     H_    0.797457 0.844418 0.430181 0.132961
H6    H     H_    0.202541 0.344123 0.569822 0.132961
H7    H     H_    0.919032 0.843111 0.471088 0.186397
H8    H     H_    0.080967 0.342700 0.528918 0.186401
H9    H     H_    0.817574 0.885173 0.028193 0.090092
H10   H     H_    0.182426 0.385388 0.971802 0.090093
C33   C     C_R   0.214166 0.023428 0.226622 -0.198366
C34   C     C_R   0.785831 0.523429 0.773382 -0.198403
H11   H     H_    0.187613 0.153332 0.210409 0.117381
H12   H     H_    0.812382 0.653334 0.789599 0.117373
C35   C     C_R   0.280389 0.024623 0.286360 0.015305
C36   C     C_R   0.719608 0.524622 0.713641 0.015311
C37   C     C_R   0.316815 0.856972 0.310109 -0.055301
C38   C     C_R   0.683186 0.356970 0.689889 -0.055324
C39   C     C_R   0.285312 0.694733 0.266974 -0.145077
C40   C     C_R   0.714691 0.194731 0.733020 -0.145120
H13   H     H_    0.312014 0.566630 0.279852 0.173409
H14   H     H_    0.687994 0.066626 0.720136 0.173422
C41   C     C_R   0.219717 0.695185 0.205596 -0.145833
C42   C     C_R   0.780286 0.195185 0.794400 -0.145808
H15   H     H_    0.198023 0.566320 0.173846 0.107128
H16   H     H_    0.801981 0.066320 0.826146 0.107148
C43   C     C_R   0.183151 0.859845 0.184903 -0.012108
C44   C     C_R   0.816848 0.359846 0.815098 -0.012112
O11   O     O_R   0.913920 0.203370 0.916260 -0.543182
O12   O     O_R   0.086080 0.703370 0.083740 -0.543193
O13   O     O_R   0.047620 0.535540 0.888290 -0.534369
O14   O     O_R   0.952380 0.035540 0.111710 -0.534359
C45   C     C_R   0.063774 0.368416 0.862350 0.766729
C46   C     C_R   0.936226 0.868421 0.137651 0.766726
O15   O     O_R   0.912040 0.532780 0.904220 -0.546672
O16   O     O_R   0.087960 0.032780 0.095780 -0.546662
O17   O     O_R   0.949550 0.708160 0.099720 -0.533990
O18   O     O_R   0.050450 0.208160 0.900280 -0.533977
C47   C     C_R   0.885727 0.364833 0.882967 0.719204
C48   C     C_R   0.114273 0.864832 0.117033 0.719203
O19   O     O_3   0.012480 0.375300 0.064060 -0.381410
O20   O     O_3   0.987520 0.875300 0.935940 -0.381406
V3    V     V_3+5 0.997690 0.648180 0.988110 1.481166
V4    V     V_3+5 0.002310 0.148180 0.011890 1.481207
C49   C     C_2   0.309368 0.206214 0.317855 0.349871
H17   H     H_    0.282734 0.298630 0.358675 0.003691
O21   O     O_2   0.360896 0.257764 0.292715 -0.497820
C50   C     C_2   0.690630 0.706213 0.682140 0.349893
H18   H     H_    0.717257 0.798611 0.641305 0.003686
O22   O     O_2   0.639105 0.757781 0.707287 -0.497805
C51   C     C_2   0.689248 0.918122 0.951713 0.542792
H19   H     H_    0.712481 0.862615 0.893194 0.022950
O23   O     O_2   0.642639 0.028157 0.928681 -0.479598
C52   C     C_2   0.310749 0.418396 0.048273 0.542685
H20   H     H_    0.287553 0.362808 0.106809 0.023025
O24   O     O_2   0.357318 0.528557 0.071280 -0.479640
Cl1   Cl    Cl    0.563899 0.732103 0.989530 -0.529539
Cl2   Cl    Cl    0.436134 0.232532 0.010516 -0.529512
Cl3   Cl    Cl    0.019559 0.850990 0.353861 -0.654731
Cl4   Cl    Cl    0.980441 0.350681 0.646147 -0.654722

loop_
_geom_bond_atom_site_label_1
_geom_bond_atom_site_label_2
_ccdc_geom_bond_type
C16   C18   A    
C39   H13   S    
C9    C31   A    
C33   C35   A    
C13   C15   A    
C51   H19   S    
O1    C3    A    
C24   C52   S    
O2    C4    A    
C2    O7    A    
O15   V3    S    
C9    Cl3   S    
C25   H9    S    
O5    C3    A    
C40   C42   A    
C2    C37   S    
C21   C23   A    
C10   C12   A    
C6    C30   A    
C6    Cl2   S    
C15   C19   A    
C23   C51   S    
C36   C38   A    
C35   C49   S    
C37   C39   A    
C5    Cl1   S    
C38   C40   A    
C7    C29   A    
C14   H6    S    
C8    C30   A    
C17   C25   A    
C34   C44   A    
C20   C28   A    
C31   C46   S    
O12   V3    S    
C49   O21   D    
O14   V4    S    
C20   C22   A    
O16   C48   A    
O5    V1    S    
O6    V2    S    
H2    C30   S    
H1    C29   S    
C36   C50   S    
C23   C25   A    
C39   C41   A    
C35   C37   A    
C16   C20   A    
O14   C46   A    
O4    C2    A    
O20   V3    S    
C4    C7    S    
C34   C36   A    
C26   H10   S    
C42   C44   A    
C10   Cl4   S    
C40   H14   S    
O4    V2    S    
C11   H7    S    
O11   V4    S    
C12   H8    S    
O6    C4    A    
C50   O22   D    
C27   H3    S    
O1    V2    S    
C28   H4    S    
O2    V1    S    
O13   C45   A    
O17   V3    S    
C7    C27   A    
O13   V3    S    
C52   O24   D    
C33   H11   S    
O3    V1    S    
C43   C48   S    
O19   V4    S    
C18   C32   A    
O12   C48   A    
O3    C1    A    
C32   C45   S    
C51   O23   D    
C11   C13   A    
C3    C8    S    
C12   C14   A    
C10   C32   A    
C22   C24   A    
O7    V1    S    
C19   C27   A    
C1    O8    A    
O16   V4    S    
O8    V2    S    
C24   C26   A    
C46   O17   A    
C8    C28   A    
C45   O18   A    
O18   V4    S    
C14   C16   A    
C50   H18   S    
C19   C21   A    
C34   H12   S    
C1    C38   S    
C41   C43   A    
C18   C26   A    
C44   C47   S    
O15   C47   A    
C9    C11   A    
C15   C17   A    
C52   H20   S    
C17   C31   A    
O9    V2    S    
C5    C29   A    
C42   H16   S    
O10   V1    S    
C5    C21   A    
C41   H15   S    
C49   H17   S    
C6    C22   A    
O11   C47   A    
C33   C43   A    
C13   H5    S    
