data_mof_unit_38457.cif
_audit_creation_date              2012-12-11T14:41:04-0500
_audit_creation_method            fapswitch 2.2
_symmetry_space_group_name_H-M    P1
_symmetry_Int_Tables_number       1
_space_group_crystal_system       triclinic
_cell_length_a                    24.530279
_cell_length_b                    17.411838
_cell_length_c                    15.533126
_cell_angle_alpha                 89.970676
_cell_angle_beta                  129.280733
_cell_angle_gamma                 90.076175
_cell_volume                      5135.4243068

loop_
_atom_site_label
_atom_site_type_symbol
_atom_type_description
_atom_site_fract_x
_atom_site_fract_y
_atom_site_fract_z
_atom_type_partial_charge
C1    C     C_R   0.351391 0.358119 0.243894 -0.121230
C2    C     C_R   0.644593 0.681508 0.499854 0.123992
C3    C     C_R   0.144446 0.818688 0.499103 0.103267
C4    C     C_R   0.141850 0.184469 0.501664 0.138402
C5    C     C_R   0.318287 0.382380 0.501798 0.035057
C6    C     C_R   0.318016 0.618363 0.499597 0.027619
C7    C     C_R   0.817946 0.882348 0.500083 0.035096
C8    C     C_R   0.862606 0.185113 0.502315 0.038447
C9    C     C_3   0.279859 0.252007 0.482758 -0.358905
C10   C     C_3   0.290894 0.749989 0.502860 -0.356475
C11   C     C_3   0.788256 0.750746 0.497061 -0.360374
C12   C     C_R   0.334657 0.611871 0.202001 -0.109682
C13   C     C_3   0.786881 0.301772 0.412521 -0.374854
C14   C     C_3   0.737856 0.695799 0.491024 -0.507763
C15   C     C_3   0.736116 0.353804 0.412525 -0.485714
C16   C     C_3   0.230748 0.197800 0.481510 -0.516956
C17   C     C_3   0.240288 0.804968 0.496083 -0.506291
C18   C     C_3   0.283455 0.340739 0.615483 -0.404048
C19   C     C_3   0.272299 0.649826 0.600724 -0.407052
C20   C     C_3   0.775681 0.847664 0.605337 -0.393135
C21   C     C_3   0.856882 0.279331 0.617659 -0.400390
C22   C     C_3   0.190997 0.359832 0.409744 -0.523963
C23   C     C_R   0.834401 0.888790 0.201379 -0.106942
C24   C     C_3   0.191481 0.653537 0.391616 -0.535863
C25   C     C_3   0.691064 0.850270 0.396162 -0.492111
C26   C     C_3   0.755967 0.190384 0.480188 -0.523064
C27   C     C_3   0.268778 0.335591 0.502562 0.310403
C28   C     C_3   0.268791 0.666028 0.498903 0.322512
C29   C     C_3   0.768851 0.834650 0.499847 0.301264
C30   C     C_3   0.817056 0.239007 0.503149 0.311046
C31   C     C_3   0.686646 0.740660 0.499175 0.177497
C32   C     C_3   0.731175 0.326199 0.502826 0.193424
C33   C     C_3   0.185441 0.242860 0.502259 0.153997
C34   C     C_R   0.833753 0.108190 0.198698 -0.127251
C35   C     C_3   0.186459 0.759792 0.497964 0.175131
C36   C     C_3   0.730868 0.788283 0.608786 -0.344160
C37   C     C_3   0.806777 0.332082 0.616556 -0.390458
C38   C     C_3   0.236610 0.283533 0.617139 -0.343429
C39   C     C_3   0.227830 0.709358 0.604766 -0.339150
C40   C     C_R   0.650399 0.361032 0.757158 -0.063436
C41   C     C_R   0.655539 0.632457 0.772682 -0.103598
C42   C     C_R   0.155649 0.867888 0.773015 -0.107518
C43   C     C_R   0.168035 0.105166 0.801800 -0.113492
C44   C     C_3   0.641328 0.796472 0.397217 0.421340
C45   C     C_R   0.617428 0.318941 0.788767 0.156827
C46   C     C_3   0.703550 0.241404 0.475674 0.434493
C47   C     C_3   0.140849 0.303975 0.407533 0.490184
C48   C     C_3   0.141589 0.706788 0.392512 0.423897
C49   C     C_2   0.642477 0.246629 0.850564 -0.231227
C50   C     C_2   0.648505 0.744988 0.868264 -0.207560
C51   C     C_2   0.148831 0.755660 0.869249 -0.208914
C52   C     C_2   0.194303 0.151697 0.979834 -0.228443
C53   C     C_2   0.695581 0.208318 0.867007 -0.024652
C54   C     C_2   0.696411 0.787059 0.874313 -0.065504
C55   C     C_2   0.196740 0.713786 0.875283 -0.075168
C56   C     C_R   0.622687 0.673786 0.804764 0.151725
C57   C     C_2   0.264239 0.153195 0.039581 -0.095787
C58   C     C_2   0.308681 0.660746 0.025597 -0.212970
C59   C     C_2   0.359229 0.243538 0.150750 -0.181328
C60   C     C_2   0.807448 0.155144 0.020894 -0.202515
C61   C     C_2   0.808211 0.840813 0.024391 -0.206536
C62   C     C_2   0.238864 0.659753 0.966056 -0.108634
C63   C     C_2   0.306043 0.205124 0.134150 -0.088806
C64   C     C_2   0.737509 0.156386 0.961401 -0.122454
C65   C     C_2   0.738404 0.841347 0.964965 -0.109429
C66   C     C_R   0.613939 0.391637 0.408016 -0.121124
C67   C     C_R   0.122887 0.826659 0.805437 0.150382
C68   C     C_R   0.591235 0.640702 0.406790 -0.145061
C69   C     C_R   0.091121 0.859587 0.406379 -0.086918
C70   C     C_R   0.089903 0.142597 0.407909 -0.082050
C71   C     C_R   0.386660 0.398529 0.593219 -0.143048
C72   C     C_R   0.386300 0.602453 0.592152 -0.143243
C73   C     C_R   0.886304 0.898163 0.592387 -0.145031
C74   C     C_R   0.913956 0.141789 0.594161 -0.129973
C75   C     C_R   0.688779 0.395486 0.592952 0.000826
C76   C     C_R   0.668900 0.637737 0.592191 -0.137540
C77   C     C_R   0.168738 0.862124 0.591824 -0.147991
C78   C     C_R   0.148056 0.124523 0.864642 0.154671
C79   C     C_R   0.164483 0.141306 0.593806 -0.144363
C80   C     C_R   0.312148 0.397151 0.408879 -0.147550
C81   C     C_R   0.312453 0.603608 0.407393 -0.131216
C82   C     C_R   0.812346 0.896615 0.407674 -0.133164
C83   C     C_R   0.839130 0.143434 0.408396 -0.120340
C84   C     C_R   0.558937 0.360216 0.757639 -0.146163
C85   C     C_R   0.561319 0.635749 0.765413 -0.138113
C86   C     C_R   0.061455 0.864483 0.765888 -0.137847
C87   C     C_R   0.077610 0.105845 0.802857 -0.153392
C88   C     C_R   0.442630 0.357422 0.242704 -0.107481
C89   C     C_R   0.681395 0.373706 0.501133 0.020148
C90   C     C_R   0.424670 0.611042 0.198997 -0.167015
C91   C     C_R   0.924438 0.889606 0.198518 -0.095612
C92   C     C_R   0.924251 0.109066 0.197605 -0.100005
C93   C     C_R   0.384313 0.315934 0.212365 0.145801
C94   C     C_R   0.354879 0.632013 0.139543 0.155058
C95   C     C_R   0.854481 0.869090 0.138639 0.157934
C96   C     C_R   0.853810 0.127854 0.135997 0.149297
H1    H     H_    0.303727 0.344149 0.230655 0.087704
H2    H     H_    0.683743 0.351906 0.328292 0.154756
H3    H     H_    0.196643 0.167762 0.399737 0.161805
H4    H     H_    0.212366 0.839430 0.418301 0.165027
H5    H     H_    0.262597 0.152899 0.546448 0.191748
H6    H     H_    0.271208 0.845958 0.567108 0.187898
H7    H     H_    0.769002 0.653162 0.559728 0.186833
H8    H     H_    0.754856 0.414364 0.428580 0.189059
H9    H     H_    0.339090 0.326187 0.686009 0.147722
H10   H     H_    0.327028 0.653657 0.680177 0.146045
H11   H     H_    0.830902 0.841034 0.682745 0.143428
H12   H     H_    0.282268 0.612221 0.176692 0.081466
H13   H     H_    0.902285 0.312839 0.637573 0.171155
H14   H     H_    0.767567 0.750657 0.681771 0.138587
H15   H     H_    0.826009 0.392392 0.631371 0.159075
H16   H     H_    0.272193 0.240915 0.683407 0.140937
H17   H     H_    0.264433 0.745186 0.680129 0.137401
H18   H     H_    0.678403 0.911877 0.394301 0.218911
H19   H     H_    0.778304 0.145545 0.545685 0.192864
H20   H     H_    0.183680 0.420177 0.424191 0.198486
H21   H     H_    0.176994 0.591989 0.384017 0.183255
H22   H     H_    0.177702 0.358362 0.326819 0.136760
H23   H     H_    0.781967 0.888747 0.175897 0.079087
H24   H     H_    0.185868 0.667959 0.316630 0.141407
H25   H     H_    0.682957 0.838881 0.318371 0.127823
H26   H     H_    0.727157 0.159336 0.399511 0.152165
H27   H     H_    0.611572 0.762456 0.319099 0.003071
H28   H     H_    0.653108 0.240158 0.388588 0.040135
H29   H     H_    0.109233 0.273809 0.326026 0.009811
H30   H     H_    0.114173 0.742950 0.316661 0.015287
H31   H     H_    0.273482 0.400107 0.629033 0.178458
H32   H     H_    0.252768 0.590840 0.595064 0.182921
H33   H     H_    0.758434 0.906800 0.605033 0.204061
H34   H     H_    0.780852 0.105388 0.171086 0.079756
H35   H     H_    0.877478 0.236826 0.685245 0.152541
H36   H     H_    0.698229 0.347086 0.771052 0.112088
H37   H     H_    0.708195 0.641337 0.801711 0.087440
H38   H     H_    0.208282 0.859213 0.801904 0.084809
H39   H     H_    0.220986 0.102269 0.829671 0.079217
H40   H     H_    0.696692 0.816704 0.623027 0.217170
H41   H     H_    0.808354 0.316091 0.687077 0.202959
H42   H     H_    0.207764 0.312321 0.641251 0.214707
H43   H     H_    0.191811 0.680866 0.615116 0.222347
H44   H     H_    0.214396 0.631008 0.995895 0.127876
H45   H     H_    0.269550 0.247209 0.402042 0.157988
H46   H     H_    0.285494 0.221775 0.176067 0.121468
H47   H     H_    0.712699 0.130295 0.992300 0.125961
H48   H     H_    0.713960 0.869700 0.995026 0.125602
H49   H     H_    0.716059 0.225146 0.825117 0.189893
H50   H     H_    0.713225 0.772116 0.826374 0.123668
H51   H     H_    0.213438 0.728700 0.827145 0.123983
H52   H     H_    0.289128 0.127396 0.008705 0.131328
H53   H     H_    0.332414 0.690250 0.994817 0.134399
H54   H     H_    0.379032 0.226583 0.107687 0.128851
H55   H     H_    0.831482 0.181916 0.988878 0.146924
H56   H     H_    0.291142 0.761825 0.432602 0.168351
H57   H     H_    0.831932 0.811691 0.993413 0.138424
H58   H     H_    0.592103 0.388599 0.322076 0.075225
H59   H     H_    0.564557 0.653404 0.320532 0.085762
H60   H     H_    0.064208 0.847213 0.319968 0.090184
H61   H     H_    0.063846 0.156192 0.322020 0.088373
H62   H     H_    0.409014 0.400277 0.679446 0.084228
H63   H     H_    0.408386 0.602685 0.678259 0.083807
H64   H     H_    0.908568 0.898522 0.678573 0.086288
H65   H     H_    0.941537 0.153747 0.680810 0.091719
H66   H     H_    0.736046 0.397354 0.678767 0.068380
H67   H     H_    0.785843 0.740964 0.423821 0.169280
H68   H     H_    0.717011 0.645223 0.675637 0.079991
H69   H     H_    0.216780 0.854150 0.675253 0.083610
H70   H     H_    0.206704 0.153545 0.680222 0.092365
H71   H     H_    0.264782 0.395962 0.323036 0.091035
H72   H     H_    0.265983 0.604997 0.320896 0.093105
H73   H     H_    0.765844 0.894583 0.321209 0.092332
H74   H     H_    0.795622 0.156754 0.322815 0.089774
H75   H     H_    0.522179 0.343907 0.770748 0.098111
H76   H     H_    0.524443 0.651177 0.778559 0.095417
H77   H     H_    0.024631 0.849086 0.779222 0.095750
H78   H     H_    0.757763 0.275654 0.328682 0.151362
H79   H     H_    0.048785 0.103302 0.834024 0.090515
H80   H     H_    0.478892 0.341197 0.228652 0.097360
H81   H     H_    0.453064 0.609071 0.167078 0.097182
H82   H     H_    0.952844 0.891886 0.166627 0.080848
H83   H     H_    0.953157 0.106861 0.166568 0.080859
H84   H     H_    0.335422 0.234064 0.549495 0.174175
H85   H     H_    0.345267 0.760529 0.581522 0.170435
H86   H     H_    0.843125 0.738129 0.573035 0.173198
H87   H     H_    0.830529 0.336769 0.428721 0.179193
H88   H     H_    0.494695 0.769128 0.342128 0.347576
H89   H     H_    0.707854 0.663205 0.411353 0.166268
H90   H     H_    0.785243 0.166385 0.709364 0.336915
H91   H     H_    0.990024 0.326528 0.404283 0.380291
H92   H     H_    0.119418 0.540404 0.446008 0.378498
H93   H     H_    0.622706 0.229627 0.893690 0.128162
H94   H     H_    0.632023 0.760022 0.916662 0.127695
H95   H     H_    0.132472 0.740642 0.917852 0.129013
H96   H     H_    0.170146 0.178238 0.011713 0.130862
N1    N     N_R   0.389430 0.421450 0.294590 -0.047859
N2    N     N_R   0.581780 0.577610 0.443390 -0.042587
N3    N     N_R   0.081780 0.922390 0.443390 -0.050676
N4    N     N_R   0.081780 0.077610 0.443390 -0.053595
N5    N     N_R   0.419850 0.423100 0.556610 -0.030587
N6    N     N_R   0.419850 0.576900 0.556610 -0.031430
N7    N     N_R   0.919850 0.923100 0.556610 -0.033383
N8    N     N_R   0.919850 0.076900 0.556610 -0.038505
N9    N     N_R   0.627410 0.423100 0.556610 -0.040164
N10   N     N_R   0.627410 0.576900 0.556610 -0.045600
N11   N     N_R   0.127410 0.923100 0.556610 -0.041482
N12   N     N_R   0.389430 0.578550 0.294590 -0.044047
N13   N     N_R   0.127410 0.076900 0.556610 -0.046781
N14   N     N_R   0.374220 0.422390 0.443390 -0.032277
N15   N     N_R   0.374220 0.577610 0.443390 -0.033117
N16   N     N_R   0.874220 0.922390 0.443390 -0.033682
N17   N     N_R   0.874220 0.077610 0.443390 -0.039500
N18   N     N_R   0.555000 0.424040 0.705410 -0.046598
N19   N     N_R   0.555000 0.575960 0.705410 -0.044284
N20   N     N_R   0.055000 0.924040 0.705410 -0.042965
N21   N     N_R   0.055000 0.075960 0.705410 -0.038434
N22   N     N_R   0.446630 0.421450 0.294590 -0.047212
N23   N     N_R   0.889430 0.921450 0.294590 -0.044822
N24   N     N_R   0.446630 0.578550 0.294590 -0.039309
N25   N     N_R   0.946630 0.921450 0.294590 -0.042775
N26   N     N_R   0.946630 0.078550 0.294590 -0.039584
N27   N     N_R   0.889430 0.078550 0.294590 -0.042316
N28   N     N_R   0.612200 0.424040 0.705410 -0.056031
N29   N     N_R   0.612200 0.575960 0.705410 -0.045887
N30   N     N_R   0.112200 0.924040 0.705410 -0.042782
N31   N     N_R   0.112200 0.075960 0.705410 -0.039553
N32   N     N_R   0.581780 0.422390 0.443390 -0.031362
Ni1   Ni    Ni4+2 0.382890 0.500000 0.370170 0.219681
Ni2   Ni    Ni4+2 0.882890 0.000000 0.370170 0.219556
Ni3   Ni    Ni4+2 0.618740 0.500000 0.629830 0.225735
Ni4   Ni    Ni4+2 0.118740 0.000000 0.629830 0.220179
Ni5   Ni    Ni4+2 0.514090 0.500000 0.370170 0.218694
Ni6   Ni    Ni4+2 0.014090 0.000000 0.370170 0.217357
Ni7   Ni    Ni4+2 0.487550 0.500000 0.629830 0.218367
Ni8   Ni    Ni4+2 0.987550 0.000000 0.629830 0.219490
O1    O     O_2   0.611015 0.914221 0.476675 -0.229795
O2    O     O_2   0.029338 0.703920 0.389904 -0.259409
O3    O     O_2   0.026526 0.616399 0.264667 -0.267287
O4    O     O_3   0.107862 0.582579 0.474671 -0.485605
O5    O     O_2   0.525963 0.886690 0.278092 -0.292806
O6    O     O_3   0.530937 0.794605 0.414300 -0.514062
O7    O     O_2   0.620666 0.240373 0.536307 -0.259804
O8    O     O_2   0.663482 0.117023 0.527885 -0.246317
O9    O     O_3   0.751442 0.205686 0.695822 -0.579936
O10   O     O_2   0.114941 0.404080 0.513027 -0.305984
O11   O     O_2   0.035190 0.406695 0.309608 -0.261261
O12   O     O_3   0.023580 0.293744 0.405773 -0.546078
S1    S     S_3+6 0.576375 0.851024 0.391486 -0.034152
S2    S     S_3+6 0.682783 0.200127 0.559134 -0.046055
S3    S     S_3+6 0.078038 0.355516 0.410114 -0.055558
S4    S     S_3+6 0.073428 0.652340 0.378351 -0.022067

loop_
_geom_bond_atom_site_label_1
_geom_bond_atom_site_label_2
_ccdc_geom_bond_type
C78   C87   A    
C58   C62   D    
C80   N14   A    
C55   C62   S    
C7    C29   S    
C8    C83   A    
N21   N31   A    
N29   Ni3   S    
O4    S4    S    
C35   C39   S    
C69   N3    A    
C20   H33   S    
N7    Ni8   S    
C68   H59   S    
C12   C94   A    
C4    C70   A    
C75   N9    A    
C2    C76   A    
C15   C32   S    
C7    C73   A    
C54   C65   S    
C23   N23   A    
C34   C96   A    
C43   C78   A    
C6    C72   A    
C73   H64   S    
C24   H21   S    
C50   C54   D    
C72   H63   S    
N19   Ni7   S    
C8    C74   A    
O7    S2    D    
C17   C35   S    
C21   C37   S    
C3    C69   A    
C9    C16   S    
C86   N20   A    
C2    C68   A    
N23   N25   A    
C23   H23   S    
N20   Ni8   S    
C53   C64   S    
C76   N10   A    
C49   H93   S    
C10   C17   S    
C77   H69   S    
N2    N10   A    
C83   H74   S    
C85   N19   A    
C19   H32   S    
C92   C96   A    
N18   N28   A    
N13   Ni4   S    
C22   H22   S    
C52   H96   S    
C11   H67   S    
H88   O6    S    
N4    N13   A    
C26   H19   S    
C21   H35   S    
C10   H56   S    
C5    C27   S    
N15   Ni1   S    
C6    C28   S    
N16   Ni2   S    
C47   S3    S    
C39   H17   S    
C84   N18   A    
N18   Ni7   S    
C90   C94   A    
C3    C35   S    
C15   H8    S    
C14   C31   S    
C80   H71   S    
H92   O4    S    
C58   H53   S    
C54   H50   S    
C20   H11   S    
O2    S4    D    
C84   H75   S    
C22   H20   S    
C22   C47   S    
C40   H36   S    
C90   H81   S    
C31   C36   S    
C79   H70   S    
C6    C81   A    
C37   H41   S    
C40   N28   A    
O8    S2    D    
N2    Ni5   S    
C46   H28   S    
N5    N14   A    
C40   C45   A    
C11   H86   S    
C52   C78   S    
C35   C48   S    
C36   H40   S    
C25   C44   S    
C90   N24   A    
N11   Ni4   S    
C86   H77   S    
C71   N5    A    
C66   C89   A    
N32   Ni5   S    
C20   C29   S    
N5    Ni7   S    
C26   C46   S    
C25   C29   S    
C13   H78   S    
C47   H29   S    
C39   H43   S    
C24   H24   S    
C85   H76   S    
C31   C44   S    
C87   H79   S    
C63   H46   S    
O9    S2    S    
C24   C48   S    
C82   H73   S    
C13   C30   S    
N1    N22   A    
C46   S2    S    
C4    C79   A    
C66   N32   A    
C1    H1    S    
C12   H12   S    
C65   H48   S    
C9    H45   S    
N6    Ni7   S    
N20   N30   A    
C13   H87   S    
C79   N13   A    
C48   H30   S    
C50   C56   S    
C92   N26   A    
N3    Ni6   S    
C2    C31   S    
C60   H55   S    
C69   H60   S    
C91   N25   A    
C43   N31   A    
C17   H6    S    
C41   C56   A    
C92   H83   S    
N25   Ni6   S    
C74   H65   S    
C55   H51   S    
C32   C89   S    
N30   Ni4   S    
N14   Ni1   S    
C53   H49   S    
C45   C49   S    
C87   N21   A    
O5    S1    D    
C1    N1    A    
C51   C67   S    
C32   C37   S    
C5    C80   A    
C43   H39   S    
C19   C28   S    
C9    H84   S    
C34   H34   S    
C23   C95   A    
C83   N17   A    
N21   Ni8   S    
C19   C39   S    
C44   S1    S    
C41   H37   S    
C60   C96   S    
C70   N4    A    
C91   H82   S    
N4    Ni6   S    
C26   C30   S    
O11   S3    D    
C22   C27   S    
C75   H66   S    
C36   H14   S    
C42   C67   A    
C33   C47   S    
C76   H68   S    
C45   C84   A    
N17   Ni2   S    
C66   H58   S    
C15   H2    S    
C38   H16   S    
C3    C77   A    
C82   N16   A    
O3    S4    D    
O1    S1    D    
C51   H95   S    
C9    C27   S    
N24   Ni5   S    
C59   H54   S    
C10   C28   S    
N9    Ni3   S    
C71   H62   S    
N12   N24   A    
C4    C33   S    
C10   H85   S    
C67   C86   A    
N6    N15   A    
C34   N27   A    
C32   C46   S    
C18   C27   S    
C24   C28   S    
C57   C63   S    
C74   N8    A    
H91   O12   S    
C61   H57   S    
H90   O9    S    
C21   H13   S    
C61   C95   S    
C16   H3    S    
N10   Ni3   S    
C64   H47   S    
C59   C93   S    
C21   C30   S    
C14   H89   S    
C44   H27   S    
C59   C63   D    
O10   S3    D    
C88   H80   S    
C38   H42   S    
C81   N15   A    
C60   C64   D    
C70   H61   S    
C8    C30   S    
N8    N17   A    
N23   Ni2   S    
C13   C15   S    
C18   C38   S    
C18   H9    S    
N1    Ni1   S    
C5    C71   A    
O12   S3    S    
C56   C85   A    
C25   H18   S    
C11   C29   S    
N31   Ni4   S    
C18   H31   S    
N26   N27   A    
C88   N22   A    
C49   C53   D    
C73   N7    A    
O6    S1    S    
C26   H26   S    
N7    N16   A    
C11   C14   S    
C81   H72   S    
C88   C93   A    
C42   H38   S    
C51   C55   D    
C12   N12   A    
N27   Ni2   S    
C58   C94   S    
C50   H94   S    
C17   H4    S    
C37   H15   S    
C52   C57   D    
C75   C89   A    
C72   N6    A    
C20   C36   S    
C19   H10   S    
C61   C65   D    
C16   H5    S    
C77   N11   A    
C7    C82   A    
N3    N11   A    
N28   Ni3   S    
C91   C95   A    
C1    C93   A    
C16   C33   S    
C57   H52   S    
C14   H7    S    
N26   Ni6   S    
C48   S4    S    
C33   C38   S    
C68   N2    A    
N8    Ni8   S    
N9    N32   A    
C62   H44   S    
N12   Ni1   S    
C42   N30   A    
N22   Ni5   S    
C25   H25   S    
C41   N29   A    
N19   N29   A    
