data_mof_unit_12903.cif
_audit_creation_date              2013-03-05T16:00:55-0500
_audit_creation_method            fapswitch 2.2
_symmetry_space_group_name_H-M    P1
_symmetry_Int_Tables_number       1
_space_group_crystal_system       triclinic
_cell_length_a                    21.277167
_cell_length_b                    21.145121
_cell_length_c                    13.998595
_cell_angle_alpha                 90.000048
_cell_angle_beta                  90.000105
_cell_angle_gamma                 90.191693
_cell_volume                      6298.04842052

loop_
_atom_site_label
_atom_site_type_symbol
_atom_site_description
_atom_site_fract_x
_atom_site_fract_y
_atom_site_fract_z
_atom_type_partial_charge
O1    O     O_R   0.066090 0.433930 0.580280 -0.611417
O2    O     O_R   0.933910 0.566070 0.419720 -0.632050
O3    O     O_R   0.933910 0.566070 0.580280 -0.611417
O4    O     O_R   0.066090 0.433930 0.419720 -0.632045
O5    O     O_R   0.933910 0.433930 0.419720 -0.621949
O6    O     O_R   0.066090 0.566070 0.580280 -0.602642
O7    O     O_R   0.066090 0.566070 0.419720 -0.621955
O8    O     O_R   0.933910 0.433930 0.580280 -0.602641
O9    O     O_R   0.566090 0.933930 0.580280 -0.639965
O10   O     O_R   0.433910 0.066070 0.419720 -0.592805
O11   O     O_R   0.433910 0.066070 0.580280 -0.639963
O12   O     O_R   0.566090 0.933930 0.419720 -0.592804
O13   O     O_R   0.433910 0.933930 0.419720 -0.607215
O14   O     O_R   0.566090 0.066070 0.580280 -0.625888
O15   O     O_R   0.566090 0.066070 0.419720 -0.607215
O16   O     O_R   0.433910 0.933930 0.580280 -0.625889
C1    C     C_R   0.085764 0.412348 0.500292 0.909310
C2    C     C_R   0.914236 0.587652 0.500292 0.909308
C3    C     C_R   0.915049 0.411790 0.500009 0.883921
C4    C     C_R   0.084951 0.588209 0.500009 0.883923
C5    C     C_R   0.585504 0.912159 0.499769 0.921702
C6    C     C_R   0.414496 0.087841 0.499769 0.921704
C7    C     C_R   0.414241 0.912544 0.499978 0.924559
C8    C     C_R   0.585759 0.087456 0.499978 0.924561
Zn1   Zn    Zn3+2 1.000000 0.500000 0.607200 0.994145
Zn2   Zn    Zn3+2 1.000000 0.500000 0.392800 0.976239
Zn3   Zn    Zn3+2 0.500000 0.000000 0.607200 0.975887
Zn4   Zn    Zn3+2 0.500000 1.000000 0.392800 1.000530
C9    C     C_R   0.124382 0.691289 0.560943 0.067969
C10   C     C_R   0.875619 0.308711 0.560942 0.067972
C11   C     C_R   0.863362 0.679135 0.578653 0.050704
C12   C     C_R   0.136638 0.320864 0.578653 0.050706
C13   C     C_R   0.628072 0.187059 0.435645 0.045350
C14   C     C_R   0.371927 0.812941 0.435644 0.045350
C15   C     C_R   0.365198 0.180595 0.422700 0.060841
C16   C     C_R   0.634799 0.819402 0.422703 0.060854
C17   C     C_R   0.130247 0.638439 0.499803 -0.088023
C18   C     C_R   0.869753 0.361561 0.499803 -0.088024
C19   C     C_R   0.867360 0.636590 0.501441 -0.081969
C20   C     C_R   0.132637 0.363408 0.501440 -0.081971
C21   C     C_R   0.632267 0.136468 0.500146 -0.071355
C22   C     C_R   0.367732 0.863532 0.500146 -0.071358
C23   C     C_R   0.368278 0.137323 0.499018 -0.070406
C24   C     C_R   0.631722 0.862676 0.499019 -0.070404
C25   C     C_R   0.181028 0.631890 0.437908 -0.260986
C26   C     C_R   0.818971 0.368110 0.437908 -0.260983
C27   C     C_R   0.825585 0.639408 0.424962 -0.243266
C28   C     C_R   0.174409 0.360586 0.424956 -0.243283
C29   C     C_R   0.681053 0.131788 0.565884 -0.249578
C30   C     C_R   0.318947 0.868212 0.565885 -0.249581
C31   C     C_R   0.326531 0.140225 0.575468 -0.283018
C32   C     C_R   0.673469 0.859775 0.575467 -0.283019
C33   C     C_R   0.228372 0.676572 0.437304 0.114554
C34   C     C_R   0.771627 0.323429 0.437305 0.114553
C35   C     C_R   0.778503 0.684111 0.424108 0.109068
C36   C     C_R   0.221490 0.315883 0.424102 0.109082
C37   C     C_R   0.728201 0.176713 0.566729 0.115277
C38   C     C_R   0.271800 0.823287 0.566730 0.115275
C39   C     C_R   0.279920 0.185343 0.576664 0.109646
C40   C     C_R   0.720079 0.814656 0.576664 0.109642
C41   C     C_R   0.225665 0.727754 0.501549 0.038796
C42   C     C_R   0.774335 0.272246 0.501549 0.038796
C43   C     C_R   0.773145 0.726800 0.501000 0.044908
C44   C     C_R   0.226851 0.273197 0.500997 0.044923
C45   C     C_R   0.725847 0.227532 0.501595 0.048634
C46   C     C_R   0.274153 0.772468 0.501595 0.048633
C47   C     C_R   0.274769 0.228191 0.499936 0.053537
C48   C     C_R   0.725228 0.771805 0.499938 0.053532
C49   C     C_R   0.174213 0.734688 0.564892 0.102160
C50   C     C_R   0.825788 0.265312 0.564891 0.102161
C51   C     C_R   0.815599 0.724546 0.578845 0.078997
C52   C     C_R   0.184400 0.275453 0.578844 0.079000
C53   C     C_R   0.675337 0.233380 0.436155 0.080210
C54   C     C_R   0.324663 0.766620 0.436154 0.080209
C55   C     C_R   0.317455 0.226098 0.422356 0.075878
C56   C     C_R   0.682540 0.773897 0.422361 0.075864
C57   C     C_R   0.278664 0.670211 0.373961 -0.165944
C58   C     C_R   0.721335 0.329789 0.373963 -0.165942
C59   C     C_R   0.736471 0.686219 0.347595 -0.141970
C60   C     C_R   0.263520 0.313772 0.347586 -0.142167
C61   C     C_R   0.777941 0.170967 0.631160 -0.163806
C62   C     C_R   0.222060 0.829032 0.631162 -0.163808
C63   C     C_R   0.238123 0.187635 0.653394 -0.162215
C64   C     C_R   0.761878 0.812365 0.653393 -0.162206
C65   C     C_R   0.826508 0.214794 0.630179 -0.191052
C66   C     C_R   0.173493 0.785205 0.630181 -0.191054
C67   C     C_R   0.190752 0.232358 0.654714 -0.189166
C68   C     C_R   0.809249 0.767643 0.654713 -0.189151
C69   C     C_R   0.326376 0.715001 0.372967 -0.202048
C70   C     C_R   0.673622 0.285000 0.372969 -0.202045
C71   C     C_R   0.688739 0.730639 0.346663 -0.212487
C72   C     C_R   0.311253 0.269353 0.346655 -0.212527
H1    H     H_    0.183970 0.591184 0.390808 0.168427
H2    H     H_    0.816029 0.408817 0.390809 0.168434
H3    H     H_    0.828996 0.605740 0.366695 0.204276
H4    H     H_    0.170997 0.394252 0.366687 0.204291
H5    H     H_    0.682987 0.092031 0.614880 0.192650
H6    H     H_    0.317014 0.907969 0.614881 0.192652
H7    H     H_    0.329689 0.106409 0.633628 0.183427
H8    H     H_    0.670313 0.893592 0.633625 0.183426
H9    H     H_    0.280898 0.630725 0.324689 0.166181
H10   H     H_    0.719100 0.369276 0.324692 0.166184
H11   H     H_    0.740467 0.653405 0.288412 0.195951
H12   H     H_    0.259522 0.346584 0.288401 0.196009
H13   H     H_    0.779556 0.132206 0.681803 0.184390
H14   H     H_    0.220445 0.867793 0.681806 0.184391
H15   H     H_    0.242051 0.154737 0.712493 0.181725
H16   H     H_    0.757952 0.845265 0.712490 0.181740
H17   H     H_    0.864272 0.208900 0.681186 0.176553
H18   H     H_    0.135730 0.791099 0.681189 0.176557
H19   H     H_    0.159485 0.232603 0.715618 0.163925
H20   H     H_    0.840517 0.767398 0.715615 0.163955
H21   H     H_    0.364210 0.708716 0.322281 0.152824
H22   H     H_    0.635788 0.291285 0.322284 0.152829
H23   H     H_    0.657210 0.730711 0.286067 0.155801
H24   H     H_    0.342781 0.269280 0.286057 0.155842
C73   C     C_R   0.947016 0.516683 0.797791 0.066235
C74   C     C_R   0.052256 0.481189 0.202176 0.068248
C75   C     C_R   0.052984 0.483316 0.797792 0.066216
C76   C     C_R   0.947744 0.518810 0.202177 0.068208
C77   C     C_R   0.444594 0.995562 0.797709 0.067548
C78   C     C_R   0.555537 0.002139 0.202266 0.061567
C79   C     C_R   0.555406 0.004438 0.797709 0.067547
C80   C     C_R   0.444463 0.997861 0.202265 0.061568
N1    N     N_R   1.000000 0.500000 0.750030 -0.143802
N2    N     N_R   1.000000 0.500000 0.249970 -0.143917
N3    N     N_R   0.500000 0.000000 0.750030 -0.144710
N4    N     N_R   0.500000 0.000000 0.249970 -0.146062
C81   C     C_R   0.055317 0.483957 0.898847 -0.141010
C82   C     C_R   0.946507 0.521247 0.101143 -0.134663
C83   C     C_R   0.944682 0.516041 0.898846 -0.141003
C84   C     C_R   0.053491 0.478752 0.101144 -0.134642
C85   C     C_R   0.557288 0.006233 0.898785 -0.135504
C86   C     C_R   0.442385 0.999279 0.101167 -0.142397
C87   C     C_R   0.442712 0.993767 0.898784 -0.135509
C88   C     C_R   0.557615 0.000720 0.101167 -0.142395
C89   C     C_R   1.000000 0.500000 0.949471 -0.016454
C90   C     C_R   1.000000 0.500000 0.050488 -0.025070
C91   C     C_R   0.500000 1.000000 0.949457 -0.025420
C92   C     C_R   0.500000 1.000000 0.050514 -0.022095
C93   C     C_R   0.110684 0.467725 0.949976 0.332201
C94   C     C_R   0.893074 0.542996 0.050132 0.357384
C95   C     C_R   0.889314 0.532269 0.949975 0.332290
C96   C     C_R   0.106923 0.456998 0.050133 0.357341
C97   C     C_R   0.614655 0.012721 0.949829 0.350550
C98   C     C_R   0.384676 0.998604 0.050029 0.335230
C99   C     C_R   0.385344 0.987278 0.949829 0.350550
C100  C     C_R   0.615324 0.001395 0.050030 0.335213
H25   H     H_    0.907317 0.531772 0.755826 0.200008
H26   H     H_    0.093168 0.469498 0.244016 0.188726
H27   H     H_    0.092684 0.468229 0.755826 0.200004
H28   H     H_    0.906832 0.530500 0.244017 0.188730
H29   H     H_    0.402143 0.994835 0.755541 0.188327
H30   H     H_    0.597783 0.006379 0.244434 0.199454
H31   H     H_    0.597857 0.005165 0.755541 0.188326
H32   H     H_    0.402217 0.993621 0.244434 0.199456
N5    N     N_3   0.068142 0.702986 0.616002 -0.435561
H33   H     H_    0.050986 0.747262 0.595578 0.170593
H34   H     H_    0.031838 0.672206 0.597670 0.205410
N6    N     N_3   0.931858 0.297013 0.615999 -0.435566
H35   H     H_    0.949014 0.252737 0.595575 0.170587
H36   H     H_    0.968163 0.327793 0.597668 0.205408
N7    N     N_3   0.908583 0.676351 0.654828 -0.444979
H37   H     H_    0.885110 0.667021 0.718920 0.234158
H38   H     H_    0.931616 0.719970 0.659806 0.176196
N8    N     N_3   0.091419 0.323650 0.654830 -0.444983
H39   H     H_    0.114892 0.332980 0.718920 0.234144
H40   H     H_    0.068384 0.280031 0.659810 0.176187
N9    N     N_3   0.575040 0.191122 0.372364 -0.435244
H41   H     H_    0.551389 0.233478 0.385585 0.177755
H42   H     H_    0.591188 0.190819 0.301834 0.207498
N10   N     N_3   0.424958 0.808879 0.372362 -0.435246
H43   H     H_    0.448609 0.766522 0.385581 0.177746
H44   H     H_    0.408809 0.809182 0.301832 0.207495
N11   N     N_3   0.411530 0.178580 0.348006 -0.419650
H45   H     H_    0.434652 0.222226 0.344963 0.172707
H46   H     H_    0.388984 0.170047 0.282909 0.234319
N12   N     N_3   0.588466 0.821417 0.348010 -0.419653
H47   H     H_    0.565342 0.777772 0.344969 0.172685
H48   H     H_    0.611012 0.829947 0.282912 0.234327
S1    S     S_3+6 0.185046 0.468995 0.890608 0.065665
O17   O     O_2   0.194361 0.407202 0.839524 -0.291959
O18   O     O_2   0.186638 0.521924 0.818884 -0.310043
O19   O     O_3   0.244414 0.480925 0.967911 -0.455957
H49   H     H_    0.283162 0.475318 0.929662 0.386788
S2    S     S_3+6 0.836037 0.590674 0.109862 0.036332
O20   O     O_2   0.790661 0.548363 0.162013 -0.313148
O21   O     O_2   0.868351 0.633179 0.180754 -0.342834
O22   O     O_3   0.796480 0.636965 0.033069 -0.457471
H50   H     H_    0.763498 0.657483 0.072128 0.378709
S3    S     S_3+6 0.814952 0.530992 0.890603 0.065497
O23   O     O_2   0.805630 0.592787 0.839528 -0.292035
O24   O     O_2   0.813368 0.478067 0.818871 -0.309937
O25   O     O_3   0.755585 0.519048 0.967900 -0.456439
H51   H     H_    0.716837 0.524691 0.929665 0.386733
S4    S     S_3+6 0.163946 0.409302 0.109860 0.036273
O26   O     O_2   0.209333 0.451588 0.162033 -0.312563
O27   O     O_2   0.131607 0.366801 0.180731 -0.343502
O28   O     O_3   0.203500 0.363012 0.033063 -0.457508
H52   H     H_    0.235944 0.341856 0.072360 0.378639
S5    S     S_3+6 0.682733 0.042791 0.890017 0.044894
O29   O     O_2   0.714730 0.989526 0.838368 -0.303578
O30   O     O_2   0.663586 0.092279 0.818666 -0.345493
O31   O     O_3   0.733440 0.076707 0.966769 -0.454329
H53   H     H_    0.770540 0.088074 0.927539 0.380999
S6    S     S_3+6 0.313501 0.019865 0.109560 0.063509
O32   O     O_2   0.287671 0.962799 0.160379 -0.265285
O33   O     O_2   0.326487 0.071042 0.181558 -0.341565
O34   O     O_3   0.259598 0.047614 0.032493 -0.458781
H54   H     H_    0.220991 0.053258 0.071054 0.388323
S7    S     S_3+6 0.317267 0.957208 0.890016 0.044889
O35   O     O_2   0.285270 0.010473 0.838367 -0.303589
O36   O     O_2   0.336414 0.907720 0.818664 -0.345500
O37   O     O_3   0.266560 0.923292 0.966767 -0.454326
H55   H     H_    0.229461 0.911924 0.927537 0.380999
S8    S     S_3+6 0.686499 0.980134 0.109562 0.063544
O38   O     O_2   0.712329 0.037200 0.160381 -0.265292
O39   O     O_2   0.673513 0.928957 0.181559 -0.341516
O40   O     O_3   0.740402 0.952385 0.032494 -0.458730
H56   H     H_    0.779009 0.946741 0.071056 0.388351

loop_
_geom_bond_atom_site_label_1
_geom_bond_atom_site_label_2
_geom_bond_distance
_ccdc_geom_bond_type
C84   C96   1.420375 A    
O1    Zn1   2.020977 S    
N5    H33   1.045845 S    
C8    C21   1.430531 S    
C12   N8    1.437613 S    
C58   H10   1.084146 S    
N9    H42   1.045427 S    
S5    O29   1.503306 D    
C63   C67   1.384525 A    
N7    H37   1.045293 S    
C14   C22   1.402948 A    
S8    O40   1.681686 S    
C98   S6    1.787337 S    
C44   C52   1.416321 A    
C13   N9    1.437346 S    
C97   C100  1.423045 A    
N12   H47   1.045249 S    
C47   C55   1.416520 A    
C45   C53   1.417871 A    
C12   C52   1.400469 A    
C79   H31   1.079092 S    
S1    O17   1.503204 D    
C58   C70   1.386117 A    
C87   C91   1.416065 A    
C72   H24   1.081481 S    
O13   C7    1.280868 A    
C96   S4    1.787867 S    
O7    Zn2   2.014459 S    
C77   H29   1.079091 S    
C60   H12   1.084175 S    
C76   C82   1.415507 A    
C54   C69   1.405479 A    
C27   C35   1.379679 A    
C66   H18   1.082434 S    
C39   C63   1.395448 A    
C53   C70   1.405479 A    
C77   N3    1.357681 A    
C65   H17   1.082435 S    
C38   C62   1.396133 A    
C11   N7    1.437614 S    
C86   C92   1.416228 A    
S6    O33   1.503728 D    
O6    Zn1   2.014461 S    
C67   H19   1.081424 S    
C84   C90   1.415450 A    
C46   C54   1.417870 A    
C29   C37   1.379308 A    
O19   H49   0.990514 S    
C42   C50   1.416791 A    
O3    C2    1.280055 A    
C20   C28   1.392898 A    
Zn2   N2    1.999421 S    
O14   C8    1.281410 A    
C74   H26   1.078585 S    
Zn1   N1    1.999419 S    
C16   C56   1.401527 A    
C39   C47   1.409697 A    
C33   C41   1.408480 A    
C41   C46   1.397080 A    
C38   C46   1.410295 A    
N11   H45   1.045251 S    
C62   H14   1.084314 S    
C71   H23   1.081480 S    
C35   C43   1.409635 A    
O31   H53   0.990556 S    
C36   C44   1.409634 A    
O13   Zn4   2.014464 S    
O14   Zn3   2.014461 S    
C15   C23   1.408283 A    
C59   C71   1.385726 A    
C88   C92   1.416228 A    
C80   N4    1.357935 A    
C24   C32   1.392262 A    
O16   Zn3   2.014463 S    
C12   C20   1.409014 A    
O25   H51   0.990501 S    
C25   C33   1.378806 A    
O28   H52   0.990618 S    
N5    H34   1.040561 S    
S2    O21   1.503719 D    
N8    H40   1.045330 S    
O8    Zn1   2.014463 S    
S5    O30   1.503820 D    
C59   H11   1.084176 S    
Zn3   N3    1.999419 S    
S4    O28   1.681539 S    
C99   S7    1.788099 S    
C100  S8    1.787338 S    
C21   C29   1.390977 A    
C10   C50   1.401013 A    
N10   H44   1.045426 S    
C9    C49   1.401013 A    
S1    O18   1.503852 D    
C31   H7    1.085799 S    
C86   C98   1.421335 A    
C61   H13   1.084313 S    
O4    Zn2   2.020976 S    
C30   H6    1.085856 S    
O8    C3    1.281248 A    
C76   H28   1.078584 S    
S3    O23   1.503205 D    
C30   C38   1.379306 A    
C44   C47   1.397079 A    
O3    Zn1   2.020977 S    
C14   N10   1.437346 S    
C16   N12   1.437777 S    
S8    O38   1.503234 D    
N11   H46   1.045227 S    
C93   C96   1.422498 A    
C37   C45   1.410294 A    
O40   H56   0.990501 S    
S6    O32   1.503233 D    
S4    O26   1.503239 D    
C9    N5    1.445365 S    
C34   C42   1.408480 A    
C93   S1    1.787338 S    
C62   C66   1.385806 A    
O12   C5    1.280435 A    
C32   H8    1.085798 S    
O10   C6    1.280435 A    
O5    Zn2   2.014464 S    
C1    C20   1.439704 S    
N6    H36   1.040562 S    
C60   C72   1.385725 A    
C33   C57   1.396551 A    
C2    C19   1.439704 S    
S3    O24   1.503850 D    
C83   C89   1.416069 A    
C3    C18   1.431810 S    
C5    C24   1.438347 S    
C35   C59   1.396162 A    
C85   C97   1.420635 A    
C79   N3    1.357679 A    
S7    O35   1.503308 D    
C26   H2    1.086213 S    
C69   H21   1.081581 S    
O11   Zn3   2.020977 S    
C15   C55   1.401527 A    
C26   C34   1.378804 A    
O34   H54   0.990498 S    
C81   C89   1.416071 A    
O2    Zn2   2.020977 S    
N9    H41   1.045306 S    
C77   C87   1.415988 A    
C7    C22   1.430531 S    
C78   C88   1.416249 A    
C13   C21   1.402946 A    
C88   C100  1.421337 A    
C55   C72   1.406329 A    
C22   C30   1.390977 A    
O5    C3    1.281478 A    
O4    C1    1.287212 A    
C75   N1    1.358323 A    
C13   C53   1.401486 A    
O15   C8    1.280869 A    
S7    O36   1.503819 D    
C14   C54   1.401486 A    
C25   H1    1.086212 S    
C78   H30   1.078851 S    
O16   C7    1.281410 A    
C87   C99   1.420635 A    
C80   H32   1.078851 S    
N8    H39   1.045291 S    
C94   S2    1.787865 S    
C37   C61   1.396133 A    
C16   C24   1.408282 A    
C31   C39   1.378533 A    
C17   C25   1.392249 A    
C82   C90   1.415451 A    
C52   C67   1.406234 A    
C83   C95   1.421476 A    
N10   H43   1.045305 S    
O9    Zn3   2.020977 S    
C19   C27   1.392895 A    
C98   C99   1.423046 A    
S1    O19   1.681693 S    
O10   Zn4   2.020977 S    
C28   C36   1.379677 A    
C43   C48   1.397077 A    
C27   H3    1.085234 S    
C28   H4    1.085234 S    
C42   C45   1.397081 A    
N7    H38   1.045328 S    
O37   H55   0.990555 S    
C64   C68   1.384525 A    
S8    O39   1.503727 D    
O2    C2    1.287214 A    
N12   H48   1.045228 S    
C91   C92   1.414650 A    
C85   C91   1.416064 A    
C57   C69   1.386114 A    
S5    O31   1.681533 S    
C48   C56   1.416521 A    
O6    C4    1.281248 A    
C89   C90   1.414107 A    
O11   C6    1.286094 A    
O1    C1    1.280057 A    
C36   C60   1.396163 A    
C80   C86   1.416248 A    
C40   C48   1.409698 A    
C41   C49   1.416791 A    
N6    H35   1.045845 S    
S2    O22   1.681547 S    
S3    O25   1.681693 S    
C15   N11   1.437775 S    
C97   S5    1.788100 S    
C4    C17   1.431810 S    
C40   C64   1.395449 A    
S6    O34   1.681685 S    
O9    C5    1.286094 A    
O15   Zn4   2.014459 S    
C73   C83   1.415561 A    
C23   C31   1.392261 A    
C11   C51   1.400468 A    
C75   C81   1.415562 A    
C63   H15   1.084303 S    
C57   H9    1.084148 S    
C76   N2    1.358308 A    
C70   H22   1.081582 S    
C78   N4    1.357933 A    
O22   H50   0.990817 S    
C82   C94   1.420381 A    
C18   C26   1.392250 A    
S4    O27   1.503738 D    
C74   C84   1.415502 A    
C10   N6    1.445367 S    
C56   C71   1.406330 A    
C29   H5    1.085857 S    
C51   C68   1.406234 A    
C68   H20   1.081425 S    
C64   H16   1.084302 S    
S7    O37   1.681532 S    
C81   C93   1.421478 A    
C75   H27   1.078057 S    
C79   C85   1.415987 A    
C32   C40   1.378534 A    
O7    C4    1.281478 A    
C9    C17   1.413459 A    
C11   C19   1.409014 A    
C95   S3    1.787347 S    
C94   C95   1.422505 A    
C73   H25   1.078057 S    
C74   N2    1.358306 A    
C10   C18   1.413459 A    
O12   Zn4   2.020976 S    
S2    O20   1.503260 D    
C50   C65   1.405949 A    
C73   N1    1.358322 A    
C43   C51   1.416323 A    
C6    C23   1.438348 S    
C61   C65   1.385806 A    
C49   C66   1.405951 A    
Zn4   N4    1.999421 S    
C34   C58   1.396551 A    
