data_mof_unit_55836.cif
_audit_creation_date              2012-12-10T17:03:25-0500
_audit_creation_method            fapswitch 2.2
_symmetry_space_group_name_H-M    P1
_symmetry_Int_Tables_number       1
_space_group_crystal_system       triclinic
_cell_length_a                    15.062125
_cell_length_b                    10.853214
_cell_length_c                    9.843964
_cell_angle_alpha                 109.996879
_cell_angle_beta                  98.819351
_cell_angle_gamma                 90.98954
_cell_volume                      1490.10472481

loop_
_atom_site_label
_atom_site_type_symbol
_atom_type_description
_atom_site_fract_x
_atom_site_fract_y
_atom_site_fract_z
_atom_type_partial_charge
C1    C     C_R   0.497829 0.253559 0.442282 0.821770
C2    C     C_R   0.509453 0.746857 0.557757 0.846169
C3    C     C_R   0.067958 0.430255 0.714636 0.394572
C4    C     C_R   0.931993 0.568923 0.285169 0.395216
C5    C     C_2   0.505413 0.113030 0.414765 -0.134956
C6    C     C_2   0.521000 0.888311 0.585152 -0.053464
C7    C     C_2   0.561910 0.071009 0.508749 0.291674
C8    C     C_2   0.558360 0.931028 0.491376 0.395140
C9    C     C_2   0.510345 0.506541 0.080206 0.416799
C10   C     C_2   0.494092 0.484886 0.916479 0.409264
C11   C     C_R   0.328856 0.500291 0.500613 0.809481
C12   C     C_R   0.671139 0.499558 0.499369 0.786609
C13   C     C_R   0.803788 0.534185 0.393932 -0.118570
C14   C     C_R   0.196241 0.465507 0.606203 -0.128121
C15   C     C_R   0.767792 0.499211 0.498968 -0.100755
C16   C     C_R   0.232179 0.500313 0.500976 -0.100162
C17   C     C_R   0.823918 0.465296 0.605289 -0.192889
C18   C     C_R   0.175973 0.533760 0.394380 -0.178825
C19   C     C_R   0.917377 0.468204 0.610141 -0.000872
C20   C     C_R   0.082534 0.530812 0.389560 -0.004269
C21   C     C_R   0.953520 0.500404 0.500622 -0.061785
C22   C     C_R   0.046424 0.498731 0.499172 -0.061895
C23   C     C_R   0.896459 0.534840 0.392823 0.022938
C24   C     C_R   0.103519 0.464488 0.607091 0.028800
C25   C     C_R   0.975048 0.436389 0.719569 0.304566
C26   C     C_R   0.024861 0.562544 0.280078 0.305116
Cu1   Cu    Cu3+1 0.515770 0.521810 0.644910 1.036996
Cu2   Cu    Cu3+1 0.484230 0.478190 0.355090 1.051418
H1    H     H_    0.758984 0.561252 0.313357 0.215830
H2    H     H_    0.241140 0.438882 0.687094 0.205686
H3    H     H_    0.793191 0.433622 0.681371 0.171469
H4    H     H_    0.206628 0.565236 0.318100 0.172643
H5    H     H_    0.581711 0.633589 0.932552 0.178265
H6    H     H_    0.410718 0.375741 0.070941 0.179557
N1    N     N_2   0.460520 0.445420 0.137370 -0.280925
N2    N     N_2   0.539480 0.554580 0.862630 -0.282992
O1    O     O_R   0.508410 0.332340 0.577400 -0.505002
O2    O     O_R   0.491590 0.667660 0.422600 -0.490895
O3    O     O_R   0.481780 0.295500 0.332650 -0.555175
O4    O     O_R   0.518220 0.704500 0.667350 -0.568976
O5    O     O_R   0.383570 0.518390 0.622380 -0.541246
O6    O     O_R   0.616430 0.481610 0.377620 -0.530325
O7    O     O_R   0.356940 0.481550 0.377630 -0.585815
O8    O     O_R   0.643060 0.518450 0.622370 -0.593114
O9    O     O_3   0.943058 0.411351 0.832451 -0.714095
H7    H     H_    0.898336 0.475461 0.867324 0.340599
O10   O     O_3   0.056832 0.587357 0.167058 -0.715569
H8    H     H_    0.101413 0.523026 0.132110 0.339766
O11   O     O_3   0.126250 0.394660 0.815836 -0.737085
H9    H     H_    0.091904 0.362710 0.876745 0.376628
O12   O     O_3   0.873706 0.604550 0.183981 -0.738229
H10   H     H_    0.908042 0.636267 0.122893 0.375870
O13   O     O_3   0.595343 0.843349 0.379853 -0.676779
H11   H     H_    0.621895 0.892977 0.325977 0.337226
O14   O     O_3   0.625529 0.153432 0.621591 -0.677527
H12   H     H_    0.647143 0.225225 0.591233 0.320459
I1    I     I_    0.473751 0.018996 0.771635 -0.222019
I2    I     I_    0.418154 0.980015 0.229009 -0.271950
O15   O     O_3   0.430927 0.389316 0.819814 -0.660331
H13   H     H_    0.376313 0.392604 0.864819 0.297654
O16   O     O_3   0.580652 0.591177 0.173074 -0.642105
H14   H     H_    0.631751 0.585372 0.119480 0.298540

loop_
_geom_bond_atom_site_label_1
_geom_bond_atom_site_label_2
_ccdc_geom_bond_type
C8    O13   S    
C4    C26   A    
O14   H12   S    
C11   O7    A    
C25   O9    S    
Cu1   N2    S    
C11   C16   S    
Cu1   O5    S    
Cu2   O7    S    
C18   C20   A    
O10   H8    S    
C1    C5    S    
C12   C15   S    
C7    O14   S    
Cu1   O4    S    
H5    N2    S    
C13   C15   A    
C10   O15   S    
C3    O11   S    
O15   H13   S    
C12   O8    A    
C16   C18   A    
C21   C22   A    
C6    I1    S    
C3    C24   A    
C2    C6    S    
C20   C26   A    
C5    I2    S    
Cu1   O1    S    
H6    N1    S    
C9    O16   S    
C15   C17   A    
C26   O10   S    
C13   H1    S    
C17   C19   A    
C14   H2    S    
C11   O5    A    
C22   C24   A    
C21   C23   A    
O16   H14   S    
C17   H3    S    
C14   C16   A    
C18   H4    S    
C1    O3    A    
C19   C25   A    
C14   C24   A    
O12   H10   S    
C2    O4    A    
C7    C8    S    
C3    C25   A    
C6    C8    D    
C13   C23   A    
C9    N1    D    
O11   H9    S    
C9    C10   S    
Cu2   O6    S    
Cu1   Cu2   S    
C5    C7    D    
C4    C23   A    
C2    O2    A    
C12   O6    A    
C4    O12   S    
Cu2   O3    S    
C19   C21   A    
Cu2   O2    S    
O9    H7    S    
Cu2   N1    S    
Cu1   O8    S    
O13   H11   S    
C20   C22   A    
C1    O1    A    
C10   N2    D    
