data_mof_unit_16644.cif
_audit_creation_date              2012-12-11T17:01:13-0500
_audit_creation_method            fapswitch 2.2
_symmetry_space_group_name_H-M    P1
_symmetry_Int_Tables_number       1
_space_group_crystal_system       triclinic
_cell_length_a                    19.384098
_cell_length_b                    7.11486
_cell_length_c                    17.695978
_cell_angle_alpha                 90.000665
_cell_angle_beta                  108.734418
_cell_angle_gamma                 90.001222
_cell_volume                      2311.23728633

loop_
_atom_site_label
_atom_site_type_symbol
_atom_type_description
_atom_site_fract_x
_atom_site_fract_y
_atom_site_fract_z
_atom_type_partial_charge
O1    O     O_R   0.413720 0.494330 0.415730 -0.531643
O2    O     O_R   0.586280 0.994330 0.584270 -0.531575
O3    O     O_R   0.560210 0.819300 0.430070 -0.527562
O4    O     O_R   0.439790 0.319300 0.569930 -0.527745
C1    C     C_R   0.582633 0.656175 0.415984 0.813129
C2    C     C_R   0.417387 0.156168 0.584037 0.812946
O5    O     O_R   0.412670 0.823730 0.406310 -0.532317
O6    O     O_R   0.587330 0.323730 0.593690 -0.532381
O7    O     O_R   0.437690 0.998790 0.560340 -0.512291
O8    O     O_R   0.562310 0.498790 0.439660 -0.512391
C3    C     C_R   0.385813 0.654885 0.382947 0.750416
C4    C     C_R   0.614194 0.154893 0.617045 0.750624
O9    O     O_3   0.508380 0.662350 0.550560 -0.361050
O10   O     O_3   0.491620 0.162350 0.449440 -0.361025
V1    V     V_3+5 0.498450 0.935370 0.490620 1.689787
V2    V     V_3+5 0.501550 0.435370 0.509380 1.689563
C5    C     C_R   0.728571 0.986193 0.696514 0.045918
C6    C     C_R   0.271448 0.486156 0.303450 0.045751
C7    C     C_R   0.683525 0.145044 0.684478 -0.112129
C8    C     C_R   0.316492 0.645016 0.315497 -0.112172
C9    C     C_R   0.707278 0.295577 0.738222 -0.050185
C10   C     C_R   0.292749 0.795540 0.261751 -0.050034
H1    H     H_    0.673387 0.418551 0.733092 0.169959
H2    H     H_    0.326649 0.918500 0.266878 0.169951
C11   C     C_R   0.773269 0.285105 0.801833 -0.114541
C12   C     C_R   0.226753 0.785086 0.198147 -0.114516
H3    H     H_    0.788886 0.400628 0.843119 0.176994
H4    H     H_    0.211139 0.900610 0.156865 0.176956
C13   C     C_R   0.816478 0.121962 0.815565 -0.054880
C14   C     C_R   0.183531 0.621958 0.184420 -0.054892
C15   C     C_R   0.792283 0.973189 0.761837 0.022595
C16   C     C_R   0.207730 0.473166 0.238132 0.022698
C17   C     C_3   0.776154 0.774895 0.778194 0.133190
C18   C     C_3   0.223858 0.274890 0.221746 0.133178
C19   C     C_3   0.708744 0.786809 0.704740 0.147380
C20   C     C_3   0.291279 0.286791 0.295188 0.147480
H5    H     H_    0.818554 0.675006 0.773217 0.148491
H6    H     H_    0.181462 0.174980 0.226723 0.148493
H7    H     H_    0.655976 0.771135 0.716441 0.164073
H8    H     H_    0.344042 0.271166 0.283469 0.164082
C21   C     C_R   0.307028 0.275969 0.616074 -0.051127
C22   C     C_R   0.693028 0.775956 0.383984 -0.051386
C23   C     C_R   0.366885 0.150412 0.632326 -0.194652
C24   C     C_R   0.633148 0.650439 0.367712 -0.194523
C25   C     C_R   0.379263 0.020236 0.695669 0.367913
C26   C     C_R   0.620768 0.520300 0.304365 0.367634
C27   C     C_R   0.326794 0.995970 0.736136 -0.080645
C28   C     C_R   0.673238 0.496040 0.263902 -0.080713
C29   C     C_R   0.270110 0.130981 0.723123 0.011671
C30   C     C_R   0.729950 0.630975 0.276942 0.011843
C31   C     C_R   0.261377 0.272458 0.664365 0.079672
C32   C     C_R   0.738692 0.772448 0.335707 0.079839
C33   C     C_R   0.329279 0.844232 0.789940 -0.101406
C34   C     C_R   0.670698 0.344455 0.210030 -0.101486
C35   C     C_R   0.280377 0.839281 0.834474 0.324673
C36   C     C_R   0.719584 0.339462 0.165482 0.324653
C37   C     C_R   0.228257 0.982926 0.826001 0.016750
C38   C     C_R   0.771738 0.483011 0.173981 0.016802
C39   C     C_R   0.222296 0.127267 0.769597 -0.004514
C40   C     C_R   0.777755 0.627250 0.230456 -0.004654
C41   C     C_R   0.168099 0.268327 0.759285 0.080465
C42   C     C_R   0.831981 0.768237 0.240799 0.080373
C43   C     C_R   0.162340 0.409726 0.702517 -0.107151
C44   C     C_R   0.837756 0.909656 0.297577 -0.107044
C45   C     C_R   0.207521 0.411090 0.655796 -0.137704
C46   C     C_R   0.792556 0.911095 0.344276 -0.137469
C47   C     C_R   0.180843 0.983166 0.871966 -0.133757
C48   C     C_R   0.819112 0.483301 0.127960 -0.133693
C49   C     C_R   0.127806 0.122914 0.863015 -0.152009
C50   C     C_R   0.872207 0.622902 0.136989 -0.151981
C51   C     C_R   0.120672 0.265458 0.805608 0.350241
C52   C     C_R   0.879406 0.765320 0.194475 0.350143
H9    H     H_    0.185226 0.875788 0.916525 0.202770
H10   H     H_    0.814650 0.376097 0.083298 0.202628
H11   H     H_    0.122893 0.521951 0.693276 0.188476
H12   H     H_    0.877217 0.021871 0.306827 0.188458
H13   H     H_    0.200399 0.525551 0.613744 0.147643
H14   H     H_    0.799668 0.025631 0.386305 0.147674
O11   O     O_R   0.937800 0.775460 0.060470 -0.499882
O12   O     O_R   0.062200 0.275460 0.939530 -0.499838
O13   O     O_R   0.087350 0.441340 0.093710 -0.529355
O14   O     O_R   0.912650 0.941340 0.906290 -0.529351
C53   C     C_R   0.115181 0.610058 0.115730 0.735462
C54   C     C_R   0.884821 0.110055 0.884265 0.735348
O15   O     O_R   0.939820 0.446010 0.069950 -0.550915
O16   O     O_R   0.060180 0.946010 0.930050 -0.550901
O17   O     O_R   0.913690 0.271230 0.915700 -0.547802
O18   O     O_R   0.086310 0.771230 0.084300 -0.547778
C55   C     C_R   0.919849 0.614712 0.085996 0.778558
C56   C     C_R   0.080152 0.114714 0.914002 0.778567
O19   O     O_3   0.991670 0.603050 0.949510 -0.362454
O20   O     O_3   0.008330 0.103050 0.050490 -0.362484
V3    V     V_3+5 0.001550 0.329940 0.009370 1.619113
V4    V     V_3+5 0.998450 0.829940 0.990630 1.619137
Cl1   Cl    Cl    0.281529 0.643637 0.897412 -0.561516
Cl2   Cl    Cl    0.718368 0.143737 0.102539 -0.561565
Cl3   Cl    Cl    0.049316 0.433022 0.788059 -0.640409
Cl4   Cl    Cl    0.950830 0.932674 0.212098 -0.640425
Cl5   Cl    Cl    0.753086 0.755639 0.868344 -0.618744
Cl6   Cl    Cl    0.246902 0.255688 0.131578 -0.618664
Cl7   Cl    Cl    0.715730 0.649546 0.623116 -0.662938
Cl8   Cl    Cl    0.284321 0.149439 0.376799 -0.662694
C57   C     C_2   0.290903 0.412236 0.548840 0.815597
O21   O     O_2   0.330764 0.547279 0.552243 -0.528781
O22   O     O_R   0.226083 0.394661 0.485262 -0.629382
H15   H     H_    0.219189 0.499811 0.444854 0.317020
C58   C     C_2   0.709210 0.912081 0.451280 0.815289
O23   O     O_2   0.669217 0.046845 0.448097 -0.528896
O24   O     O_R   0.774249 0.894743 0.514653 -0.629429
H16   H     H_    0.781167 0.999763 0.555138 0.317051
Cl9   Cl    Cl    0.467832 0.920162 0.732571 -0.587802
Cl10  Cl    Cl    0.532118 0.420486 0.267351 -0.587794
C59   C     C_2   0.376873 0.678368 0.794932 0.969586
O25   O     O_2   0.374096 0.591779 0.734437 -0.546444
O26   O     O_R   0.424792 0.621192 0.868722 -0.582255
H17   H     H_    0.454020 0.505993 0.864238 0.340916
C60   C     C_2   0.622976 0.178911 0.204864 0.969773
O27   O     O_2   0.625740 0.091897 0.265275 -0.546434
O28   O     O_R   0.574917 0.122605 0.131011 -0.582267
H18   H     H_    0.545571 0.007564 0.135354 0.341051

loop_
_geom_bond_atom_site_label_1
_geom_bond_atom_site_label_2
_ccdc_geom_bond_type
C43   C45   A    
O14   V4    S    
C26   Cl10  S    
C58   O24   S    
O1    C3    A    
C54   O17   A    
O2    C4    A    
C2    O7    A    
C32   C46   A    
C27   C29   A    
C52   Cl4   S    
C28   C34   A    
C51   Cl3   S    
C40   C42   A    
C7    C9    A    
C60   O28   S    
C37   C39   A    
C38   C40   A    
O26   H17   S    
C20   Cl8   S    
C31   C45   A    
C14   C53   S    
C49   C51   A    
C42   C44   A    
O16   V4    S    
C17   C19   S    
O15   V3    S    
C24   C26   A    
C29   C31   A    
C18   Cl6   S    
C58   O23   D    
C15   C17   S    
C47   H9    S    
C22   C58   S    
C18   C20   S    
C27   C33   A    
C41   C51   A    
C25   C27   A    
C53   O18   A    
O6    V2    S    
C21   C23   A    
C22   C24   A    
C37   C47   A    
O13   C53   A    
C33   C59   S    
O5    C3    A    
O18   V4    S    
C33   C35   A    
C11   C13   A    
C46   H14   S    
C34   C36   A    
C3    C8    S    
C39   C41   A    
C45   H13   S    
C20   H8    S    
O11   V4    S    
C35   Cl1   S    
O16   C56   A    
O15   C55   A    
O5    V1    S    
O3    C1    A    
C16   C18   S    
C17   H5    S    
C21   C57   S    
C17   Cl5   S    
C44   C46   A    
O4    V2    S    
C19   H7    S    
O19   V3    S    
O13   V3    S    
C30   C32   A    
O6    C4    A    
O20   V4    S    
C44   H12   S    
C42   C52   A    
C57   O22   S    
O1    V2    S    
O2    V1    S    
C23   C25   A    
C13   C54   S    
O4    C2    A    
C1    C24   S    
C8    C10   A    
C12   C14   A    
O14   C54   A    
C2    C23   S    
C35   C37   A    
C5    C15   A    
C10   H2    S    
C34   C60   S    
C50   C55   S    
C6    C16   A    
C49   C56   S    
O3    V1    S    
C59   O25   D    
C38   C48   A    
C36   Cl2   S    
C9    C11   A    
C18   H6    S    
C41   C43   A    
C19   Cl7   S    
O28   H18   S    
C25   Cl9   S    
C11   H3    S    
O22   H15   S    
C12   H4    S    
C29   C39   A    
C30   C40   A    
C9    H1    S    
O7    V1    S    
C1    O8    A    
C13   C15   A    
O8    V2    S    
C60   O27   D    
O19   V4    S    
C14   C16   A    
C6    C20   S    
C43   H11   S    
O17   V3    S    
C4    C7    S    
C28   C30   A    
O20   V3    S    
C5    C7    A    
C36   C38   A    
C6    C8    A    
O12   C56   A    
O11   C55   A    
C26   C28   A    
C48   C50   A    
C10   C12   A    
O9    V2    S    
C57   O21   D    
O10   V1    S    
C50   C52   A    
C5    C19   S    
C47   C49   A    
O12   V3    S    
O24   H16   S    
C48   H10   S    
C21   C31   A    
C22   C32   A    
C59   O26   S    
