data_mof_unit_35883.cif
_audit_creation_date              2012-10-26T18:57:20-0400
_audit_creation_method            fapswitch 2.2
_symmetry_space_group_name_H-M    P1
_symmetry_Int_Tables_number       1
_space_group_crystal_system       triclinic
_cell_length_a                    15.227201
_cell_length_b                    13.91132
_cell_length_c                    14.966098
_cell_angle_alpha                 89.57411
_cell_angle_beta                  91.004003
_cell_angle_gamma                 90.217497
_cell_volume                      3169.67991566

loop_
_atom_site_label
_atom_site_type_symbol
_atom_type_description
_atom_site_fract_x
_atom_site_fract_y
_atom_site_fract_z
_atom_type_partial_charge
C1    C     C_R   0.329749 0.499738 0.502085 0.574684
C2    C     C_R   0.813145 0.420381 0.465758 0.189160
C3    C     C_R   0.814694 0.576244 0.539885 0.179304
C4    C     C_R   0.187675 0.415053 0.535509 0.178152
C5    C     C_R   0.232805 0.498827 0.506924 -0.080504
C6    C     C_R   0.767163 0.499373 0.501052 -0.072420
C7    C     C_R   0.048180 0.496488 0.512162 -0.002090
C8    C     C_R   0.951571 0.494610 0.511444 0.001404
C9    C     C_R   0.544314 0.107665 0.566477 -0.164518
C10   C     C_R   0.438440 0.892087 0.449178 -0.160937
C11   C     C_R   0.456082 0.108523 0.432574 -0.167441
C12   C     C_R   0.670214 0.500068 0.499387 0.584356
C13   C     C_R   0.561365 0.891721 0.550834 -0.163382
C14   C     C_R   0.544253 0.209819 0.566392 0.377192
C15   C     C_R   0.443233 0.790636 0.444596 0.368123
C16   C     C_R   0.456959 0.210394 0.432780 0.370467
C17   C     C_R   0.556107 0.790320 0.555778 0.359661
C18   C     C_R   0.500102 0.054929 0.499547 -0.052428
C19   C     C_R   0.500085 0.945364 0.499722 -0.044728
C20   C     C_R   0.500204 0.500186 0.328997 0.528191
C21   C     C_R   0.499884 0.499743 0.671055 0.525992
C22   C     C_R   0.576794 0.479467 0.814732 -0.137616
C23   C     C_R   0.339563 0.523671 0.044377 0.278577
C24   C     C_R   0.422084 0.517005 0.185693 -0.135960
C25   C     C_R   0.499342 0.498959 0.767419 -0.024448
C26   C     C_R   0.500008 0.499655 0.232707 -0.034553
C27   C     C_R   0.421109 0.515795 0.811500 -0.128403
C28   C     C_R   0.576199 0.474968 0.188572 -0.134900
C29   C     C_R   0.418598 0.509796 0.904788 -0.020184
C30   C     C_R   0.575983 0.469835 0.095285 -0.020257
C31   C     C_R   0.497436 0.490454 0.953263 -0.056865
C32   C     C_R   0.497403 0.489790 0.046916 -0.058557
C33   C     C_R   0.577200 0.476025 0.907981 -0.017988
C34   C     C_R   0.655712 0.457729 0.956304 0.273323
C35   C     C_R   0.419159 0.510363 0.092511 -0.025592
C36   C     C_R   0.339255 0.523365 0.950517 0.280674
C37   C     C_R   0.653435 0.447338 0.049661 0.279782
C38   C     C_3   0.221072 0.455162 0.878688 -0.005812
C39   C     C_3   0.122306 0.470248 0.870921 -0.376287
C40   C     C_3   0.719467 0.319985 0.117534 -0.028794
C41   C     C_3   0.800221 0.286678 0.169655 -0.377276
C42   C     C_3   0.225620 0.455805 0.120396 -0.012282
C43   C     C_3   0.170472 0.476049 0.201781 -0.394656
C44   C     C_3   0.769022 0.375044 0.893449 -0.004148
C45   C     C_R   0.092401 0.577244 0.478066 0.238924
C46   C     C_3   0.834056 0.385997 0.817968 -0.392580
C47   C     C_3   0.042002 0.649360 0.350445 -0.002341
C48   C     C_3   0.006662 0.743148 0.311678 -0.370048
C49   C     C_3   0.974183 0.374501 0.339134 0.003034
C50   C     C_3   0.001461 0.285154 0.288806 -0.379590
C51   C     C_3   0.940647 0.624483 0.691647 -0.005777
C52   C     C_3   0.000251 0.693555 0.742688 -0.380221
C53   C     C_3   0.056492 0.338174 0.671890 0.004396
C54   C     C_3   0.019702 0.243719 0.706955 -0.377152
C55   C     C_3   0.222213 0.731874 0.533064 0.069598
C56   C     C_R   0.905388 0.421669 0.465710 0.237760
C57   C     C_3   0.197604 0.831518 0.498497 -0.357287
C58   C     C_3   0.769773 0.263015 0.469881 0.024574
C59   C     C_3   0.720236 0.185567 0.418237 -0.368686
C60   C     C_3   0.788066 0.734551 0.506438 0.071074
C61   C     C_3   0.812514 0.825589 0.557136 -0.358012
C62   C     C_3   0.222299 0.260230 0.501094 0.027342
C63   C     C_3   0.258986 0.167289 0.540455 -0.356714
C64   C     C_3   0.600436 0.224234 0.713544 -0.020514
C65   C     C_3   0.691132 0.180968 0.731003 -0.422331
C66   C     C_3   0.388815 0.763722 0.301636 -0.010853
C67   C     C_R   0.905746 0.568765 0.552897 0.243920
C68   C     C_3   0.301326 0.741544 0.255451 -0.345093
C69   C     C_3   0.418499 0.234063 0.282111 -0.015789
C70   C     C_3   0.331950 0.196115 0.243593 -0.417003
C71   C     C_3   0.600023 0.761119 0.700976 -0.003579
C72   C     C_3   0.668407 0.708669 0.758179 -0.329553
C73   C     C_R   0.095957 0.417280 0.544877 0.234646
C74   C     C_R   0.184100 0.581819 0.483500 0.182303
Cu1   Cu    Cu3+1 0.500000 0.596430 0.500000 1.044956
Cu2   Cu    Cu3+1 0.500000 0.403570 0.500000 1.068008
H1    H     H_    0.636307 0.466232 0.778166 0.140376
H2    H     H_    0.245342 0.432733 0.812479 0.127918
H3    H     H_    0.097078 0.499689 0.934247 0.176930
H4    H     H_    0.106959 0.521218 0.815448 0.141778
H5    H     H_    0.088899 0.400697 0.857476 0.071726
H6    H     H_    0.712780 0.275782 0.056068 0.098983
H7    H     H_    0.661246 0.305876 0.159741 0.123992
H8    H     H_    0.803249 0.323597 0.235025 0.195683
H9    H     H_    0.796423 0.207936 0.181741 0.084819
H10   H     H_    0.860442 0.303217 0.131588 0.149068
H11   H     H_    0.275695 0.400920 0.140340 0.103879
H12   H     H_    0.363873 0.533832 0.222652 0.143426
H13   H     H_    0.181923 0.424380 0.068162 0.137892
H14   H     H_    0.115730 0.525341 0.183529 0.150104
H15   H     H_    0.143109 0.407558 0.227467 0.087816
H16   H     H_    0.211399 0.508733 0.255624 0.138767
H17   H     H_    0.716584 0.323709 0.871894 0.095620
H18   H     H_    0.805222 0.345031 0.952185 0.167168
H19   H     H_    0.887562 0.436434 0.837728 0.153712
H20   H     H_    0.863323 0.315135 0.803176 0.085524
H21   H     H_    0.800273 0.414047 0.756820 0.145264
H22   H     H_    0.996736 0.590375 0.329782 0.100649
H23   H     H_    0.362603 0.532731 0.772355 0.134626
H24   H     H_    0.107977 0.637282 0.321515 0.144878
H25   H     H_    0.051583 0.803409 0.329279 0.146044
H26   H     H_    0.001696 0.737997 0.237748 0.100364
H27   H     H_    0.940499 0.758009 0.338130 0.141317
H28   H     H_    0.031235 0.424325 0.342282 0.104948
H29   H     H_    0.919304 0.409776 0.301330 0.135733
H30   H     H_    0.948167 0.230491 0.290543 0.160183
H31   H     H_    0.014763 0.303859 0.218079 0.084056
H32   H     H_    0.061788 0.254183 0.320137 0.138741
H33   H     H_    0.958976 0.550015 0.711821 0.096796
H34   H     H_    0.635700 0.461590 0.227497 0.158108
H35   H     H_    0.871649 0.638208 0.711041 0.168491
H36   H     H_    0.982463 0.768961 0.725848 0.146359
H37   H     H_    0.992982 0.681938 0.815682 0.108226
H38   H     H_    0.069796 0.681099 0.724960 0.152591
H39   H     H_    0.016150 0.397749 0.697884 0.105616
H40   H     H_    0.125261 0.345519 0.697656 0.158265
H41   H     H_    0.060002 0.182905 0.683295 0.155072
H42   H     H_    0.020925 0.243684 0.781159 0.082162
H43   H     H_    0.950900 0.234005 0.682672 0.149192
H44   H     H_    0.288481 0.735866 0.565069 0.150804
H45   H     H_    0.578718 0.069725 0.618926 0.096064
H46   H     H_    0.174784 0.711767 0.586310 0.118668
H47   H     H_    0.128519 0.831510 0.473722 0.176265
H48   H     H_    0.204334 0.884556 0.553303 0.075479
H49   H     H_    0.241095 0.853388 0.443224 0.163160
H50   H     H_    0.737788 0.273178 0.535302 0.175419
H51   H     H_    0.837756 0.236811 0.482499 0.173738
H52   H     H_    0.754843 0.169591 0.355387 0.136931
H53   H     H_    0.716407 0.118862 0.459242 0.091933
H54   H     H_    0.652714 0.210250 0.401301 0.170092
H55   H     H_    0.726803 0.748002 0.467046 0.153097
H56   H     H_    0.385583 0.927690 0.413429 0.091042
H57   H     H_    0.841020 0.720670 0.457546 0.123424
H58   H     H_    0.875882 0.815544 0.593649 0.179715
H59   H     H_    0.819354 0.886540 0.509402 0.073948
H60   H     H_    0.761114 0.843515 0.605768 0.161524
H61   H     H_    0.257730 0.278508 0.439039 0.178955
H62   H     H_    0.152206 0.246923 0.482741 0.169002
H63   H     H_    0.218417 0.143492 0.597523 0.140420
H64   H     H_    0.258039 0.110289 0.488866 0.086613
H65   H     H_    0.327490 0.178485 0.564790 0.173058
H66   H     H_    0.547149 0.172164 0.729604 0.103064
H67   H     H_    0.420588 0.072347 0.379780 0.099552
H68   H     H_    0.592275 0.284201 0.761036 0.152496
H69   H     H_    0.742411 0.236072 0.718682 0.148262
H70   H     H_    0.696706 0.155821 0.801444 0.092612
H71   H     H_    0.703212 0.119404 0.686352 0.130227
H72   H     H_    0.440669 0.719544 0.270944 0.156533
H73   H     H_    0.404442 0.840571 0.288022 0.082882
H74   H     H_    0.250081 0.791273 0.279381 0.142356
H75   H     H_    0.307408 0.750295 0.182006 0.120220
H76   H     H_    0.280724 0.666764 0.270615 0.186871
H77   H     H_    0.471987 0.180812 0.272453 0.094450
H78   H     H_    0.614136 0.926821 0.586953 0.089642
H79   H     H_    0.437133 0.298411 0.242374 0.161544
H80   H     H_    0.280429 0.252117 0.248104 0.142484
H81   H     H_    0.340139 0.177016 0.172329 0.096175
H82   H     H_    0.310343 0.131335 0.281031 0.133686
H83   H     H_    0.533468 0.737052 0.721365 0.144644
H84   H     H_    0.607182 0.839184 0.714911 0.084191
H85   H     H_    0.734225 0.741155 0.747989 0.145275
H86   H     H_    0.651726 0.713990 0.829902 0.102525
H87   H     H_    0.670967 0.631878 0.739200 0.191047
H88   H     H_    0.233366 0.395014 0.926969 0.098017
N1    N     N_R   0.500000 0.258690 0.500000 -0.203125
N2    N     N_R   0.500000 0.741310 0.500000 -0.216023
O1    O     O_R   0.371460 0.581430 0.500010 -0.446213
O2    O     O_3   0.728361 0.418894 0.096082 -0.547534
O3    O     O_3   0.262371 0.542946 0.088470 -0.541304
O4    O     O_3   0.735725 0.466465 0.914190 -0.546088
O5    O     O_3   0.046050 0.655435 0.444565 -0.510190
O6    O     O_3   0.949693 0.346997 0.426049 -0.519113
O7    O     O_3   0.951357 0.639484 0.599099 -0.515709
O8    O     O_3   0.052145 0.337552 0.577788 -0.518734
O9    O     O_3   0.225206 0.666997 0.460444 -0.499308
O10   O     O_3   0.768285 0.349217 0.419288 -0.545785
O11   O     O_3   0.772638 0.658308 0.567889 -0.508148
O12   O     O_R   0.628540 0.418570 0.499990 -0.457283
O13   O     O_3   0.233539 0.334514 0.564327 -0.541147
O14   O     O_3   0.595410 0.263297 0.626000 -0.533825
O15   O     O_3   0.382701 0.739773 0.393463 -0.489411
O16   O     O_3   0.406696 0.263030 0.371706 -0.535598
O17   O     O_3   0.613748 0.739248 0.610171 -0.492179
O18   O     O_R   0.628540 0.581430 0.499990 -0.447414
O19   O     O_R   0.371460 0.418570 0.500010 -0.447449
O20   O     O_R   0.499980 0.581440 0.370260 -0.498472
O21   O     O_R   0.500020 0.418560 0.629740 -0.465241
O22   O     O_R   0.500020 0.581440 0.629740 -0.497661
O23   O     O_R   0.499980 0.418560 0.370260 -0.472462
O24   O     O_3   0.261562 0.542664 0.904511 -0.538982

loop_
_geom_bond_atom_site_label_1
_geom_bond_atom_site_label_2
_ccdc_geom_bond_type
C66   C68   S    
C59   H54   S    
C27   C29   A    
C34   C37   A    
C63   H64   S    
C12   O12   A    
Cu1   O22   S    
Cu1   Cu2   S    
C3    C6    A    
C8    C56   A    
C49   H28   S    
C7    C8    S    
C11   C18   A    
C53   C54   S    
C71   H84   S    
C29   C36   A    
C27   H23   S    
C69   H79   S    
C47   H22   S    
C20   C26   S    
C1    C5    S    
C7    C45   A    
C24   C26   A    
Cu2   O12   S    
C17   N2    A    
C57   H49   S    
C38   C39   S    
C64   O14   S    
C16   O16   S    
C52   H36   S    
C73   O8    S    
C18   C19   S    
C5    C74   A    
C51   O7    S    
C44   H17   S    
C2    O10   S    
C46   H19   S    
C47   C48   S    
C68   H76   S    
C38   O24   S    
C22   C25   A    
C61   H58   S    
C9    H45   S    
C72   H85   S    
C31   C33   A    
C15   N2    A    
Cu2   O23   S    
C65   H71   S    
C16   N1    A    
C66   H72   S    
C34   O4    S    
C53   H40   S    
C69   O16   S    
C38   H88   S    
C55   H46   S    
C58   H51   S    
C51   H33   S    
C54   H43   S    
C56   O6    S    
C50   H32   S    
C40   H7    S    
C2    C6    A    
Cu1   O18   S    
C45   O5    S    
C60   H55   S    
C44   C46   S    
C53   O8    S    
C21   O21   A    
C37   O2    S    
C44   O4    S    
C55   H44   S    
C58   O10   S    
C43   H14   S    
C13   C19   A    
C51   C52   S    
C24   C35   A    
C32   C35   A    
C40   H6    S    
C39   H4    S    
C44   H18   S    
C39   H5    S    
C66   H73   S    
C7    C73   A    
C20   O23   A    
C49   H29   S    
C38   H2    S    
C28   H34   S    
C60   O11   S    
C52   H37   S    
C48   H27   S    
C43   H15   S    
C47   H24   S    
C30   C37   A    
C45   C74   A    
C70   H82   S    
C39   H3    S    
C9    C14   A    
C62   C63   S    
C41   H10   S    
C42   O3    S    
C71   O17   S    
C57   H47   S    
C11   C16   A    
C17   O17   S    
C31   C32   A    
C23   O3    S    
C10   C19   A    
C48   H26   S    
C33   C34   A    
C63   H65   S    
Cu2   N1    S    
C62   H62   S    
C14   N1    A    
C24   H12   S    
C55   O9    S    
C4    C73   A    
Cu2   O21   S    
C72   H86   S    
C40   C41   S    
C46   H21   S    
C58   H50   S    
C23   C35   A    
C41   H9    S    
C54   H42   S    
C50   H31   S    
C49   C50   S    
C70   H80   S    
C58   C59   S    
Cu1   O20   S    
C42   C43   S    
C4    O13   S    
C65   H69   S    
C62   O13   S    
C71   H83   S    
C61   H59   S    
C21   O22   A    
C69   H77   S    
C22   C33   A    
C21   C25   S    
C59   H53   S    
C30   C32   A    
C51   H35   S    
C63   H63   S    
C66   O15   S    
C3    C67   A    
C22   H1    S    
C4    C5    A    
C49   O6    S    
C47   O5    S    
C36   O24   S    
C52   H38   S    
C25   C27   A    
C64   H68   S    
C26   C28   A    
C43   H16   S    
C13   C17   A    
C10   C15   A    
C42   H13   S    
C1    O19   A    
C70   H81   S    
C55   C57   S    
C59   H52   S    
C74   O9    S    
C29   C31   A    
C68   H75   S    
C2    C56   A    
C64   C65   S    
C57   H48   S    
C6    C12   S    
C41   H8    S    
C12   O18   A    
C64   H66   S    
C67   O7    S    
C48   H25   S    
C15   O15   S    
C28   C30   A    
C72   H87   S    
Cu1   N2    S    
C62   H61   S    
C3    O11   S    
C69   C70   S    
C10   H56   S    
C13   H78   S    
C40   O2    S    
C68   H74   S    
C20   O20   A    
C9    C18   A    
C71   C72   S    
C46   H20   S    
C8    C67   A    
C23   C36   A    
C54   H41   S    
C50   H30   S    
C1    O1    A    
C60   C61   S    
Cu1   O1    S    
C42   H11   S    
C65   H70   S    
C11   H67   S    
C60   H57   S    
C14   O14   S    
Cu2   O19   S    
C53   H39   S    
C61   H60   S    
