data_mof_unit_59323.cif
_audit_creation_date              2012-12-11T15:24:35-0500
_audit_creation_method            fapswitch 2.2
_symmetry_space_group_name_H-M    P1
_symmetry_Int_Tables_number       1
_space_group_crystal_system       triclinic
_cell_length_a                    22.967488
_cell_length_b                    7.141316
_cell_length_c                    20.938818
_cell_angle_alpha                 90.000092
_cell_angle_beta                  93.295135
_cell_angle_gamma                 89.999917
_cell_volume                      3428.66692571

loop_
_atom_site_label
_atom_site_type_symbol
_atom_type_description
_atom_site_fract_x
_atom_site_fract_y
_atom_site_fract_z
_atom_type_partial_charge
O1    O     O_R   0.188030 0.379840 0.189340 -0.545934
O2    O     O_R   0.811970 0.620160 0.810660 -0.538951
O3    O     O_R   0.311970 0.879840 0.310660 -0.545934
O4    O     O_R   0.688030 0.120160 0.689340 -0.538953
O5    O     O_R   0.307090 0.708420 0.185790 -0.540733
O6    O     O_R   0.692910 0.291580 0.814210 -0.548896
O7    O     O_R   0.192910 0.208420 0.314210 -0.540734
O8    O     O_R   0.807090 0.791580 0.685790 -0.548902
C1    C     C_R   0.327136 0.541040 0.171785 0.735554
C2    C     C_R   0.675706 0.459519 0.831144 0.731544
C3    C     C_R   0.172864 0.041041 0.328214 0.735554
C4    C     C_R   0.824294 0.959519 0.668855 0.731545
O9    O     O_R   0.188180 0.709480 0.181650 -0.548855
O10   O     O_R   0.811820 0.290520 0.818350 -0.550226
O11   O     O_R   0.311820 0.209480 0.318350 -0.548855
O12   O     O_R   0.688180 0.790520 0.681650 -0.550231
O13   O     O_R   0.192210 0.880960 0.306500 -0.546337
O14   O     O_R   0.807790 0.119040 0.693500 -0.535627
O15   O     O_R   0.307790 0.380960 0.193500 -0.546337
O16   O     O_R   0.692210 0.619040 0.806500 -0.535626
C5    C     C_R   0.167229 0.540839 0.166895 0.818568
C6    C     C_R   0.831527 0.459110 0.834789 0.813341
C7    C     C_R   0.332771 0.040839 0.333105 0.818571
C8    C     C_R   0.668472 0.959109 0.665212 0.813337
O17   O     O_3   0.251460 0.546730 0.290970 -0.389434
O18   O     O_3   0.748540 0.453270 0.709030 -0.392001
O19   O     O_3   0.248540 0.046730 0.209030 -0.389435
O20   O     O_3   0.751460 0.953270 0.790970 -0.392011
V1    V     V_3+5 0.249730 0.821120 0.242400 1.334812
V2    V     V_3+5 0.750270 0.178880 0.757600 1.334959
V3    V     V_3+5 0.250270 0.321120 0.257600 1.334810
V4    V     V_3+5 0.749730 0.678880 0.742400 1.334954
C9    C     C_R   0.562516 0.009258 0.632000 0.309339
C10   C     C_R   0.440814 0.047833 0.363246 0.305804
C11   C     C_R   0.937484 0.509276 0.868000 0.309337
C12   C     C_R   0.059187 0.547829 0.136754 0.305806
C13   C     C_R   0.619341 0.967224 0.614996 -0.220699
C14   C     C_R   0.383015 0.029636 0.381690 -0.230518
C15   C     C_R   0.880660 0.467226 0.885003 -0.220691
C16   C     C_R   0.116986 0.529636 0.118309 -0.230518
C17   C     C_R   0.629047 0.928618 0.550649 0.301983
C18   C     C_R   0.372831 0.994506 0.445878 0.310163
C19   C     C_R   0.870956 0.428601 0.949350 0.301959
C20   C     C_R   0.127170 0.494511 0.054121 0.310164
C21   C     C_R   0.583809 0.965377 0.501986 -0.044555
C22   C     C_R   0.419702 0.007045 0.493464 -0.040409
C23   C     C_R   0.916192 0.465365 0.998013 -0.044554
C24   C     C_R   0.080299 0.507051 0.006535 -0.040407
C25   C     C_R   0.525389 0.982411 0.520698 -0.082806
C26   C     C_R   0.478101 0.997761 0.473931 -0.081322
C27   C     C_R   0.974612 0.482413 0.979301 -0.082810
C28   C     C_R   0.021900 0.497762 0.026068 -0.081324
C29   C     C_R   0.514346 0.985644 0.586700 -0.034003
C30   C     C_R   0.488970 0.006506 0.407773 -0.033078
C31   C     C_R   0.985654 0.485659 0.913299 -0.034007
C32   C     C_R   0.011031 0.506501 0.092226 -0.033079
C33   C     C_R   0.594712 0.981087 0.435867 0.156651
C34   C     C_R   0.409718 0.017228 0.559802 0.147498
C35   C     C_R   0.905289 0.481066 0.064132 0.156665
C36   C     C_R   0.090283 0.517239 0.940197 0.147499
C37   C     C_R   0.547505 0.983163 0.388929 0.146094
C38   C     C_R   0.455729 0.979946 0.605360 0.148999
C39   C     C_R   0.952496 0.483150 0.111070 0.146092
C40   C     C_R   0.044271 0.479965 0.894639 0.148999
C41   C     C_3   0.038848 0.078172 0.516016 0.040121
C42   C     C_3   0.942378 0.919308 0.462930 0.073605
C43   C     C_3   0.461152 0.578173 0.983984 0.040123
C44   C     C_3   0.557621 0.419305 0.037069 0.073596
C45   C     C_3   0.008792 0.900275 0.541457 0.068006
C46   C     C_3   0.971825 0.098367 0.437903 0.067290
C47   C     C_3   0.491208 0.400276 0.958542 0.068006
C48   C     C_3   0.528174 0.598365 0.062097 0.067291
C49   C     C_1   0.866636 0.969250 0.619981 -0.188691
C50   C     C_1   0.123530 0.031153 0.369289 -0.191460
C51   C     C_1   0.633364 0.469250 0.880018 -0.188705
C52   C     C_1   0.376470 0.531152 0.130710 -0.191458
C53   C     C_3   0.978251 0.171363 0.507369 0.441051
C54   C     C_3   0.002718 0.825211 0.472185 0.447949
C55   C     C_3   0.521749 0.671363 0.992631 0.441053
C56   C     C_3   0.497281 0.325210 0.027813 0.447949
C57   C     C_3   0.948203 0.993869 0.531984 -0.068082
C58   C     C_3   0.032525 0.002903 0.446283 -0.080731
C59   C     C_3   0.551797 0.493868 0.968015 -0.068082
C60   C     C_3   0.467474 0.502903 0.053716 -0.080729
C61   C     C_1   0.902449 0.979381 0.579488 -0.015751
C62   C     C_1   0.081992 0.018748 0.402996 -0.007007
C63   C     C_1   0.597550 0.479381 0.920512 -0.015748
C64   C     C_1   0.418007 0.518747 0.097003 -0.007009
O21   O     O_3   0.555249 0.065990 0.694141 -0.585846
C65   C     C_3   0.531566 0.248789 0.695389 0.052262
H1    H     H_    0.511023 0.265595 0.741812 0.134833
H2    H     H_    0.496597 0.276818 0.657717 0.134374
C66   C     C_3   0.579095 0.394841 0.690445 -0.298524
H3    H     H_    0.614045 0.368090 0.727518 0.218332
H4    H     H_    0.597715 0.386956 0.642727 0.182769
C67   C     C_3   0.554011 0.587987 0.699814 -0.865326
H5    H     H_    0.524279 0.623225 0.657897 0.240641
H6    H     H_    0.589738 0.690375 0.703951 0.257894
H7    H     H_    0.530123 0.594277 0.744442 0.218023
O22   O     O_3   0.448510 0.101541 0.300767 -0.582968
C68   C     C_3   0.472675 0.283665 0.299563 0.055641
H8    H     H_    0.508500 0.307385 0.336808 0.129082
H9    H     H_    0.492081 0.301412 0.252525 0.142166
C69   C     C_3   0.425382 0.430490 0.306066 -0.325757
H10   H     H_    0.389701 0.401142 0.270371 0.229611
H11   H     H_    0.408390 0.423763 0.354599 0.187256
C70   C     C_3   0.448440 0.625184 0.294783 -0.848477
H12   H     H_    0.480571 0.660639 0.334442 0.242568
H13   H     H_    0.411881 0.726021 0.293872 0.258576
H14   H     H_    0.469036 0.633216 0.248146 0.228470
O23   O     O_3   0.944749 0.566017 0.805860 -0.585846
C71   C     C_3   0.968432 0.748816 0.804614 0.052265
H15   H     H_    0.988977 0.765622 0.758192 0.134836
H16   H     H_    0.003400 0.776843 0.842288 0.134370
C72   C     C_3   0.920904 0.894869 0.809557 -0.298511
H17   H     H_    0.885953 0.868116 0.772484 0.218329
H18   H     H_    0.902282 0.886991 0.857275 0.182763
C73   C     C_3   0.945989 0.088012 0.800186 -0.865318
H19   H     H_    0.975720 0.123255 0.842103 0.240640
H20   H     H_    0.910262 0.190402 0.796046 0.257893
H21   H     H_    0.969878 0.094295 0.755559 0.218016
O24   O     O_3   0.051490 0.601537 0.199232 -0.582969
C74   C     C_3   0.027325 0.783660 0.200436 0.055638
H22   H     H_    0.991500 0.807380 0.163190 0.129082
H23   H     H_    0.007917 0.801407 0.247474 0.142167
C75   C     C_3   0.074617 0.930486 0.193934 -0.325755
H24   H     H_    0.110298 0.901138 0.229630 0.229610
H25   H     H_    0.091610 0.923759 0.145402 0.187258
C76   C     C_3   0.051559 0.125180 0.205217 -0.848477
H26   H     H_    0.019428 0.160634 0.165558 0.242570
H27   H     H_    0.088118 0.226018 0.206129 0.258576
H28   H     H_    0.030962 0.133212 0.251854 0.228470
O25   O     O_3   0.683881 0.864174 0.536807 -0.578140
C77   C     C_3   0.680983 0.677470 0.513747 0.059460
H29   H     H_    0.705872 0.670831 0.469898 0.143751
H30   H     H_    0.635942 0.626237 0.500405 0.109465
C78   C     C_3   0.710120 0.545887 0.563425 -0.270108
H31   H     H_    0.753980 0.600363 0.579111 0.214765
H32   H     H_    0.682694 0.537339 0.605043 0.214676
C79   C     C_3   0.716276 0.349000 0.537143 -0.848847
H33   H     H_    0.672242 0.292224 0.524172 0.234277
H34   H     H_    0.737984 0.257566 0.574214 0.255666
H35   H     H_    0.742868 0.350121 0.494480 0.225350
O26   O     O_3   0.316195 0.952466 0.460670 -0.579235
C80   C     C_3   0.312853 0.767865 0.485069 0.040424
H36   H     H_    0.275707 0.763989 0.516785 0.139915
H37   H     H_    0.352104 0.722365 0.514747 0.128296
C81   C     C_3   0.301021 0.628640 0.430890 -0.283529
H38   H     H_    0.261674 0.674237 0.402471 0.226758
H39   H     H_    0.338271 0.626991 0.399422 0.196281
C82   C     C_3   0.292064 0.432311 0.456756 -0.829738
H40   H     H_    0.334772 0.376758 0.475472 0.231045
H41   H     H_    0.274227 0.339617 0.418087 0.268257
H42   H     H_    0.260741 0.433079 0.495262 0.214669
O27   O     O_3   0.816128 0.364107 0.963191 -0.578135
C83   C     C_3   0.819042 0.177392 0.986239 0.059498
H43   H     H_    0.794198 0.170734 0.030118 0.143759
H44   H     H_    0.864090 0.126134 0.999523 0.109427
C84   C     C_3   0.789858 0.045845 0.936582 -0.270110
H45   H     H_    0.745993 0.100363 0.920935 0.214733
H46   H     H_    0.817251 0.037282 0.894939 0.214724
C85   C     C_3   0.783705 0.848958 0.962866 -0.848873
H47   H     H_    0.827740 0.792156 0.975811 0.234280
H48   H     H_    0.761974 0.757540 0.925804 0.255645
H49   H     H_    0.757134 0.850090 0.005544 0.225358
O28   O     O_3   0.183807 0.452473 0.039329 -0.579236
C86   C     C_3   0.187149 0.267872 0.014929 0.040424
H50   H     H_    0.224297 0.263995 0.983217 0.139914
H51   H     H_    0.147899 0.222377 0.985248 0.128298
C87   C     C_3   0.198977 0.128645 0.069108 -0.283537
H52   H     H_    0.238323 0.174238 0.097530 0.226761
H53   H     H_    0.161725 0.126999 0.100574 0.196279
C88   C     C_3   0.207933 0.932316 0.043242 -0.829738
H54   H     H_    0.165225 0.876768 0.024524 0.231045
H55   H     H_    0.225768 0.839620 0.081911 0.268258
H56   H     H_    0.239257 0.933082 0.004738 0.214669
C89   C     C_3   0.655709 0.014369 0.413216 -0.754452
H57   H     H_    0.672405 0.886283 0.390581 0.197512
H58   H     H_    0.654796 0.130185 0.377842 0.192928
H59   H     H_    0.687636 0.062066 0.450871 0.247511
C90   C     C_3   0.351901 0.080943 0.584535 -0.752942
H60   H     H_    0.328559 0.961202 0.605114 0.200187
H61   H     H_    0.359844 0.189082 0.622109 0.189066
H62   H     H_    0.322838 0.150553 0.548296 0.244131
C91   C     C_3   0.844291 0.514342 0.086781 -0.754449
H63   H     H_    0.827599 0.386264 0.109424 0.197514
H64   H     H_    0.845202 0.630176 0.122148 0.192925
H65   H     H_    0.812361 0.562009 0.049124 0.247513
C92   C     C_3   0.148100 0.580952 0.915464 -0.752946
H66   H     H_    0.171442 0.461210 0.894885 0.200187
H67   H     H_    0.140158 0.689093 0.877891 0.189068
H68   H     H_    0.177164 0.650557 0.951704 0.244132
C93   C     C_3   0.562153 0.951359 0.319571 -0.762522
H69   H     H_    0.581215 0.079707 0.299445 0.198593
H70   H     H_    0.593944 0.834977 0.316904 0.195956
H71   H     H_    0.525284 0.906398 0.287461 0.251908
C94   C     C_3   0.439842 0.927667 0.672742 -0.769384
H72   H     H_    0.423084 0.051057 0.698109 0.200458
H73   H     H_    0.405680 0.817484 0.670094 0.193521
H74   H     H_    0.476024 0.867373 0.702686 0.246111
C95   C     C_3   0.937847 0.451351 0.180427 -0.762525
H75   H     H_    0.918781 0.579697 0.200552 0.198594
H76   H     H_    0.906058 0.334962 0.183096 0.195954
H77   H     H_    0.974716 0.406400 0.212539 0.251910
C96   C     C_3   0.060157 0.427696 0.827255 -0.769387
H78   H     H_    0.076915 0.551089 0.801890 0.200458
H79   H     H_    0.094320 0.317513 0.829901 0.193522
H80   H     H_    0.023975 0.367403 0.797311 0.246109
C97   C     C_3   0.031152 0.811518 0.604317 -0.789721
H81   H     H_    0.064062 0.702310 0.595438 0.202612
H82   H     H_    0.051407 0.919338 0.636590 0.206266
H83   H     H_    0.994080 0.756119 0.629821 0.209213
C98   C     C_3   0.946391 0.208504 0.380643 -0.715063
H84   H     H_    0.898977 0.229733 0.385401 0.210978
H85   H     H_    0.967179 0.347607 0.378480 0.243316
H86   H     H_    0.953084 0.129925 0.335947 0.186226
C99   C     C_3   0.468848 0.311521 0.895681 -0.789724
H87   H     H_    0.435937 0.202314 0.904559 0.202610
H88   H     H_    0.448593 0.419342 0.863408 0.206267
H89   H     H_    0.505920 0.256122 0.870178 0.209211
C100  C     C_3   0.553608 0.708501 0.119357 -0.715060
H90   H     H_    0.601022 0.729732 0.114600 0.210979
H91   H     H_    0.532820 0.847604 0.121521 0.243314
H92   H     H_    0.546915 0.629921 0.164052 0.186225
C101  C     C_3   0.095715 0.154555 0.547944 -0.791767
H93   H     H_    0.086170 0.254004 0.586651 0.199008
H94   H     H_    0.122484 0.037529 0.568434 0.218103
H95   H     H_    0.122784 0.222983 0.512645 0.203581
C102  C     C_3   0.888406 0.824625 0.432145 -0.698104
H96   H     H_    0.896408 0.785905 0.382072 0.207862
H97   H     H_    0.878426 0.696288 0.459339 0.226030
H98   H     H_    0.850704 0.921744 0.432426 0.196006
C103  C     C_3   0.404284 0.654557 0.952055 -0.791770
H99   H     H_    0.413830 0.754013 0.913351 0.199009
H100  H     H_    0.377517 0.537533 0.931563 0.218103
H101  H     H_    0.377214 0.722978 0.987356 0.203583
C104  C     C_3   0.611593 0.324621 0.067854 -0.698090
H102  H     H_    0.603591 0.285901 0.117927 0.207861
H103  H     H_    0.621573 0.196284 0.040660 0.226032
H104  H     H_    0.649295 0.421740 0.067574 0.196008
O29   O     O_3   0.007464 0.637830 0.453500 -0.541593
C105  C     C_3   0.066168 0.586838 0.451639 0.107680
H105  H     H_    0.071637 0.455110 0.477929 0.168363
H106  H     H_    0.097564 0.687382 0.475830 0.098389
C106  C     C_3   0.079919 0.552487 0.382394 -0.358600
H107  H     H_    0.060192 0.419145 0.364831 0.203294
H108  H     H_    0.061972 0.667431 0.351428 0.216394
C107  C     C_3   0.144897 0.541562 0.376788 -0.719006
H109  H     H_    0.165597 0.670151 0.396739 0.214522
H110  H     H_    0.152989 0.529913 0.325411 0.271580
H111  H     H_    0.163091 0.419347 0.403886 0.220047
O30   O     O_3   0.966071 0.356990 0.523390 -0.539085
C108  C     C_3   0.962658 0.373818 0.590012 0.120890
H112  H     H_    0.997481 0.467303 0.608128 0.133961
H113  H     H_    0.971637 0.243998 0.618386 0.093256
C109  C     C_3   0.902653 0.450396 0.603164 -0.345102
H114  H     H_    0.895257 0.585377 0.577731 0.212830
H115  H     H_    0.868527 0.351290 0.584566 0.203092
C110  C     C_3   0.897152 0.478486 0.674234 -0.718413
H116  H     H_    0.918636 0.363573 0.702102 0.229179
H117  H     H_    0.850807 0.478780 0.684899 0.266205
H118  H     H_    0.916921 0.614390 0.688562 0.232732
O31   O     O_3   0.492534 0.137829 0.046497 -0.541592
C111  C     C_3   0.433830 0.086841 0.048358 0.107682
H119  H     H_    0.428360 0.955117 0.022065 0.168361
H120  H     H_    0.402434 0.187389 0.024168 0.098388
C112  C     C_3   0.420078 0.052484 0.117602 -0.358594
H121  H     H_    0.439805 0.919138 0.135163 0.203294
H122  H     H_    0.438026 0.167423 0.148570 0.216394
C113  C     C_3   0.355101 0.041561 0.123208 -0.719015
H123  H     H_    0.334400 0.170151 0.103258 0.214522
H124  H     H_    0.347008 0.029912 0.174585 0.271581
H125  H     H_    0.336906 0.919346 0.096109 0.220048
O32   O     O_3   0.533929 0.856990 0.976611 -0.539084
C114  C     C_3   0.537343 0.873819 0.909989 0.120895
H126  H     H_    0.502520 0.967307 0.891873 0.133961
H127  H     H_    0.528362 0.744001 0.881615 0.093257
C115  C     C_3   0.597348 0.950392 0.896838 -0.345110
H128  H     H_    0.604744 0.085375 0.922270 0.212827
H129  H     H_    0.631474 0.851287 0.915438 0.203094
C116  C     C_3   0.602851 0.978475 0.825768 -0.718410
H130  H     H_    0.581371 0.863553 0.797901 0.229183
H131  H     H_    0.649197 0.978778 0.815105 0.266209
H132  H     H_    0.583080 0.114373 0.811438 0.232730

loop_
_geom_bond_atom_site_label_1
_geom_bond_atom_site_label_2
_ccdc_geom_bond_type
C34   C38   A    
C59   C63   S    
C67   H7    S    
C44   C56   S    
C66   H3    S    
C115  H129  S    
O19   V1    S    
O13   V1    S    
C95   H75   S    
O3    C7    A    
C114  H126  S    
C79   H35   S    
C100  H92   S    
C56   C60   S    
C110  H118  S    
O15   V3    S    
C97   H83   S    
C77   C78   S    
C69   H11   S    
C80   H36   S    
C91   H63   S    
O31   C111  S    
C86   H51   S    
C27   C31   A    
C96   H78   S    
C99   H89   S    
O1    C5    A    
C78   H32   S    
C42   C102  S    
C21   C33   A    
C75   H24   S    
C104  H102  S    
C34   C90   S    
O9    V1    S    
C83   H43   S    
C114  H127  S    
C79   H34   S    
C14   C18   A    
C48   C55   S    
C9    O21   S    
C44   C104  S    
C111  C112  S    
C108  H112  S    
O4    C8    A    
C112  C113  S    
C25   C29   A    
C44   C59   S    
C74   H23   S    
C87   H52   S    
C6    C15   S    
C72   H17   S    
C85   H49   S    
C109  C110  S    
O1    V3    S    
C101  H95   S    
C116  H130  S    
O2    V4    S    
O32   C114  S    
C18   C22   A    
C82   H42   S    
C94   H73   S    
C73   H19   S    
C69   H10   S    
C12   C16   A    
C97   H82   S    
C65   H2    S    
C1    O15   A    
C43   C103  S    
O23   C71   S    
C92   H68   S    
C2    O16   A    
C111  H119  S    
C96   H80   S    
C115  C116  S    
C67   H6    S    
C54   O29   S    
O2    C6    A    
C105  H106  S    
C82   H40   S    
C84   H46   S    
C24   C36   A    
O14   V2    S    
C1    C52   S    
C21   C25   A    
C39   C95   S    
C103  H99   S    
C52   C64   T    
C16   C20   A    
C85   H48   S    
C115  H128  S    
C107  H111  S    
C44   C48   S    
C76   H28   S    
O11   C7    A    
C89   H59   S    
C88   H55   S    
C78   H31   S    
C43   C60   S    
O12   C8    A    
C88   H54   S    
C4    C49   S    
C22   C34   A    
C46   C53   S    
C9    C29   A    
C70   H13   S    
C113  H125  S    
C45   C54   S    
C92   H66   S    
C56   O31   S    
C95   H76   S    
O10   V2    S    
C19   O27   S    
O20   V4    S    
C17   O25   S    
C71   H15   S    
C80   H37   S    
C102  H96   S    
C107  H110  S    
C57   C61   S    
O7    C3    A    
C86   C87   S    
C47   C59   S    
C98   H85   S    
C31   C40   A    
O17   V1    S    
C42   C54   S    
C78   C79   S    
C84   C85   S    
C105  C106  S    
O7    V3    S    
C11   C31   A    
C27   C28   A    
O8    V4    S    
C68   H8    S    
C74   H22   S    
C114  C115  S    
C43   C55   S    
C79   H33   S    
C97   H81   S    
C90   H61   S    
C86   H50   S    
C108  H113  S    
O18   V4    S    
C36   C92   S    
C91   H65   S    
C23   C27   A    
C75   C76   S    
C72   H18   S    
C99   H87   S    
C90   H60   S    
O19   V3    S    
C9    C13   A    
C48   C60   S    
C109  H115  S    
C116  H132  S    
C73   H21   S    
C4    O14   A    
C94   H74   S    
C12   O24   S    
C67   H5    S    
O5    C1    A    
C100  H90   S    
C12   C32   A    
C11   C15   A    
C41   C53   S    
C2    C51   S    
C54   C58   S    
C10   O22   S    
C84   H45   S    
C53   C57   S    
O8    C4    A    
C93   H71   S    
C109  H114  S    
O25   C77   S    
C93   H70   S    
C105  H105  S    
C32   C39   A    
C41   C101  S    
C53   O30   S    
C20   O28   S    
C81   H38   S    
C33   C37   A    
C103  H100  S    
C49   C61   T    
C69   C70   S    
C98   H84   S    
C89   H57   S    
C45   C57   S    
C71   H16   S    
O18   V2    S    
C111  H120  S    
O6    V2    S    
C100  H91   S    
C66   C67   S    
C93   H69   S    
C55   O32   S    
C104  H103  S    
C18   O26   S    
O28   C86   S    
C102  H97   S    
C95   H77   S    
C113  H124  S    
C106  C107  S    
C99   H88   S    
C70   H12   S    
C65   H1    S    
C110  H116  S    
O21   C65   S    
O5    V1    S    
C37   C93   S    
C80   C81   S    
C11   O23   S    
C107  H109  S    
C65   C66   S    
C85   H47   S    
O16   V4    S    
C98   H86   S    
C51   C63   T    
C8    C13   S    
C3    O13   A    
C75   H25   S    
C90   H62   S    
C101  H93   S    
C10   C14   A    
C46   C98   S    
O17   V3    S    
C47   C56   S    
C83   C84   S    
C60   C64   S    
C38   C94   S    
C81   H39   S    
O26   C80   S    
C74   C75   S    
C3    C50   S    
C50   C62   T    
O6    C2    A    
C108  C109  S    
C77   H30   S    
C112  H121  S    
C88   H56   S    
O11   V3    S    
C77   H29   S    
C30   C37   A    
O12   V4    S    
C7    C14   S    
C40   C96   S    
C22   C26   A    
C35   C39   A    
C47   C99   S    
C68   H9    S    
C36   C40   A    
C70   H14   S    
C116  H131  S    
O10   C6    A    
C106  H108  S    
C76   H26   S    
O20   V2    S    
C26   C30   A    
C110  H117  S    
C58   C62   S    
O9    C5    A    
C42   C57   S    
C33   C89   S    
C112  H122  S    
C10   C30   A    
O3    V1    S    
C41   C58   S    
C42   C46   S    
C5    C16   S    
C87   H53   S    
O29   C105  S    
C41   C45   S    
C48   C100  S    
C83   H44   S    
O22   C68   S    
C101  H94   S    
C89   H58   S    
C35   C91   S    
C43   C47   S    
C82   H41   S    
C13   C17   A    
C94   H72   S    
C46   C58   S    
C103  H101  S    
C73   H20   S    
C91   H64   S    
C23   C35   A    
C102  H98   S    
C55   C59   S    
C28   C32   A    
C24   C28   A    
C45   C97   S    
C15   C19   A    
C29   C38   A    
C66   H4    S    
C25   C26   A    
C104  H104  S    
C72   C73   S    
O27   C83   S    
C17   C21   A    
C113  H123  S    
C68   C69   S    
C92   H67   S    
O24   C74   S    
C106  H107  S    
C96   H79   S    
C19   C23   A    
C71   C72   S    
O4    V2    S    
C81   C82   S    
C20   C24   A    
O30   C108  S    
C76   H27   S    
C87   C88   S    
