data_mof_unit_52321.cif
_audit_creation_date              2012-12-10T16:50:19-0500
_audit_creation_method            fapswitch 2.2
_symmetry_space_group_name_H-M    P1
_symmetry_Int_Tables_number       1
_space_group_crystal_system       triclinic
_cell_length_a                    23.618781
_cell_length_b                    8.760761
_cell_length_c                    7.508936
_cell_angle_alpha                 103.196438
_cell_angle_beta                  94.562272
_cell_angle_gamma                 93.121072
_cell_volume                      1503.68967662

loop_
_atom_site_label
_atom_site_type_symbol
_atom_type_description
_atom_site_fract_x
_atom_site_fract_y
_atom_site_fract_z
_atom_type_partial_charge
C1    C     C_R   0.498126 0.200454 0.454083 0.870909
C2    C     C_R   0.501874 0.799546 0.545917 0.870908
C3    C     C_R   0.243562 0.586028 0.648966 -0.110727
C4    C     C_R   0.756438 0.413971 0.351033 -0.110727
C5    C     C_R   0.302930 0.597454 0.648586 -0.119306
C6    C     C_R   0.697070 0.402544 0.351414 -0.119306
C7    C     C_R   0.328589 0.497857 0.504805 -0.160557
C8    C     C_R   0.671410 0.502142 0.495195 -0.160557
C9    C     C_R   0.293011 0.392987 0.363377 0.244339
C10   C     C_R   0.706989 0.607012 0.636622 0.244339
C11   C     C_R   0.234037 0.395987 0.358236 -0.092153
C12   C     C_R   0.765963 0.604013 0.641763 -0.092154
C13   C     C_R   0.208757 0.491167 0.501278 0.238982
C14   C     C_R   0.791243 0.508833 0.498721 0.238982
C15   C     C_2   0.491054 0.033863 0.431237 0.048847
C16   C     C_2   0.508945 0.966137 0.568763 0.048847
C17   C     C_R   0.391158 0.499480 0.501736 0.847398
C18   C     C_R   0.608842 0.500520 0.498264 0.847399
C19   C     C_R   0.885507 0.646677 0.539264 0.588577
C20   C     C_R   0.114493 0.353322 0.460734 0.588576
C21   C     C_R   0.876750 0.366108 0.468588 0.588144
C22   C     C_R   0.123250 0.633891 0.531411 0.588144
C23   C     C_R   0.935439 0.361197 0.456697 -0.053949
C24   C     C_R   0.064561 0.638802 0.543302 -0.053949
C25   C     C_R   0.970203 0.502396 0.502101 -0.056007
C26   C     C_R   0.029797 0.497604 0.497898 -0.056007
C27   C     C_R   0.945497 0.647910 0.552442 -0.080422
C28   C     C_R   0.054503 0.352089 0.447556 -0.080422
C29   C     C_R   0.959646 0.217973 0.397504 -0.110036
C30   C     C_R   0.040354 0.782026 0.602494 -0.110036
C31   C     C_R   0.018244 0.212063 0.388915 0.303871
C32   C     C_R   0.981756 0.787937 0.611084 0.303871
Cu1   Cu    Cu3+1 0.506340 0.517380 0.684380 1.167696
Cu2   Cu    Cu3+1 0.493660 0.482620 0.315620 1.167696
H1    H     H_    0.932814 0.109348 0.353242 0.230368
H2    H     H_    0.067186 0.890651 0.646756 0.230368
H3    H     H_    0.223722 0.657344 0.761130 0.208169
H4    H     H_    0.776277 0.342655 0.238870 0.208170
H5    H     H_    0.207666 0.320736 0.243782 0.197953
H6    H     H_    0.792333 0.679264 0.756217 0.197953
N1    N     N_R   0.852468 0.507299 0.503417 -0.464191
N2    N     N_R   0.147532 0.492700 0.496582 -0.464191
N3    N     N_2   0.484110 0.456420 0.038520 0.069955
N4    N     N_2   0.515890 0.543580 0.961480 0.069955
O1    O     O_R   0.504120 0.286130 0.619770 -0.568571
O2    O     O_R   0.495880 0.713870 0.380230 -0.568571
O3    O     O_R   0.493410 0.256770 0.308360 -0.508563
O4    O     O_R   0.506590 0.743230 0.691640 -0.508563
O5    O     O_R   0.423230 0.514630 0.655730 -0.563905
O6    O     O_R   0.576770 0.485370 0.344270 -0.563905
O7    O     O_R   0.412530 0.485280 0.344320 -0.540278
O8    O     O_R   0.587470 0.514720 0.655680 -0.540278
O9    O     O_2   0.860135 0.782526 0.554556 -0.450854
O10   O     O_2   0.139865 0.217473 0.445442 -0.450854
O11   O     O_2   0.844238 0.230305 0.446505 -0.480670
O12   O     O_2   0.155762 0.769694 0.553494 -0.480670
Br1   Br    Br    0.043265 0.010007 0.276248 -0.388422
Br2   Br    Br    0.956735 0.989992 0.723751 -0.388422
C33   C     C_2   0.334901 0.721928 0.795336 0.951429
O13   O     O_2   0.377971 0.791948 0.765176 -0.542531
O14   O     O_R   0.312883 0.766748 0.965569 -0.720339
H7    H     H_    0.334243 0.863299 0.048697 0.392193
C34   C     C_2   0.665098 0.278070 0.204665 0.951430
O15   O     O_2   0.622029 0.208051 0.234826 -0.542532
O16   O     O_R   0.687117 0.233247 0.034433 -0.720338
H8    H     H_    0.665756 0.136697 0.951306 0.392194
Br3   Br    Br    0.321210 0.231593 0.181171 -0.376882
Br4   Br    Br    0.678790 0.768406 0.818829 -0.376884
Br5   Br    Br    0.447963 0.926407 0.202203 -0.336341
Br6   Br    Br    0.552037 0.073593 0.797797 -0.336342
Br7   Br    Br    0.427102 0.308469 0.901658 -0.224127
Br8   Br    Br    0.572898 0.691531 0.098342 -0.224127

loop_
_geom_bond_atom_site_label_1
_geom_bond_atom_site_label_2
_ccdc_geom_bond_type
C6    C34   S    
C12   H6    S    
C20   N2    A    
N3    N4    D    
C34   O16   S    
Cu1   O1    S    
C1    C15   S    
C30   H2    S    
C17   O7    A    
C25   C27   A    
C2    C16   S    
C29   H1    S    
C26   C28   A    
C22   O12   S    
C3    C13   A    
C32   Br2   S    
C3    C5    A    
C1    O1    A    
C19   O9    S    
C9    Br3   S    
Cu1   Cu2   S    
C27   C32   A    
C18   O8    A    
C33   O13   D    
C29   C31   A    
C19   N1    A    
C2    O2    A    
Cu1   O8    S    
C30   C32   A    
C9    C11   A    
C24   C26   A    
C31   Br1   S    
Cu2   O7    S    
C22   N2    A    
C10   C12   A    
C14   N1    S    
Cu2   O2    S    
C23   C29   A    
C22   C24   A    
C4    C6    A    
C13   N2    S    
C12   C14   A    
N4    Br8   S    
C10   Br4   S    
C21   C23   A    
C4    C14   A    
O14   H7    S    
C15   Br5   S    
N3    Br7   S    
C21   N1    A    
Cu2   O6    S    
C24   C30   A    
C33   O14   S    
C5    C33   S    
Cu1   O5    S    
C15   C16   D    
C11   H5    S    
C11   C13   A    
C23   C25   A    
C16   Br6   S    
C18   O6    A    
C20   O10   S    
O16   H8    S    
C17   O5    A    
C28   C31   A    
C7    C9    A    
Cu1   O4    S    
C5    C7    A    
C1    O3    A    
C21   O11   S    
C6    C8    A    
Cu2   O3    S    
C20   C28   A    
C2    O4    A    
C25   C26   A    
Cu1   N4    S    
C8    C10   A    
C8    C18   S    
Cu2   N3    S    
C34   O15   D    
C3    H3    S    
C4    H4    S    
C19   C27   A    
C7    C17   S    
