data_mof_unit_17122.cif
_audit_creation_date              2012-12-11T14:49:22-0500
_audit_creation_method            fapswitch 2.2
_symmetry_space_group_name_H-M    P1
_symmetry_Int_Tables_number       1
_space_group_crystal_system       triclinic
_cell_length_a                    16.914377
_cell_length_b                    16.715008
_cell_length_c                    19.413791
_cell_angle_alpha                 117.535705
_cell_angle_beta                  62.29874
_cell_angle_gamma                 100.635834
_cell_volume                      4305.93738215

loop_
_atom_site_label
_atom_site_type_symbol
_atom_type_description
_atom_site_fract_x
_atom_site_fract_y
_atom_site_fract_z
_atom_type_partial_charge
C1    C     C_R   0.038421 0.759918 0.012655 -0.122843
C2    C     C_R   0.251555 0.520786 0.827743 -0.124923
C3    C     C_R   0.178499 0.495226 0.093912 0.154958
C4    C     C_R   0.764317 0.418758 0.164423 -0.144111
C5    C     C_R   0.985597 0.341708 0.760431 -0.147103
C6    C     C_R   0.255403 0.541496 0.068095 0.010301
C7    C     C_R   0.935134 0.266728 0.761788 0.084907
C8    C     C_R   0.258346 0.459658 0.746251 0.070855
C9    C     C_R   0.033689 0.221987 0.997529 0.055642
C10   C     C_R   0.848874 0.133805 0.711611 -0.257705
C11   C     C_R   0.895403 0.209676 0.702473 0.112980
C12   C     C_R   0.767327 0.437546 0.240481 0.074706
C13   C     C_R   0.912218 0.224244 0.631162 -0.259795
C14   C     C_R   0.897546 0.155980 0.562297 0.139766
C15   C     C_R   0.864322 0.073735 0.566399 0.028198
C16   C     C_R   0.804717 0.560918 0.961676 -0.126790
C17   C     C_R   0.835058 0.064674 0.643217 0.142373
C18   C     C_R   0.925098 0.164520 0.485845 -0.203075
C19   C     C_R   0.929542 0.088869 0.411035 -0.199070
C20   C     C_R   0.907999 0.004227 0.412179 0.142993
C21   C     C_R   0.870827 0.997522 0.491036 0.031158
C22   C     C_R   0.849961 0.912792 0.492919 0.128225
C23   C     C_R   0.723561 0.549543 0.022867 0.059264
C24   C     C_R   0.810869 0.906473 0.571513 -0.199327
C25   C     C_R   0.802883 0.982562 0.646780 -0.203457
C26   C     C_R   0.931744 0.925392 0.335306 -0.288536
C27   C     C_R   0.926379 0.841346 0.336910 0.132799
C28   C     C_R   0.957379 0.672553 0.249705 -0.143533
C29   C     C_R   0.878071 0.835204 0.415752 -0.222580
C30   C     C_R   0.424084 0.435998 0.672089 -0.255046
C31   C     C_R   0.341218 0.415625 0.668578 0.115083
C32   C     C_R   0.338885 0.361734 0.588600 -0.252617
C33   C     C_R   0.417067 0.342120 0.512238 0.138544
C34   C     C_R   0.972378 0.760067 0.257817 -0.103064
C35   C     C_R   0.498646 0.374246 0.516355 0.026874
C36   C     C_R   0.502860 0.417186 0.596371 0.141125
C37   C     C_R   0.413516 0.299232 0.432364 -0.199159
C38   C     C_R   0.488210 0.296639 0.358166 -0.203311
C39   C     C_R   0.566839 0.336970 0.363448 0.141433
C40   C     C_R   0.738735 0.483875 0.040490 -0.126581
C41   C     C_R   0.573706 0.371759 0.441778 0.029376
C42   C     C_R   0.652535 0.412435 0.447618 0.143710
C43   C     C_R   0.658853 0.446641 0.525751 -0.204971
C44   C     C_R   0.584250 0.448919 0.599906 -0.203365
C45   C     C_R   0.250264 0.568370 0.012487 -0.164269
C46   C     C_R   0.635044 0.351086 0.294349 -0.255904
C47   C     C_R   0.708552 0.401893 0.303614 0.110826
C48   C     C_R   0.720085 0.426208 0.377935 -0.271562
C49   C     C_R   0.636888 0.593807 0.059096 0.128472
C50   C     C_R   0.324574 0.565169 0.099233 0.152233
C51   C     C_R   0.408483 0.526016 0.152729 -0.226055
C52   C     C_R   0.033915 0.752867 0.175687 0.510246
C53   C     C_R   0.334811 0.515608 0.136720 -0.134099
C54   C     C_R   0.388817 0.627688 0.080112 -0.271506
C55   C     C_R   0.468196 0.629973 0.086068 0.179172
C56   C     C_R   0.918869 0.263306 0.837015 -0.134491
C57   C     C_R   0.477950 0.577907 0.121962 0.183155
C58   C     C_R   0.561103 0.566321 0.113988 -0.267027
C59   C     C_R   0.626748 0.653379 0.030849 -0.169924
C60   C     C_R   0.541826 0.673602 0.046666 -0.217598
C61   C     C_R   0.835840 0.184427 0.143557 0.122727
C62   C     C_R   0.960053 0.863880 0.996487 0.133954
C63   C     C_R   0.887797 0.951083 0.968178 -0.226281
C64   C     C_R   0.842507 0.487510 0.240258 -0.131322
C65   C     C_R   0.925583 0.869783 0.945474 -0.170054
C66   C     C_R   0.958543 0.942081 0.069542 -0.276187
C67   C     C_R   0.172422 0.450989 0.751466 -0.130894
C68   C     C_R   0.919802 0.023757 0.093326 0.184271
C69   C     C_R   0.883069 0.027934 0.042744 0.191739
C70   C     C_R   0.840901 0.108528 0.068605 -0.287051
C71   C     C_R   0.872933 0.180771 0.193034 -0.144684
C72   C     C_R   0.914789 0.100811 0.168244 -0.224025
C73   C     C_R   0.962030 0.690701 0.935066 -0.124787
C74   C     C_R   0.988145 0.775035 0.979733 0.028213
C75   C     C_R   0.054894 0.306848 0.047554 -0.100231
C76   C     C_R   0.975950 0.238635 0.972289 -0.120618
H1    H     H_    0.078743 0.808897 0.040436 0.175716
H2    H     H_    0.948965 0.227950 0.482386 0.132980
H3    H     H_    0.723452 0.370014 0.136614 0.086268
H4    H     H_    0.956635 0.095201 0.351118 0.129020
H5    H     H_    0.960422 0.930336 0.274690 0.145564
H6    H     H_    0.868386 0.770919 0.418641 0.120204
H7    H     H_    0.792685 0.841763 0.573757 0.131414
H8    H     H_    0.778686 0.975417 0.705993 0.128174
H9    H     H_    0.427610 0.473470 0.733212 0.118903
H10   H     H_    0.276011 0.341575 0.584711 0.119734
H11   H     H_    0.351541 0.273002 0.428173 0.132958
H12   H     H_    0.870977 0.222720 0.866304 0.083853
H13   H     H_    0.482636 0.268374 0.297942 0.130906
H14   H     H_    0.626382 0.328764 0.236483 0.115950
H15   H     H_    0.815533 0.602930 0.930046 0.088391
H16   H     H_    0.777727 0.462519 0.385167 0.125796
H17   H     H_    0.719587 0.476751 0.530724 0.132792
H18   H     H_    0.588655 0.480820 0.660868 0.130821
H19   H     H_    0.566752 0.524995 0.140981 0.117350
H20   H     H_    0.684004 0.679615 0.991997 0.117108
H21   H     H_    0.416121 0.484300 0.178701 0.132826
H22   H     H_    0.535338 0.714938 0.019842 0.128043
H23   H     H_    0.151961 0.408356 0.701122 0.098920
H24   H     H_    0.290686 0.462786 0.147120 0.156506
H25   H     H_    0.382301 0.667088 0.051706 0.123328
H26   H     H_    0.811731 0.112951 0.031194 0.118201
H27   H     H_    0.914398 0.650204 0.298727 0.128647
H28   H     H_    0.868733 0.239998 0.250903 0.132445
H29   H     H_    0.860552 0.953324 0.928397 0.125781
H30   H     H_    0.942419 0.098949 0.207904 0.127869
H31   H     H_    0.926300 0.811181 0.888626 0.116183
H32   H     H_    0.983585 0.938677 0.110379 0.130404
H33   H     H_    0.691810 0.455981 0.083756 0.095293
H34   H     H_    0.098178 0.319080 0.077990 0.136621
H35   H     H_    0.873317 0.501992 0.282385 0.116881
H36   H     H_    0.932030 0.675751 0.892344 0.084732
H37   H     H_    0.291012 0.616849 0.989888 0.110319
H38   H     H_    0.094603 0.863022 0.211113 0.315662
H39   H     H_    0.944788 0.188254 0.933743 0.099624
H40   H     H_    0.304477 0.543132 0.847881 0.095718
H41   H     H_    0.999729 0.372920 0.718257 0.089990
H42   H     H_    0.831886 0.122993 0.767571 0.115581
H43   H     H_    0.944082 0.284513 0.625091 0.118577
I1    I     I_    0.108325 0.492567 0.216697 -0.519471
N1    N     N_R   0.036080 0.671900 0.995420 -0.044519
N2    N     N_R   0.867430 0.509300 0.948100 -0.040131
N3    N     N_R   0.003360 0.617250 0.167070 -0.057016
N4    N     N_R   0.825450 0.461270 0.995400 -0.041895
N5    N     N_R   0.045340 0.665280 0.119770 -0.067850
N6    N     N_R   0.883740 0.497640 0.167070 -0.035808
N7    N     N_R   0.987050 0.628910 0.948110 -0.043144
N8    N     N_R   0.174550 0.538730 0.004600 -0.051179
N9    N     N_R   0.954660 0.334720 0.880230 -0.040288
N10   N     N_R   0.116260 0.502360 0.832930 -0.043809
N11   N     N_R   0.012950 0.371090 0.051890 -0.036564
N12   N     N_R   0.963920 0.328100 0.004580 -0.045237
N13   N     N_R   0.165290 0.545350 0.880240 -0.040954
N14   N     N_R   0.132570 0.490700 0.051900 -0.056886
N15   N     N_R   0.996640 0.382750 0.832930 -0.040147
N16   N     N_R   0.834710 0.454650 0.119760 -0.041270
Ni1   Ni    Ni4+2 0.104370 0.604370 0.000010 0.245565
Ni2   Ni    Ni4+2 0.895630 0.395630 0.999990 0.204398
Ni3   Ni    Ni4+2 0.991920 0.505780 0.891500 0.208256
Ni4   Ni    Ni4+2 0.008080 0.494220 0.108500 0.242803
O1    O     O_3   0.092214 0.816947 0.156942 -0.807656

loop_
_geom_bond_atom_site_label_1
_geom_bond_atom_site_label_2
_ccdc_geom_bond_type
C61   C70   A    
C51   H21   S    
C66   C68   A    
C71   H28   S    
C63   C65   A    
N13   Ni1   S    
C6    C45   A    
C27   C29   A    
C1    H1    S    
C41   C42   A    
C14   C18   A    
C54   H25   S    
C35   C36   A    
C58   H19   S    
C3    C6    A    
C28   N3    A    
C39   C41   A    
N15   Ni3   S    
C38   H13   S    
N6    Ni4   S    
C26   C27   A    
C50   C54   A    
C1    C74   A    
N4    Ni2   S    
C22   C29   A    
C24   H7    S    
N2    Ni3   S    
N1    N7    A    
C60   H22   S    
N14   Ni4   S    
C30   C31   A    
C12   C64   A    
C56   H12   S    
C10   C17   A    
N12   Ni2   S    
C23   C40   A    
C11   C13   A    
C76   H39   S    
C5    N15   A    
C18   C19   A    
C73   C74   A    
N1    Ni1   S    
C16   N2    A    
N11   Ni4   S    
N3    N5    A    
C33   C35   A    
N9    N15   A    
C2    H40   S    
N9    Ni2   S    
C63   C69   A    
C68   C69   A    
C25   H8    S    
C51   C57   A    
C9    C76   A    
C13   C14   A    
C4    C12   A    
C56   N9    A    
C67   H23   S    
C4    N16   A    
C61   C71   A    
C28   C34   A    
C59   C60   A    
C53   H24   S    
C21   C22   A    
C19   H4    S    
N7    Ni3   S    
C7    C56   A    
C12   C47   S    
N10   Ni3   S    
C13   H43   S    
C75   N11   A    
C27   C34   S    
C40   N4    A    
C2    N13   A    
C62   C66   A    
C50   C53   A    
H38   O1    S    
C44   H18   S    
C24   C25   A    
C4    H3    S    
N16   Ni2   S    
C3    I1    S    
C5    C7    A    
C64   H35   S    
N5    Ni1   S    
C73   N7    A    
N3    Ni4   S    
C33   C37   A    
C49   C58   A    
C5    H41   S    
C51   C53   A    
C7    C11   S    
N8    Ni1   S    
C37   C38   A    
C10   H42   S    
N8    N14   A    
C47   C48   A    
C68   C72   A    
C32   H10   S    
C42   C48   A    
C6    C50   S    
C30   H9    S    
C8    C67   A    
C39   C46   A    
C18   H2    S    
C72   H30   S    
C26   H5    S    
C64   N6    A    
C55   C57   A    
C43   C44   A    
C48   H16   S    
C22   C24   A    
C36   C44   A    
C67   N10   A    
C63   H29   S    
C42   C43   A    
N2    N4    A    
N11   N12   A    
C73   H36   S    
C54   C55   A    
C15   C17   A    
C46   C47   A    
C75   H34   S    
C62   C65   A    
C8    C31   S    
C37   H11   S    
C31   C32   A    
C2    C8    A    
C66   H32   S    
C52   N5    A    
C70   H26   S    
C40   H33   S    
C46   H14   S    
C16   C23   A    
C9    C75   A    
C34   C52   A    
C52   O1    S    
C49   C59   A    
C30   C36   A    
C3    N14   A    
C17   C25   A    
C32   C33   A    
C19   C20   A    
C29   H6    S    
C76   N12   A    
C28   H27   S    
C57   C58   A    
C38   C39   A    
C20   C26   A    
C43   H17   S    
C69   C70   A    
C35   C41   A    
C1    N1    A    
C23   C49   S    
C10   C11   A    
N6    N16   A    
N10   N13   A    
C45   H37   S    
C15   C21   A    
C71   C72   A    
C20   C21   A    
C16   H15   S    
C59   H20   S    
C14   C15   A    
C62   C74   S    
C45   N8    A    
C55   C60   A    
C65   H31   S    
