data_mof_unit_44711.cif
_audit_creation_date              2012-10-26T20:32:04-0400
_audit_creation_method            fapswitch 2.2
_symmetry_space_group_name_H-M    P1
_symmetry_Int_Tables_number       1
_space_group_crystal_system       triclinic
_cell_length_a                    10.678961
_cell_length_b                    10.896055
_cell_length_c                    9.569951
_cell_angle_alpha                 89.488627
_cell_angle_beta                  90.064693
_cell_angle_gamma                 90.954209
_cell_volume                      1113.34628488

loop_
_atom_site_label
_atom_site_type_symbol
_atom_type_description
_atom_site_fract_x
_atom_site_fract_y
_atom_site_fract_z
_atom_type_partial_charge
C1    C     C_R   0.498770 0.262884 0.500423 0.586546
C2    C     C_R   0.518209 0.936880 0.615792 -0.028784
C3    C     C_3   0.540563 0.926159 0.770348 0.483164
C4    C     C_R   0.259703 0.498949 0.500045 0.583183
C5    C     C_3   0.524655 0.068345 0.774503 0.515453
C6    C     C_R   0.576160 0.579422 0.072924 0.199634
C7    C     C_R   0.414919 0.432153 0.074999 -0.040627
C8    C     C_R   0.415002 0.432020 0.926207 0.018158
C9    C     C_R   0.576500 0.578704 0.925315 0.156411
C10   C     C_3   0.715034 0.580810 0.917904 -0.260875
C11   C     C_3   0.716054 0.582416 0.076237 0.074652
C12   C     C_3   0.959397 0.520512 0.369462 -0.143315
C13   C     C_R   0.498687 0.737291 0.498880 0.548599
C14   C     C_R   0.740678 0.500536 0.500260 0.585573
C15   C     C_3   0.041210 0.479833 0.630535 0.259467
C16   C     C_3   0.957461 0.391851 0.547385 0.234371
C17   C     C_3   0.877585 0.500911 0.501255 0.003709
C18   C     C_3   0.961388 0.590801 0.586374 -0.173534
C19   C     C_3   0.044928 0.609470 0.454479 -0.192345
C20   C     C_3   0.759100 0.902778 0.718667 -0.028184
C21   C     C_3   0.884017 0.907720 0.795472 -0.367706
C22   C     C_3   0.414977 0.102670 0.981419 0.002963
C23   C     C_3   0.038938 0.411617 0.418312 0.204122
C24   C     C_3   0.282301 0.080863 0.035072 -0.348248
C25   C     C_3   0.006037 0.455999 0.866248 -0.021291
C26   C     C_3   0.065918 0.422955 0.005088 -0.350639
C27   C     C_3   0.123503 0.498956 0.500703 0.067984
C28   C     C_R   0.510691 0.060625 0.619497 0.042568
C29   C     C_R   0.496580 0.130477 0.499102 -0.038570
C30   C     C_R   0.481345 0.067270 0.372316 -0.116893
C31   C     C_R   0.474850 0.938580 0.369689 0.198475
C32   C     C_R   0.496803 0.870183 0.494974 -0.015153
Cu1   Cu    Cu3+1 0.499990 0.499980 0.640670 1.051381
Cu2   Cu    Cu3+1 0.500010 0.500020 0.359330 0.983084
H1    H     H_    0.348055 0.374730 0.131182 0.137080
H2    H     H_    0.982338 0.229241 0.618893 0.339389
H3    H     H_    0.752261 0.990170 0.658581 0.173106
H4    H     H_    0.758872 0.824886 0.644470 0.136137
H5    H     H_    0.898544 0.822368 0.856883 0.154758
H6    H     H_    0.961561 0.918668 0.718901 0.118705
H7    H     H_    0.886463 0.987096 0.867499 0.173064
H8    H     H_    0.452286 0.190477 0.022801 0.127493
H9    H     H_    0.474880 0.028297 0.023032 0.170170
H10   H     H_    0.248355 0.988097 0.004175 0.187586
H11   H     H_    0.279603 0.087454 0.150594 0.130336
H12   H     H_    0.348269 0.374424 0.871113 0.173252
H13   H     H_    0.218960 0.150248 0.989791 0.147847
H14   H     H_    0.657421 0.110662 0.905454 0.315029
H15   H     H_    0.721077 0.762465 0.090313 0.358978
H16   H     H_    0.931182 0.386467 0.844576 0.170469
H17   H     H_    0.966296 0.549119 0.875988 0.135801
H18   H     H_    0.132192 0.496856 0.038050 0.171010
H19   H     H_    0.991712 0.410821 0.084979 0.109030
H20   H     H_    0.116909 0.335712 0.996112 0.156690
H21   H     H_    0.007754 0.273144 0.300543 0.328512
H22   H     H_    0.375895 0.824500 0.263381 0.339176
H23   H     H_    0.749842 0.493740 0.874975 0.120077
H24   H     H_    0.470714 0.833977 0.928123 0.345647
H25   H     H_    0.752183 0.665112 0.866639 0.165583
H26   H     H_    0.756749 0.498596 0.123374 0.146648
H27   H     H_    0.926954 0.664058 0.655404 0.104145
H28   H     H_    0.084119 0.698485 0.415917 0.134017
H29   H     H_    0.926691 0.539533 0.262143 0.163997
H30   H     H_    0.469563 0.117472 0.275465 0.142351
N1    N     N_R   0.500800 0.500930 0.147930 -0.256980
N2    N     N_R   0.500800 0.500890 0.852020 -0.232779
O1    O     O_R   0.500000 0.319640 0.618810 -0.443725
O2    O     O_3   0.660694 0.885260 0.816764 -0.598448
O3    O     O_3   0.411618 0.109202 0.834002 -0.534273
O4    O     O_3   0.630908 0.139001 0.811427 -0.683248
O5    O     O_3   0.765978 0.691908 0.132181 -0.699435
O6    O     O_3   0.097517 0.455751 0.761140 -0.547944
O7    O     O_3   0.083433 0.318330 0.333206 -0.715240
O8    O     O_3   0.444784 0.884396 0.244495 -0.718158
O9    O     O_3   0.441609 0.860097 0.834177 -0.663790
O10   O     O_R   0.500010 0.319680 0.381230 -0.530256
O11   O     O_R   0.316850 0.499950 0.618770 -0.471156
O12   O     O_R   0.316860 0.499990 0.381190 -0.505139
O13   O     O_R   0.499990 0.680320 0.618770 -0.467665
O14   O     O_R   0.500000 0.680360 0.381190 -0.481287
O15   O     O_R   0.683140 0.500010 0.618810 -0.507186
O16   O     O_R   0.683150 0.500050 0.381230 -0.496917
O17   O     O_3   0.908534 0.278999 0.594228 -0.695794

loop_
_geom_bond_atom_site_label_1
_geom_bond_atom_site_label_2
_ccdc_geom_bond_type
C15   C18   S    
C13   O13   A    
C8    N2    A    
C30   H30   S    
C13   C32   S    
C3    O2    S    
C6    C9    A    
C7    C8    A    
C15   O6    S    
C12   C23   S    
C29   C30   A    
C24   H11   S    
C28   C29   A    
C30   C31   A    
C11   O5    S    
H2    O17   S    
C15   C16   S    
C2    C32   A    
C18   C19   S    
C25   H16   S    
C5    O3    S    
Cu2   O14   S    
C9    N2    A    
C6    N1    A    
C22   H9    S    
C16   C17   S    
C12   C17   S    
Cu1   N2    S    
C23   C27   S    
C19   C27   S    
C9    C10   S    
C22   O3    S    
C13   O14   A    
C24   H13   S    
C14   C17   S    
C23   O7    S    
C26   H20   S    
Cu2   N1    S    
H24   O9    S    
Cu1   Cu2   S    
H22   O8    S    
C19   H28   S    
C10   H23   S    
C6    C11   S    
C12   H29   S    
Cu1   O13   S    
C31   O8    S    
C25   C26   S    
C16   O17   S    
C25   H17   S    
C4    O12   A    
C5    O4    S    
C26   H18   S    
C7    N1    A    
C5    C28   S    
C20   H4    S    
C15   C27   S    
C31   C32   A    
C21   H5    S    
C1    C29   S    
C17   C18   S    
C25   O6    S    
C21   H7    S    
C16   C23   S    
C24   H10   S    
C22   C24   S    
C14   O16   A    
C11   H26   S    
C26   H19   S    
C4    C27   S    
C3    O9    S    
Cu1   O1    S    
C1    O10   A    
C7    H1    S    
C20   O2    S    
H14   O4    S    
C3    C5    S    
C18   H27   S    
C10   H25   S    
C4    O11   A    
Cu2   O12   S    
C20   H3    S    
Cu1   O11   S    
C22   H8    S    
C21   H6    S    
C12   C19   S    
C1    O1    A    
C2    C3    S    
C8    H12   S    
C10   C11   S    
H21   O7    S    
C20   C21   S    
H15   O5    S    
C2    C28   A    
Cu2   O16   S    
C14   O15   A    
Cu1   O15   S    
Cu2   O10   S    
