data_mof_unit_55279.cif
_audit_creation_date              2012-10-26T20:02:59-0400
_audit_creation_method            fapswitch 2.2
_symmetry_space_group_name_H-M    P1
_symmetry_Int_Tables_number       1
_space_group_crystal_system       triclinic
_cell_length_a                    10.743579
_cell_length_b                    12.308968
_cell_length_c                    13.263982
_cell_angle_alpha                 116.45288
_cell_angle_beta                  77.837787
_cell_angle_gamma                 101.573115
_cell_volume                      1523.69819374

loop_
_atom_site_label
_atom_site_type_symbol
_atom_type_description
_atom_site_fract_x
_atom_site_fract_y
_atom_site_fract_z
_atom_type_partial_charge
C1    C     C_R   0.518975 0.854857 0.287227 0.640300
C2    C     C_R   0.563115 0.557769 0.033333 -0.021753
C3    C     C_R   0.496085 0.649443 0.124826 -0.076965
C4    C     C_R   0.739498 0.002400 0.503819 0.600654
C5    C     C_R   0.500576 0.436202 0.986073 0.016903
C6    C     C_R   0.389272 0.402126 0.050533 -0.038882
C7    C     C_R   0.325793 0.493075 0.144195 0.271598
C8    C     C_R   0.372898 0.615548 0.173401 0.447801
C9    C     C_R   0.536600 0.350958 0.873036 0.252886
C10   C     C_R   0.382785 0.192766 0.908911 -0.120908
C11   C     C_R   0.556921 0.771696 0.169288 0.030210
C12   C     C_3   0.122275 0.002255 0.501897 -0.055522
C13   C     C_R   0.715519 0.356368 0.342857 -0.068916
C14   C     C_R   0.328317 0.760763 0.646598 0.532193
C15   C     C_R   0.301259 0.672277 0.688553 -0.028724
C16   C     C_R   0.487271 0.145576 0.713024 0.589525
C17   C     C_R   0.371447 0.572985 0.641850 0.190691
C18   C     C_R   0.464802 0.556063 0.543767 -0.017385
C19   C     C_R   0.494777 0.654496 0.508919 0.058081
C20   C     C_R   0.534135 0.450607 0.481733 -0.019291
C21   C     C_R   0.641442 0.454124 0.399251 0.043115
C22   C     C_R   0.672452 0.553748 0.371644 0.361202
C23   C     C_3   0.047002 0.014245 0.619480 0.224932
C24   C     C_R   0.598533 0.649356 0.422933 -0.037952
C25   C     C_R   0.499393 0.338783 0.493041 0.116609
C26   C     C_R   0.681600 0.253761 0.365374 0.072519
C27   C     C_R   0.260212 0.000609 0.500351 0.645276
C28   C     C_3   0.959391 0.116737 0.488449 0.063372
C29   C     C_3   0.102770 0.112463 0.481899 -0.231933
C30   C     C_3   0.901491 0.009054 0.620479 0.047966
C31   C     C_3   0.924809 0.885553 0.405924 0.273293
C32   C     C_3   0.877683 0.003625 0.505626 -0.080283
C33   C     C_3   0.067925 0.882335 0.406277 0.706977
C34   C     C_R   0.338491 0.278678 0.015000 -0.084520
C35   C     C_R   0.473575 0.229545 0.834186 0.032354
C36   C     C_R   0.678036 0.802374 0.116718 0.402652
C37   C     C_R   0.746946 0.710605 0.033603 -0.004208
C38   C     C_R   0.693256 0.589282 0.997828 -0.073639
Cl1   Cl    Cl    0.914839 0.260675 0.598545 -0.469188
Cl2   Cl    Cl    0.816497 0.882747 0.650707 -0.538150
Cl3   Cl    Cl    0.179016 0.458629 0.220255 -0.413217
Cl4   Cl    Cl    0.640540 0.401221 0.773899 -0.460667
Cl5   Cl    Cl    0.352397 0.492058 0.726616 -0.511764
Cu1   Cu    Cu3+1 0.529690 0.098270 0.475420 1.124594
Cu2   Cu    Cu3+1 0.470310 0.901730 0.524580 1.159865
F1    F     F_    0.078989 0.781711 0.423638 -0.514335
F2    F     F_    0.738018 0.918719 0.157434 -0.581545
F3    F     F_    0.296872 0.700852 0.249468 -0.489778
F4    F     F_    0.773166 0.557384 0.291174 -0.584843
F5    F     F_    0.261434 0.858361 0.697475 -0.596548
F6    F     F_    0.090720 0.123326 0.705056 -0.585876
F7    F     F_    0.906626 0.879661 0.302953 -0.566239
F8    F     F_    0.137254 0.869556 0.301554 -0.486316
H1    H     H_    0.065027 0.939203 0.637565 0.255993
H2    H     H_    0.229179 0.684683 0.762232 0.191259
H3    H     H_    0.628345 0.719038 0.393393 0.190303
H4    H     H_    0.152760 0.104507 0.396780 0.167982
H5    H     H_    0.147000 0.199170 0.545462 0.238370
H6    H     H_    0.865808 0.092305 0.692037 0.247486
H7    H     H_    0.867293 0.803522 0.414355 0.219453
H8    H     H_    0.335717 0.099673 0.880984 0.201822
H9    H     H_    0.259311 0.248412 0.065751 0.197185
H10   H     H_    0.756281 0.520580 0.945148 0.211703
H11   H     H_    0.845404 0.732927 0.001617 0.199667
H12   H     H_    0.943936 0.114323 0.407024 0.214920
H13   H     H_    0.739573 0.179087 0.323705 0.187693
H14   H     H_    0.799248 0.358930 0.281591 0.213288
H15   H     H_    0.410677 0.320755 0.541060 0.189490
N1    N     N_R   0.574690 0.246280 0.438200 -0.253750
N2    N     N_R   0.426100 0.754320 0.561190 -0.230952
O1    O     O_R   0.537340 0.972510 0.318130 -0.456899
O2    O     O_R   0.487200 0.806530 0.359650 -0.515841
O3    O     O_R   0.707380 0.082980 0.479220 -0.461765
O4    O     O_R   0.657240 0.917000 0.520740 -0.518095
O5    O     O_R   0.512800 0.193470 0.640350 -0.433595
O6    O     O_R   0.462660 0.027490 0.681870 -0.471532
O7    O     O_R   0.342760 0.083000 0.479260 -0.541689
O8    O     O_R   0.292620 0.917020 0.520780 -0.388713

loop_
_geom_bond_atom_site_label_1
_geom_bond_atom_site_label_2
_ccdc_geom_bond_type
C12   C29   S    
C16   O5    A    
C1    C11   S    
C31   F7    S    
C27   O8    A    
C17   Cl5   S    
C7    C8    A    
C12   C23   S    
C9    Cl4   S    
C1    O1    A    
Cu1   O1    S    
Cu2   O6    S    
Cu1   O7    S    
C2    C3    A    
C16   C35   S    
C5    C6    A    
C20   C25   A    
C34   H9    S    
C36   F2    S    
C18   C19   A    
Cu2   O8    S    
C31   C33   S    
C10   C35   A    
C4    O4    A    
C21   C22   A    
Cu2   O2    S    
C33   F1    S    
C14   N2    A    
C25   H15   S    
C33   F8    S    
C1    O2    A    
C12   C27   S    
C30   Cl2   S    
C26   H13   S    
C23   C30   S    
C28   C32   S    
C3    C8    A    
C28   Cl1   S    
C6    C34   A    
Cu2   O4    S    
C11   C36   A    
C31   H7    S    
Cu1   O5    S    
C8    F3    S    
C5    C9    A    
C37   C38   A    
C2    C38   A    
C23   F6    S    
C31   C32   S    
C30   H6    S    
C17   C18   A    
C13   C21   A    
Cu1   N1    S    
C10   C34   A    
C20   C21   A    
C4    O3    A    
C4    C32   S    
C22   F4    S    
C29   H4    S    
C22   C24   A    
C13   C26   A    
C10   H8    S    
C25   N1    A    
C37   H11   S    
Cu1   Cu2   S    
C23   H1    S    
C38   H10   S    
C13   H14   S    
C15   C17   A    
C28   C29   S    
Cu2   N2    S    
C16   O6    A    
C27   O7    A    
C6    C7    A    
C24   H3    S    
C19   C24   A    
C30   C32   S    
C14   F5    S    
C28   H12   S    
C18   C20   A    
C7    Cl3   S    
Cu1   O3    S    
C3    C11   A    
C2    C5    A    
C29   H5    S    
C36   C37   A    
C9    C35   A    
C26   N1    A    
C14   C15   A    
C19   N2    A    
C12   C33   S    
C15   H2    S    
