data_mof_unit_27641.cif
_audit_creation_date              2013-03-05T16:47:31-0500
_audit_creation_method            fapswitch 2.2
_symmetry_space_group_name_H-M    P1
_symmetry_Int_Tables_number       1
_space_group_crystal_system       triclinic
_cell_length_a                    10.916126
_cell_length_b                    10.911741
_cell_length_c                    9.810993
_cell_angle_alpha                 98.702806
_cell_angle_beta                  98.578812
_cell_angle_gamma                 93.034401
_cell_volume                      1138.83320534

loop_
_atom_site_label
_atom_site_type_symbol
_atom_site_description
_atom_site_fract_x
_atom_site_fract_y
_atom_site_fract_z
_atom_type_partial_charge
O1    O     O_R   0.517830 0.337490 0.617920 -0.576503
O2    O     O_R   0.482170 0.662510 0.382080 -0.567800
O3    O     O_R   0.482150 0.301790 0.382070 -0.585171
O4    O     O_R   0.517850 0.698210 0.617930 -0.583641
C1    C     C_R   0.500410 0.262015 0.499389 0.826162
C2    C     C_R   0.500925 0.738071 0.500627 0.809373
O5    O     O_R   0.337480 0.517860 0.617920 -0.583914
O6    O     O_R   0.662520 0.482140 0.382080 -0.599792
O7    O     O_R   0.301810 0.482160 0.382070 -0.575205
O8    O     O_R   0.698190 0.517840 0.617930 -0.575612
C3    C     C_R   0.261984 0.500221 0.499507 0.804196
C4    C     C_R   0.737935 0.499262 0.500479 0.817858
Cu1   Cu    Cu3+1 0.521120 0.521140 0.639640 0.975283
Cu2   Cu    Cu3+1 0.478880 0.478860 0.360360 0.966310
H1    H     H_    0.178074 0.382752 0.861860 0.172386
H2    H     H_    0.820995 0.609819 0.138032 0.173981
C5    C     C_R   0.165895 0.522610 0.037671 -0.202857
C6    C     C_R   0.834120 0.471336 0.961227 -0.208302
H3    H     H_    0.205365 0.595807 0.990604 0.202449
H4    H     H_    0.795462 0.397283 0.007728 0.157556
C7    C     C_R   0.127958 0.549625 0.168901 0.443006
C8    C     C_R   0.872393 0.445785 0.829999 0.441371
C9    C     C_R   0.078326 0.450730 0.228992 -0.084372
C10   C     C_R   0.920950 0.545760 0.770810 -0.091320
C11   C     C_R   0.064506 0.327615 0.153547 -0.046911
C12   C     C_R   0.932470 0.668607 0.846579 -0.041754
C13   C     C_R   0.098062 0.306024 0.019828 -0.055524
C14   C     C_R   0.899729 0.688622 0.980721 -0.057611
H5    H     H_    0.083792 0.214297 0.957809 0.205038
H6    H     H_    0.913091 0.779993 0.043431 0.206681
C15   C     C_R   0.150268 0.402081 0.963764 -0.289482
C16   C     C_R   0.848816 0.591478 0.036090 -0.279793
C17   C     C_R   0.915394 0.473557 0.375806 -0.210901
C18   C     C_R   0.084267 0.524228 0.624222 -0.187547
H7    H     H_    0.850503 0.452204 0.279034 0.135726
H8    H     H_    0.149024 0.544286 0.721148 0.176672
C19   C     C_R   0.872042 0.498251 0.503159 -0.043477
C20   C     C_R   0.127726 0.500294 0.496789 -0.057226
C21   C     C_R   0.957876 0.522627 0.629679 0.038595
C22   C     C_R   0.041777 0.475289 0.370252 0.053846
H9    H     H_    0.371422 0.169237 0.860192 0.133680
H10   H     H_    0.644982 0.839000 0.142439 0.158934
C23   C     C_R   0.307275 0.082244 0.021227 -0.084586
C24   C     C_R   0.706259 0.922674 0.977380 -0.125566
H11   H     H_    0.214848 0.057558 0.963290 0.198490
H12   H     H_    0.799092 0.948543 0.033580 0.209826
C25   C     C_R   0.337545 0.051031 0.153953 -0.128124
C26   C     C_R   0.674029 0.951007 0.843561 -0.093496
H13   H     H_    0.266283 0.005494 0.198790 0.209155
H14   H     H_    0.744128 0.995337 0.796086 0.217858
C27   C     C_R   0.458605 0.077665 0.228622 0.061614
C28   C     C_R   0.552258 0.923372 0.771414 0.014214
C29   C     C_R   0.551164 0.136198 0.166687 0.096847
C30   C     C_R   0.461399 0.866729 0.836396 0.096847
C31   C     C_R   0.517357 0.170249 0.034387 -0.206663
C32   C     C_R   0.497006 0.834893 0.969716 -0.109904
H15   H     H_    0.585408 0.216613 0.985810 0.146300
H16   H     H_    0.430297 0.789541 0.020805 0.181526
C33   C     C_R   0.396218 0.143583 0.962450 -0.209184
C34   C     C_R   0.618790 0.862503 0.039330 -0.233052
C35   C     C_R   0.482530 0.915621 0.375776 -0.161032
C36   C     C_R   0.522902 0.084748 0.624240 -0.174486
H17   H     H_    0.466579 0.850591 0.278792 0.169439
H18   H     H_    0.539392 0.149836 0.721169 0.178330
C37   C     C_R   0.501928 0.872394 0.503538 -0.088803
C38   C     C_R   0.502194 0.127886 0.496547 -0.039821
C39   C     C_R   0.523181 0.958567 0.630208 -0.033859
C40   C     C_R   0.483511 0.041893 0.369852 0.056720
H19   H     H_    0.418878 0.418526 0.865322 0.152880
H20   H     H_    0.580635 0.581982 0.134666 0.155062
N1    N     N_2   0.447120 0.447110 0.150550 -0.285940
N2    N     N_2   0.552880 0.552890 0.849450 -0.281799
C41   C     C_2   0.510292 0.510719 0.078866 -0.087637
C42   C     C_2   0.489443 0.489552 0.921130 -0.064048
H21   H     H_    0.619268 0.619570 0.904606 0.219601
H22   H     H_    0.380913 0.380257 0.095446 0.224592
C43   C     C_2   0.682771 0.164303 0.234557 0.375801
H23   H     H_    0.744950 0.220721 0.188288 0.054924
O9    O     O_2   0.724320 0.123822 0.339927 -0.518645
C44   C     C_2   0.330574 0.839814 0.766331 0.363526
H24   H     H_    0.299899 0.869061 0.666783 0.085142
O10   O     O_2   0.255109 0.784129 0.819363 -0.568830
N3    N     N_R   0.141751 0.676791 0.239329 0.112303
O11   O     O_R   0.066171 0.717740 0.323490 -0.383593
O12   O     O_R   0.221650 0.756186 0.207442 -0.398208
N4    N     N_R   0.859939 0.318980 0.758661 0.119747
O13   O     O_R   0.935649 0.279600 0.673958 -0.364401
O14   O     O_R   0.781283 0.238301 0.790362 -0.408912
C45   C     C_2   0.017578 0.220543 0.213790 0.334072
H25   H     H_    0.995445 0.233427 0.318874 0.129924
O15   O     O_2   0.003756 0.115553 0.146786 -0.529010
C46   C     C_2   0.975250 0.776992 0.785764 0.440303
H26   H     H_    0.993749 0.765373 0.679194 0.106644
O16   O     O_2   0.990079 0.881488 0.854032 -0.526478

loop_
_geom_bond_atom_site_label_1
_geom_bond_atom_site_label_2
_geom_bond_distance
_ccdc_geom_bond_type
C38   C40   1.420658 A    
C31   C33   1.396466 A    
C13   H5    1.080375 S    
Cu2   N1    2.008975 S    
C29   C31   1.405916 A    
C25   H13   1.082977 S    
C43   H23   1.085358 S    
O5    C3    1.302218 A    
C36   C39   1.387066 A    
O1    C1    1.301687 A    
C10   C12   1.420564 A    
N1    H22   1.027142 S    
N4    O14   1.300567 A    
C12   C46   1.486939 S    
C9    C22   1.488497 S    
C4    C19   1.460898 S    
C10   C21   1.488253 S    
C41   C42   1.510374 S    
O4    Cu1   1.977216 S    
C35   H17   1.082766 S    
C36   H18   1.082674 S    
C17   H7    1.082787 S    
C2    C37   1.461072 S    
C7    N3    1.442996 S    
C28   C30   1.419573 A    
C37   C39   1.421159 A    
C45   O15   1.221290 D    
C18   H8    1.082580 S    
C23   C33   1.392201 A    
C26   H14   1.082500 S    
C6    C8    1.405008 A    
Cu1   Cu2   2.674161 S    
O2    C2    1.302050 A    
N2    H21   1.027345 S    
C24   H12   1.080073 S    
C30   C44   1.483195 S    
C43   O9    1.220267 D    
C30   C32   1.408100 A    
C17   C22   1.388026 A    
C36   C38   1.395494 A    
C13   C15   1.389486 A    
C18   C21   1.387995 A    
C14   C16   1.389081 A    
H9    C33   1.081727 S    
N2    C42   1.301333 D    
H10   C34   1.082057 S    
N1    C41   1.301402 D    
N4    O13   1.301041 A    
C1    C38   1.460840 S    
C25   C27   1.404849 A    
C17   C19   1.394889 A    
C32   C34   1.396066 A    
C27   C29   1.424898 A    
C3    C20   1.461888 S    
C29   C43   1.485767 S    
O7    Cu2   1.977554 S    
C23   H11   1.080473 S    
N3    O11   1.301052 A    
O5    Cu1   1.981896 S    
O6    C4    1.301813 A    
H20   C41   1.084688 S    
C46   O16   1.221444 D    
H19   C42   1.084596 S    
O7    C3    1.282632 A    
O3    Cu2   1.977216 S    
O8    C4    1.282539 A    
C44   O10   1.220283 D    
N3    O12   1.300988 A    
C31   H15   1.083377 S    
C11   C13   1.403488 A    
C5    C15   1.391162 A    
C8    C10   1.424977 A    
O4    C2    1.282321 A    
C6    C16   1.391048 A    
O6    Cu2   1.981895 S    
C18   C20   1.395580 A    
C11   C45   1.487518 S    
C28   C39   1.486678 S    
C44   H24   1.084398 S    
O3    C1    1.282505 A    
O8    Cu1   1.977554 S    
H1    C15   1.081518 S    
Cu1   N2    2.008975 S    
H2    C16   1.081235 S    
C12   C14   1.403244 A    
C7    C9    1.425313 A    
C19   C21   1.419926 A    
C20   C22   1.420850 A    
C35   C40   1.387381 A    
C24   C34   1.392741 A    
C14   H6    1.079836 S    
C46   H26   1.084259 S    
C5    H3    1.082281 S    
C32   H16   1.082686 S    
C6    H4    1.082618 S    
C27   C40   1.486177 S    
C8    N4    1.442744 S    
O2    Cu2   1.980746 S    
C5    C7    1.404696 A    
C35   C37   1.396000 A    
C26   C28   1.403980 A    
C9    C11   1.421163 A    
O1    Cu1   1.980746 S    
C45   H25   1.084028 S    
C23   C25   1.392345 A    
C24   C26   1.392690 A    
