data_mof_unit_15765.cif
_audit_creation_date              2012-12-11T14:29:47-0500
_audit_creation_method            fapswitch 2.2
_symmetry_space_group_name_H-M    P1
_symmetry_Int_Tables_number       1
_space_group_crystal_system       triclinic
_cell_length_a                    6.939085
_cell_length_b                    14.728809
_cell_length_c                    16.243685
_cell_angle_alpha                 90.440539
_cell_angle_beta                  90.184131
_cell_angle_gamma                 89.850751
_cell_volume                      1660.1138424

loop_
_atom_site_label
_atom_site_type_symbol
_atom_type_description
_atom_site_fract_x
_atom_site_fract_y
_atom_site_fract_z
_atom_type_partial_charge
O1    O     O_R   0.494400 0.416610 0.413880 -0.545290
O2    O     O_R   0.823920 0.406790 0.585520 -0.518457
O3    O     O_R   0.994250 0.583390 0.586120 -0.519995
C1    C     C_R   0.656039 0.387352 0.615518 0.795085
O4    O     O_R   0.824110 0.405730 0.414490 -0.544914
O5    O     O_R   0.994440 0.582310 0.413870 -0.543635
C2    C     C_R   0.654828 0.383686 0.386325 0.731426
O6    O     O_R   0.494210 0.417690 0.586130 -0.550988
O7    O     O_3   0.660810 0.557940 0.500000 -0.374199
V1    V     V_3+5 0.935650 0.489250 0.500000 1.455422
O8    O     O_R   0.324160 0.593210 0.414480 -0.546615
C3    C     C_R   0.155182 0.614992 0.386370 0.726763
O9    O     O_R   0.323970 0.594270 0.585510 -0.547029
C4    C     C_R   0.155216 0.616092 0.613954 0.728310
V2    V     V_3+5 0.435660 0.510750 0.500000 1.416119
O10   O     O_3   0.160630 0.442060 0.500000 -0.373948
H1    H     H_    0.823102 0.891821 0.520848 0.113137
C5    C     C_R   0.319245 0.579579 0.774858 -0.080698
C6    C     C_R   0.397284 0.559246 0.851640 -0.107321
C7    C     C_R   0.383559 0.621516 0.915999 -0.124800
C8    C     C_R   0.292037 0.704685 0.904034 -0.131144
C9    C     C_R   0.213782 0.728020 0.826373 0.064950
C10   C     C_R   0.227153 0.663935 0.760365 0.072834
C11   C     C_R   0.119597 0.812631 0.814445 -0.183024
C12   C     C_R   0.038403 0.832866 0.736336 0.071551
C13   C     C_R   0.051249 0.768670 0.670400 0.064360
C14   C     C_R   0.145318 0.684047 0.682345 -0.179386
C15   C     C_R   0.947701 0.917510 0.721664 -0.142753
C16   C     C_R   0.869703 0.937839 0.644862 -0.126355
C17   C     C_R   0.882335 0.875338 0.580647 -0.119641
C18   C     C_R   0.972981 0.791991 0.592732 -0.133382
H2    H     H_    0.330719 0.527854 0.727552 0.126365
H3    H     H_    0.467328 0.494422 0.861398 0.123844
H4    H     H_    0.442840 0.605032 0.975788 0.115960
H5    H     H_    0.281933 0.749771 0.956696 0.109209
H6    H     H_    0.937298 0.969434 0.768849 0.113162
H7    H     H_    0.800596 0.002852 0.634957 0.115710
H8    H     H_    0.982550 0.746803 0.540124 0.104273
C19   C     C_2   0.985038 0.709850 0.282727 -0.134793
C20   C     C_2   0.149827 0.682756 0.319545 -0.309491
H9    H     H_    0.849010 0.681873 0.303394 0.135842
H10   H     H_    0.287411 0.710193 0.300957 0.128281
C21   C     C_2   0.973221 0.777358 0.214729 -0.133301
C22   C     C_2   0.126668 0.814481 0.177135 -0.311199
H11   H     H_    0.829301 0.796497 0.194783 0.134628
H12   H     H_    0.271777 0.796001 0.195178 0.128319
C23   C     C_2   0.777793 0.221987 0.794130 -0.221828
C24   C     C_2   0.612658 0.184609 0.820763 -0.314596
H13   H     H_    0.913441 0.197968 0.819687 0.135440
H14   H     H_    0.474719 0.210978 0.800184 0.129179
C25   C     C_2   0.786857 0.301273 0.737497 0.026948
C26   C     C_2   0.645705 0.318056 0.681109 -0.335272
H15   H     H_    0.518070 0.275756 0.679552 0.111112
C27   C     C_2   0.779290 0.209048 0.213973 -0.130864
C28   C     C_2   0.614124 0.181882 0.177367 -0.310379
H16   H     H_    0.915199 0.180392 0.193154 0.137059
H17   H     H_    0.476534 0.209868 0.196039 0.127193
C29   C     C_2   0.791659 0.277537 0.281910 -0.136579
C30   C     C_2   0.638237 0.315442 0.319536 -0.306662
H18   H     H_    0.935624 0.296701 0.301770 0.134228
H19   H     H_    0.493126 0.296943 0.301586 0.128674
O11   O     O_R   0.770210 0.079270 0.910680 -0.540584
O12   O     O_R   0.440150 0.091160 0.082270 -0.545697
O13   O     O_R   0.269970 0.914530 0.082860 -0.544627
C31   C     C_R   0.608859 0.113269 0.110486 0.743326
O14   O     O_R   0.440480 0.090100 0.911240 -0.546521
O15   O     O_R   0.270310 0.913460 0.910610 -0.537029
C32   C     C_R   0.608703 0.112680 0.883811 0.755411
O16   O     O_R   0.769870 0.080340 0.082930 -0.538946
O17   O     O_3   0.603660 0.938980 0.996790 -0.369903
V3    V     V_3+5 0.328750 0.007610 0.996740 1.400560
O18   O     O_R   0.940600 0.902510 0.911180 -0.538487
C33   C     C_R   0.109445 0.880593 0.882850 0.694446
O19   O     O_R   0.940270 0.903570 0.082200 -0.539971
C34   C     C_R   0.109792 0.881873 0.110350 0.736850
V4    V     V_3+5 0.828770 0.986010 0.996670 1.415519
O20   O     O_3   0.103730 0.054750 0.996710 -0.374424
C35   C     C_2   0.958639 0.360409 0.747931 0.388978
H20   H     H_    0.092996 0.331555 0.770196 0.011113
O21   O     O_2   0.949011 0.442254 0.737208 -0.536856

loop_
_geom_bond_atom_site_label_1
_geom_bond_atom_site_label_2
_ccdc_geom_bond_type
O14   C32   A    
C11   C12   A    
O12   C31   A    
C6    C7    A    
O18   V4    S    
C19   H9    S    
C12   C15   A    
C13   C14   A    
O19   V4    S    
C1    C26   S    
C15   C16   A    
O5    C3    A    
C17   C18   A    
C35   O21   D    
C11   C33   S    
C29   H18   S    
V2    O10   S    
O16   V4    S    
C5    C6    A    
O13   V3    S    
O8    V2    S    
C23   C24   D    
O17   V3    S    
O15   C33   A    
C10   C14   A    
C4    C14   S    
O7    V1    S    
C1    O6    A    
C7    H4    S    
C20   H10   S    
C13   C18   A    
O9    C4    A    
H1    C17   S    
O11   V4    S    
C2    C30   S    
C28   C31   S    
C22   H12   S    
C27   H16   S    
C30   H19   S    
O19   C34   A    
C5    C10   A    
V4    O20   S    
C23   H13   S    
C6    H3    S    
C19   C20   D    
O4    C2    A    
C35   H20   S    
C19   C21   S    
C12   C13   A    
C25   C26   D    
C3    C20   S    
C22   C34   S    
O2    C1    A    
C21   C22   D    
C16   C17   A    
O14   V3    S    
C24   C32   S    
C21   H11   S    
O3    C4    A    
O1    V2    S    
O12   V3    S    
O6    V2    S    
C28   H17   S    
O17   V4    S    
C9    C11   A    
C5    H2    S    
O2    V1    S    
V3    O20   S    
C26   H15   S    
C27   C29   S    
C27   C28   D    
O1    C2    A    
O18   C33   A    
O5    V1    S    
C23   C25   S    
O8    C3    A    
C8    H5    S    
C18   H8    S    
O11   C32   A    
O9    V2    S    
C29   C30   D    
C25   C35   S    
O4    V1    S    
O3    V1    S    
V1    O10   S    
C31   O16   A    
C24   H14   S    
O13   C34   A    
O15   V3    S    
O7    V2    S    
C7    C8    A    
C15   H6    S    
C16   H7    S    
C9    C10   A    
C8    C9    A    
