data_mof_unit_44301.cif
_audit_creation_date              2012-12-10T17:45:32-0500
_audit_creation_method            fapswitch 2.2
_symmetry_space_group_name_H-M    P1
_symmetry_Int_Tables_number       1
_space_group_crystal_system       triclinic
_cell_length_a                    11.510717
_cell_length_b                    10.659724
_cell_length_c                    9.997935
_cell_angle_alpha                 91.031553
_cell_angle_beta                  90.867502
_cell_angle_gamma                 89.185105
_cell_volume                      1226.298484

loop_
_atom_site_label
_atom_site_type_symbol
_atom_type_description
_atom_site_fract_x
_atom_site_fract_y
_atom_site_fract_z
_atom_type_partial_charge
C1    C     C_R   0.503383 0.260868 0.498832 1.076707
C2    C     C_R   0.811741 0.055042 0.618321 -0.212716
C3    C     C_R   0.806073 0.925308 0.632852 -0.105671
C4    C     C_R   0.703348 0.864123 0.595367 -0.192100
C5    C     C_R   0.604667 0.931922 0.547398 0.012694
C6    C     C_R   0.609918 0.062686 0.538860 -0.097144
C7    C     C_R   0.509301 0.128188 0.495311 -0.261964
C8    C     C_R   0.409021 0.067623 0.451623 0.593828
C9    C     C_R   0.404053 0.938524 0.454138 -0.197566
C10   C     C_R   0.501652 0.871864 0.503973 -0.203541
C11   C     C_R   0.299353 0.426378 0.116390 0.613847
C12   C     C_R   0.282340 0.498376 0.499130 0.993843
C13   C     C_R   0.192280 0.441552 0.047551 -0.171673
C14   C     C_R   0.188628 0.516916 0.933522 -0.356254
C15   C     C_R   0.292210 0.559077 0.877720 -0.048830
C16   C     C_R   0.398426 0.513414 0.930167 0.048330
C17   C     C_R   0.399413 0.482401 0.067335 0.017620
C18   C     C_R   0.600221 0.503122 0.074638 -0.120488
C19   C     C_R   0.600917 0.491233 0.932523 0.010587
C20   C     C_R   0.499163 0.739069 0.501104 0.911514
C21   C     C_R   0.717644 0.502833 0.500744 0.956565
C22   C     C_1   0.161723 0.497850 0.497694 -0.026935
C23   C     C_1   0.059396 0.498365 0.498490 0.058520
C24   C     C_1   0.940638 0.499842 0.500424 0.048829
C25   C     C_1   0.838305 0.501574 0.501639 -0.049485
C26   C     C_R   0.715986 0.122859 0.570789 0.649255
H1    H     H_    0.105653 0.546732 0.891533 0.239688
H2    H     H_    0.890997 0.104612 0.642807 0.204892
H3    H     H_    0.701784 0.763290 0.603163 0.180454
H4    H     H_    0.681530 0.505079 0.130329 0.159542
N1    N     N_R   0.498930 0.498800 0.142780 -0.102250
N2    N     N_R   0.498900 0.498720 0.857170 -0.130965
O1    O     O_R   0.500000 0.316780 0.614690 -0.593111
O2    O     O_R   0.499990 0.316750 0.385360 -0.538802
O3    O     O_R   0.334450 0.500030 0.614670 -0.650311
O4    O     O_R   0.334440 0.500000 0.385330 -0.571108
O5    O     O_R   0.500010 0.683250 0.614640 -0.597694
O6    O     O_R   0.500000 0.683220 0.385310 -0.621851
O7    O     O_R   0.665560 0.500000 0.614670 -0.584660
O8    O     O_R   0.665550 0.499970 0.385330 -0.641961
Zn1   Zn    Zn3+2 0.500010 0.500020 0.653130 1.041131
Zn2   Zn    Zn3+2 0.499990 0.499980 0.346870 1.045171
F1    F     F_    0.314059 0.136029 0.412330 -0.579441
C27   C     C_2   0.288205 0.678919 0.804947 1.022888
O9    O     O_2   0.203539 0.706337 0.735623 -0.606076
O10   O     O_R   0.377768 0.764956 0.823889 -0.768785
H5    H     H_    0.363484 0.845261 0.772939 0.356983
C28   C     C_2   0.713900 0.465287 0.872326 0.971084
O11   O     O_2   0.789629 0.544427 0.879050 -0.582381
O12   O     O_R   0.736997 0.346837 0.816114 -0.748530
H6    H     H_    0.819497 0.338367 0.782612 0.369034
F2    F     F_    0.730655 0.246305 0.550338 -0.698860
C29   C     C_2   0.907571 0.853344 0.685530 0.984464
O13   O     O_2   0.999527 0.905915 0.709697 -0.567086
O14   O     O_R   0.898072 0.725102 0.708841 -0.783911
H7    H     H_    0.972402 0.686562 0.746192 0.378121
C30   C     C_2   0.295206 0.876564 0.407076 1.007746
O15   O     O_2   0.260213 0.783716 0.462946 -0.646469
O16   O     O_R   0.231393 0.926229 0.299766 -0.692069
H8    H     H_    0.159024 0.876410 0.277497 0.345654
F3    F     F_    0.310375 0.339059 0.212816 -0.563477
C31   C     C_2   0.083654 0.386364 0.097392 1.000050
O17   O     O_2   0.083622 0.330836 0.203383 -0.538179
O18   O     O_R   0.980414 0.397941 0.022849 -0.792632
H9    H     H_    0.912318 0.357021 0.067185 0.345931

loop_
_geom_bond_atom_site_label_1
_geom_bond_atom_site_label_2
_ccdc_geom_bond_type
C1    O2    A    
O16   H8    S    
C23   C24   S    
C24   C25   T    
O6    Zn2   S    
C31   O17   D    
C18   H4    S    
N1    Zn2   S    
C26   F2    S    
C14   H1    S    
C12   O4    A    
C20   O6    A    
C9    C10   A    
O4    Zn2   S    
C4    H3    S    
O2    Zn2   S    
C8    F1    S    
C31   O18   S    
N2    Zn1   S    
O1    Zn1   S    
O18   H9    S    
O14   H7    S    
C28   O12   S    
O12   H6    S    
C3    C4    A    
C1    O1    A    
C7    C8    A    
C2    C26   A    
C29   O13   D    
C3    C29   S    
C12   O3    A    
C20   O5    A    
C11   C13   A    
C30   O15   D    
C6    C26   A    
C21   O8    A    
O3    Zn1   S    
C19   N2    A    
O8    Zn2   S    
C28   O11   D    
C27   O10   S    
C15   C27   S    
C2    C3    A    
C6    C7    A    
C9    C30   S    
C29   O14   S    
O5    Zn1   S    
C5    C6    A    
C17   N1    A    
C30   O16   S    
C16   N2    A    
C15   C16   A    
C12   C22   S    
C5    C10   A    
C27   O9    D    
O7    Zn1   S    
C18   C19   A    
C21   C25   S    
O10   H5    S    
C11   C17   A    
C2    H2    S    
C18   N1    A    
C19   C28   S    
C13   C14   A    
C1    C7    S    
C4    C5    A    
C22   C23   T    
C13   C31   S    
C14   C15   A    
C16   C17   A    
C10   C20   S    
C8    C9    A    
C11   F3    S    
C21   O7    A    
