data_mof_unit_26437.cif
_audit_creation_date              2012-12-11T16:24:22-0500
_audit_creation_method            fapswitch 2.2
_symmetry_space_group_name_H-M    P1
_symmetry_Int_Tables_number       1
_space_group_crystal_system       triclinic
_cell_length_a                    14.750599
_cell_length_b                    14.7675
_cell_length_c                    33.253113
_cell_angle_alpha                 96.08213
_cell_angle_beta                  96.278756
_cell_angle_gamma                 61.204861
_cell_volume                      6297.94201369

loop_
_atom_site_label
_atom_site_type_symbol
_atom_type_description
_atom_site_fract_x
_atom_site_fract_y
_atom_site_fract_z
_atom_type_partial_charge
Br1   Br    Br    0.193226 0.747501 0.146123 -0.488709
Br2   Br    Br    0.543878 0.210290 0.841133 -0.492709
Br3   Br    Br    0.887519 0.463231 0.443190 -0.546967
C1    C     C_R   0.390982 0.699554 0.446085 0.538794
C2    C     C_1   0.313510 0.340465 0.229128 -0.012747
C3    C     C_3   0.181507 0.871627 0.588578 -0.252117
C4    C     C_3   0.186581 0.942757 0.559428 -0.289891
C5    C     C_3   0.086921 0.992378 0.532210 -0.440715
C6    C     C_1   0.318662 0.344569 0.265482 -0.015996
C7    C     C_R   0.405721 0.386360 0.434014 0.545073
C8    C     C_R   0.291423 0.294394 0.101795 0.020247
C9    C     C_R   0.757788 0.370956 0.410536 0.027792
C10   C     C_R   0.830681 0.400407 0.401075 0.153982
C11   C     C_R   0.865004 0.379220 0.361244 0.011542
C12   C     C_R   0.826825 0.326227 0.331949 0.017345
C13   C     C_R   0.763481 0.288509 0.343376 -0.139541
C14   C     C_R   0.729019 0.310945 0.382007 -0.168344
C15   C     C_R   0.328827 0.347973 0.308785 0.040870
C16   C     C_R   0.847897 0.307649 0.206907 0.346735
C17   C     C_R   0.842179 0.317032 0.288483 0.334875
C18   C     C_R   0.843277 0.387835 0.143902 -0.116794
C19   C     C_R   0.701768 0.409362 0.447860 0.578728
C20   C     C_R   0.869481 0.377743 0.104118 -0.126784
C21   C     C_R   0.915005 0.196131 0.100355 -0.126181
C22   C     C_R   0.888879 0.206210 0.140225 -0.114451
C23   C     C_R   0.857379 0.301056 0.162927 0.032112
C24   C     C_R   0.910239 0.280711 0.082676 0.020239
C25   C     C_R   0.371339 0.754103 0.408952 0.019472
C26   C     C_R   0.410430 0.265039 0.328448 -0.111323
C27   C     C_R   0.276107 0.787100 0.386180 -0.130397
C28   C     C_R   0.265754 0.815158 0.346573 -0.116482
C29   C     C_R   0.350583 0.810335 0.329064 0.035107
C30   C     C_R   0.442745 0.786403 0.353093 -0.118203
C31   C     C_R   0.393150 0.702212 0.561028 0.529572
C32   C     C_R   0.452954 0.758788 0.392757 -0.129078
C33   C     C_R   0.341101 0.824720 0.203636 0.369508
C34   C     C_R   0.346005 0.820722 0.285212 0.337912
C35   C     C_R   0.265477 0.817702 0.132331 0.166458
C36   C     C_R   0.246460 0.851321 0.093125 -0.095708
C37   C     C_R   0.430702 0.274063 0.370205 -0.128608
C38   C     C_R   0.375006 0.909985 0.106816 -0.142387
C39   C     C_R   0.393831 0.877424 0.146052 -0.151364
C40   C     C_R   0.335577 0.836213 0.159898 0.045548
C41   C     C_R   0.297332 0.902063 0.080767 -0.011123
C42   C     C_R   0.371614 0.369856 0.585339 0.023289
C43   C     C_R   0.407404 0.388961 0.549075 0.548399
C44   C     C_R   0.287569 0.450938 0.604889 -0.125264
C45   C     C_R   0.268984 0.441771 0.644061 -0.118080
C46   C     C_R   0.333795 0.351206 0.664243 0.034468
C47   C     C_R   0.411743 0.266751 0.643242 -0.118971
C48   C     C_R   0.393358 0.252473 0.166073 -0.107046
C49   C     C_R   0.430603 0.276062 0.604143 -0.129578
C50   C     C_R   0.324580 0.346082 0.789245 0.369998
C51   C     C_R   0.326501 0.347994 0.707874 0.338514
C52   C     C_R   0.219959 0.395919 0.848790 -0.152676
C53   C     C_R   0.206081 0.377055 0.887190 -0.142041
C54   C     C_R   0.389483 0.256991 0.895908 -0.094658
C55   C     C_R   0.701416 0.413607 0.562676 0.547582
C56   C     C_R   0.404202 0.276140 0.857578 0.165615
C57   C     C_R   0.317725 0.341734 0.832746 0.044611
C58   C     C_R   0.289837 0.303401 0.910150 -0.010068
C59   C     C_R   0.384623 0.233913 0.124220 -0.122368
C60   C     C_R   0.754249 0.380639 0.602941 0.020663
C61   C     C_R   0.775873 0.448918 0.629925 -0.127371
C62   C     C_R   0.803707 0.428291 0.670737 -0.113429
C63   C     C_R   0.810836 0.339115 0.684944 0.040200
C64   C     C_R   0.795960 0.267516 0.657905 -0.110905
C65   C     C_R   0.768080 0.287932 0.617070 -0.127826
C66   C     C_R   0.883555 0.213048 0.823040 -0.090302
C67   C     C_R   0.369539 0.366522 0.392595 0.022304
C68   C     C_R   0.911611 0.201866 0.864443 -0.110445
C69   C     C_R   0.871732 0.382162 0.873375 -0.122344
C70   C     C_R   0.210144 0.378656 0.121614 -0.109037
C71   C     C_R   0.843576 0.393128 0.832038 -0.107783
C72   C     C_R   0.852473 0.307866 0.806670 0.044943
C73   C     C_1   0.837383 0.316220 0.763618 -0.016150
C74   C     C_1   0.826127 0.325151 0.727633 -0.019183
C75   C     C_R   0.909528 0.285443 0.889765 0.021456
C76   C     C_R   0.378340 0.753935 0.602154 0.030445
C77   C     C_R   0.279289 0.824292 0.616457 -0.005530
C78   C     C_R   0.271415 0.851425 0.658295 -0.097061
C79   C     C_R   0.282979 0.446530 0.372912 -0.126309
C80   C     C_R   0.359403 0.811253 0.685235 0.028377
C81   C     C_R   0.219096 0.396930 0.163512 -0.088984
C82   C     C_R   0.456997 0.748382 0.670739 -0.116932
C83   C     C_R   0.466509 0.720341 0.629594 -0.137100
C84   C     C_R   0.395094 0.884658 0.832494 -0.105666
C85   C     C_R   0.376017 0.912147 0.873363 -0.122021
C86   C     C_R   0.227875 0.880699 0.863148 -0.123457
C87   C     C_R   0.247224 0.853166 0.822323 -0.108443
C88   C     C_R   0.329010 0.857947 0.806780 0.038309
C89   C     C_1   0.340913 0.841755 0.764041 -0.016945
C90   C     C_1   0.349288 0.829023 0.728080 -0.017623
C91   C     C_R   0.263202 0.437404 0.331116 -0.116337
C92   C     C_R   0.309449 0.331782 0.185820 0.043043
C93   C     C_R   0.290091 0.913743 0.888795 0.018248
C94   C     C_R   0.963812 0.264114 0.045649 0.546594
C95   C     C_R   0.272786 0.259471 0.060027 0.545265
C96   C     C_R   0.259286 0.959627 0.043772 0.547061
C97   C     C_R   0.962468 0.267655 0.930738 0.543485
C98   C     C_R   0.270848 0.264082 0.945398 0.548185
C99   C     C_R   0.256101 0.964932 0.928994 0.543233
C100  C     C_3   0.944318 0.409358 0.350809 -0.225320
C101  C     C_3   0.894600 0.525623 0.344447 -0.274288
C102  C     C_3   0.974935 0.554500 0.333645 -0.445062
Cr1   Cr    Cr6+3 0.576280 0.580550 0.506370 1.048100
Cr2   Cr    Cr6+3 0.346780 0.572400 0.496520 1.014668
Cr3   Cr    Cr6+3 0.576960 0.347070 0.497150 1.015875
Cr4   Cr    Cr6+3 0.087320 0.083240 0.984860 1.028318
Cr5   Cr    Cr6+3 0.087720 0.316210 0.996740 1.025175
Cr6   Cr    Cr6+3 0.317350 0.090340 0.995890 1.024048
H1    H     H_    0.448567 0.168578 0.109856 0.133244
H2    H     H_    0.188509 0.841710 0.072914 0.160001
H3    H     H_    0.463751 0.201991 0.183237 0.118949
H4    H     H_    0.193108 0.834847 0.329022 0.142545
H5    H     H_    0.508919 0.783738 0.340673 0.137777
H6    H     H_    0.416054 0.948167 0.097994 0.141565
H7    H     H_    0.448944 0.891365 0.166429 0.139381
H8    H     H_    0.240231 0.524032 0.591056 0.134764
H9    H     H_    0.495293 0.211899 0.589659 0.131782
H10   H     H_    0.128370 0.414512 0.897537 0.141880
H11   H     H_    0.207194 0.507612 0.659202 0.136103
H12   H     H_    0.674170 0.286376 0.388684 0.142607
H13   H     H_    0.462075 0.195271 0.657739 0.139379
H14   H     H_    0.461435 0.195417 0.311252 0.116741
H15   H     H_    0.152547 0.447537 0.830549 0.137753
H16   H     H_    0.455514 0.202296 0.913835 0.159760
H17   H     H_    0.940832 0.126269 0.876068 0.134632
H18   H     H_    0.890443 0.146678 0.803571 0.122114
H19   H     H_    0.801695 0.198082 0.668665 0.115240
H20   H     H_    0.751971 0.233793 0.597092 0.125871
H21   H     H_    0.765578 0.521073 0.620081 0.131524
H22   H     H_    0.819221 0.466938 0.819588 0.113805
H23   H     H_    0.863832 0.444587 0.091068 0.136013
H24   H     H_    0.869181 0.447964 0.892038 0.131396
H25   H     H_    0.497802 0.211135 0.384470 0.129973
H26   H     H_    0.815397 0.484014 0.691512 0.113735
H27   H     H_    0.425180 0.937485 0.892267 0.138357
H28   H     H_    0.458838 0.888169 0.820649 0.128036
H29   H     H_    0.525529 0.717423 0.691461 0.119150
H30   H     H_    0.542971 0.666696 0.619654 0.134471
H31   H     H_    0.195972 0.832109 0.802568 0.119482
H32   H     H_    0.161091 0.881208 0.874068 0.133771
H33   H     H_    0.196351 0.902055 0.670137 0.107438
H34   H     H_    0.734477 0.247247 0.321445 0.143604
H35   H     H_    0.234426 0.518747 0.389281 0.130732
H36   H     H_    0.153952 0.458750 0.178672 0.129453
H37   H     H_    0.137360 0.426585 0.105207 0.138657
H38   H     H_    0.199925 0.501929 0.315999 0.115150
H39   H     H_    0.036506 0.536819 0.358593 0.160860
H40   H     H_    0.010531 0.510987 0.305259 0.164177
H41   H     H_    0.937005 0.638641 0.329010 0.151306
H42   H     H_    0.832329 0.546958 0.319677 0.194708
H43   H     H_    0.858858 0.571973 0.372336 0.204823
H44   H     H_    0.007545 0.387802 0.375236 0.183571
H45   H     H_    0.817168 0.462514 0.160341 0.141797
H46   H     H_    0.983205 0.364460 0.323171 0.154557
H47   H     H_    0.074323 0.931731 0.513694 0.157896
H48   H     H_    0.019452 0.040005 0.550776 0.154128
H49   H     H_    0.092885 0.043225 0.511485 0.157575
H50   H     H_    0.198302 0.004946 0.577147 0.169609
H51   H     H_    0.252609 0.898324 0.539907 0.170026
H52   H     H_    0.167527 0.810251 0.571607 0.174253
H53   H     H_    0.112743 0.918470 0.606650 0.129538
H54   H     H_    0.945781 0.120416 0.084482 0.142458
H55   H     H_    0.899045 0.138252 0.153879 0.151378
H56   H     H_    0.211514 0.785255 0.398029 0.130923
H57   H     H_    0.527130 0.734532 0.409698 0.142573
N1    N     N_R   0.830568 0.395762 0.229600 -0.231601
N2    N     N_R   0.432273 0.800675 0.266936 -0.231099
N3    N     N_R   0.429694 0.803381 0.226946 -0.232422
N4    N     N_R   0.259158 0.432516 0.769549 -0.237603
N5    N     N_R   0.260667 0.433667 0.729669 -0.235567
N6    N     N_R   0.390803 0.261289 0.727562 -0.221489
N7    N     N_R   0.389231 0.260159 0.767381 -0.160345
N8    N     N_R   0.826982 0.400575 0.269566 -0.235559
N9    N     N_R   0.858704 0.229052 0.265852 -0.220123
N10   N     N_R   0.862419 0.224165 0.225846 -0.221808
N11   N     N_R   0.254648 0.846097 0.221962 -0.154502
N12   N     N_R   0.257210 0.843303 0.261901 -0.215407
O1    O     O_R   0.679450 0.499830 0.463150 -0.459514
O2    O     O_R   0.340240 0.172500 0.045430 -0.518497
O3    O     O_R   0.309670 0.000990 0.032050 -0.499646
O4    O     O_R   0.480650 0.664000 0.464630 -0.501287
O5    O     O_R   0.168330 0.982130 0.939200 -0.517997
O6    O     O_R   0.000140 0.178170 0.944610 -0.499342
O7    O     O_R   0.983010 0.336750 0.948660 -0.519184
O8    O     O_R   0.181800 0.312190 0.959860 -0.498507
O9    O     O_R   0.338500 0.175680 0.956950 -0.515368
O10   O     O_R   0.308050 0.003930 0.950020 -0.500433
O11   O     O_3   0.164130 0.163270 0.992500 -0.242948
O12   O     O_R   0.356040 0.477400 0.534170 -0.499094
O13   O     O_R   0.323930 0.675950 0.455370 -0.521318
O14   O     O_R   0.354700 0.475360 0.451930 -0.497878
O15   O     O_R   0.494470 0.320860 0.448390 -0.521467
O16   O     O_R   0.662580 0.357570 0.460050 -0.512518
O17   O     O_R   0.680900 0.502040 0.551870 -0.508769
O18   O     O_R   0.481990 0.666040 0.546870 -0.505608
O19   O     O_R   0.325370 0.678160 0.544080 -0.521837
O20   O     O_R   0.495910 0.323070 0.537100 -0.518274
O21   O     O_R   0.663920 0.359620 0.542290 -0.502975
O22   O     O_3   0.500010 0.500010 0.500010 -0.244961
O23   O     O_R   0.170070 0.978950 0.027680 -0.515439
O24   O     O_R   0.001760 0.175230 0.026640 -0.498921
O25   O     O_R   0.984760 0.333570 0.037150 -0.517366
O26   O     O_R   0.183410 0.309240 0.041890 -0.499478

loop_
_geom_bond_atom_site_label_1
_geom_bond_atom_site_label_2
_ccdc_geom_bond_type
C18   C23   A    
C85   C93   A    
C55   O17   A    
Cr6   O11   S    
C79   C91   A    
C84   C88   A    
C38   C39   A    
C58   C98   S    
C21   C24   A    
N1    N8    A    
C52   C53   A    
C8    C59   A    
C5    H47   S    
C63   C74   S    
C87   C88   A    
C4    C5    S    
C82   C83   A    
C91   H38   S    
C102  H39   S    
C37   H25   S    
Cr5   O8    S    
C37   C67   A    
C8    C95   S    
C48   C59   A    
C84   C85   A    
C51   N5    A    
C27   H56   S    
C19   O1    A    
C98   O9    A    
C7    O14   A    
C45   H11   S    
C35   C36   A    
C41   C96   S    
C54   C56   A    
N2    N3    A    
C46   C51   S    
C80   C90   S    
C71   H22   S    
C9    C19   S    
Cr5   O11   S    
C66   C68   A    
C16   C23   S    
N6    N7    A    
Cr3   O22   S    
C50   N4    A    
C79   H35   S    
C3    C77   S    
C31   O19   A    
C14   H12   S    
C78   H33   S    
C61   H21   S    
C55   O21   A    
C13   C14   A    
C36   H2    S    
C9    C14   A    
C47   C49   A    
C20   C24   A    
C101  H42   S    
Cr3   O16   S    
C98   O8    A    
C70   C81   A    
C96   O3    A    
Br3   C10   S    
Cr1   O18   S    
C62   H26   S    
C44   H8    S    
C63   C64   A    
C56   C57   A    
C10   C11   A    
Cr2   O12   S    
C19   O16   A    
C1    O13   A    
C33   N11   A    
C28   H4    S    
C101  C102  S    
C2    C92   S    
C50   C57   S    
C54   H16   S    
C102  H41   S    
C3    C4    S    
C99   O10   A    
C42   C44   A    
C12   C17   S    
C102  H40   S    
C4    H51   S    
Cr5   O7    S    
C48   H3    S    
C71   C72   A    
C70   H37   S    
C64   C65   A    
C99   O5    A    
C44   C45   A    
Cr4   O23   S    
C97   O7    A    
C47   H13   S    
C21   C22   A    
C25   C32   A    
Cr2   O22   S    
C69   C71   A    
C8    C70   A    
C84   H28   S    
C34   N2    A    
Br2   C56   S    
C39   H7    S    
C69   H24   S    
C42   C49   A    
Cr4   O5    S    
C22   C23   A    
C86   H32   S    
Cr6   O2    S    
C1    O4    A    
C60   C61   A    
C29   C30   A    
C13   H34   S    
C81   C92   A    
C95   O2    A    
C65   H20   S    
C97   O6    A    
C72   C73   S    
Cr1   O1    S    
C2    C6    T    
Cr3   O21   S    
C31   C76   S    
Cr1   O22   S    
C4    H50   S    
C31   O18   A    
C43   O20   A    
C28   C29   A    
C16   N10   A    
C52   H15   S    
C27   C28   A    
Cr1   O4    S    
Cr6   O3    S    
C32   H57   S    
Cr5   O26   S    
C15   C26   A    
C29   C34   S    
C73   C74   T    
Cr3   O15   S    
C94   O25   A    
C82   H29   S    
C85   H27   S    
C87   H31   S    
N11   N12   A    
Br1   C35   S    
Cr1   O17   S    
C49   H9    S    
C100  H44   S    
C45   C46   A    
C80   C82   A    
C3    H53   S    
N9    N10   A    
Cr3   O20   S    
C68   C75   A    
C18   C20   A    
C75   C97   S    
C22   H55   S    
C38   C41   A    
C68   H17   S    
C64   H19   S    
C39   C40   A    
C36   C41   A    
C5    H49   S    
C7    C67   S    
Cr2   O13   S    
N4    N5    A    
C50   N7    A    
C26   H14   S    
C81   H36   S    
C55   C60   S    
C34   N12   A    
C60   C65   A    
C24   C94   S    
C30   H5    S    
C20   H23   S    
C96   O23   A    
C11   C12   A    
Cr4   O24   S    
C100  H46   S    
C16   N1    A    
C43   O12   A    
C77   C78   A    
C78   C80   A    
C54   C58   A    
C17   N9    A    
Cr4   O6    S    
C9    C10   A    
C38   H6    S    
C53   H10   S    
C51   N6    A    
C86   C93   A    
C25   C27   A    
C21   H54   S    
C35   C40   A    
C62   C63   A    
C7    O15   A    
C61   C62   A    
Cr2   O19   S    
C33   N3    A    
C11   C100  S    
C17   N8    A    
Cr4   O11   S    
C15   C91   A    
C26   C37   A    
C89   C90   T    
C30   C32   A    
C18   H45   S    
C66   C72   A    
Cr5   O25   S    
Cr2   O14   S    
C67   C79   A    
C93   C99   S    
C76   C77   A    
C42   C43   S    
C6    C15   S    
C59   H1    S    
C3    H52   S    
Cr6   O10   S    
C66   H18   S    
C46   C47   A    
C1    C25   S    
C69   C75   A    
C100  C101  S    
C53   C58   A    
C95   O26   A    
C33   C40   S    
C94   O24   A    
Cr6   O9    S    
C101  H43   S    
C86   C87   A    
C52   C57   A    
C5    H48   S    
C76   C83   A    
C88   C89   S    
C12   C13   A    
C83   H30   S    
C48   C92   A    
