data_mof_unit_16300.cif
_audit_creation_date              2012-12-10T20:59:06-0500
_audit_creation_method            fapswitch 2.2
_symmetry_space_group_name_H-M    P1
_symmetry_Int_Tables_number       1
_space_group_crystal_system       triclinic
_cell_length_a                    13.610261
_cell_length_b                    15.087567
_cell_length_c                    15.841777
_cell_angle_alpha                 90.871496
_cell_angle_beta                  89.969061
_cell_angle_gamma                 81.953762
_cell_volume                      3220.63209631

loop_
_atom_site_label
_atom_site_type_symbol
_atom_type_description
_atom_site_fract_x
_atom_site_fract_y
_atom_site_fract_z
_atom_type_partial_charge
C1    C     C_R   0.499928 0.500706 0.661013 0.876757
C2    C     C_R   0.585014 0.942132 0.526079 0.260201
C3    C     C_1   0.499728 0.192994 0.500995 0.409251
C4    C     C_1   0.499275 0.807122 0.500783 0.406727
C5    C     C_R   0.686579 0.483386 0.500062 0.907745
C6    C     C_R   0.313484 0.516662 0.499786 0.904955
C7    C     C_1   0.209415 0.530736 0.496146 -0.111167
C8    C     C_1   0.790865 0.469575 0.499555 -0.117898
C9    C     C_2   0.016394 0.539903 0.488650 0.412644
C10   C     C_2   0.984298 0.460435 0.497820 0.408791
C11   C     C_1   0.879017 0.461465 0.498845 -0.067411
C12   C     C_R   0.499927 0.499311 0.338923 0.881933
C13   C     C_1   0.121429 0.539201 0.492423 -0.061772
C14   C     C_R   0.464977 0.427134 0.040306 0.343035
C15   C     C_R   0.542249 0.569297 0.959186 0.342626
C16   C     C_R   0.498895 0.497114 0.086642 -0.274231
C17   C     C_R   0.507190 0.499994 0.912880 -0.275633
C18   C     C_R   0.534455 0.569095 0.047148 0.325915
C19   C     C_R   0.471466 0.427939 0.952263 0.321431
C20   C     C_1   0.498878 0.496452 0.175813 0.192412
C21   C     C_1   0.504478 0.502363 0.823876 0.186036
C22   C     C_3   0.013276 0.302424 0.505224 0.168413
C23   C     C_1   0.502024 0.502111 0.749164 -0.115840
C24   C     C_3   0.978777 0.274648 0.591703 -0.398537
C25   C     C_3   0.941338 0.184178 0.586162 -0.791447
C26   C     C_3   0.986092 0.698018 0.484883 0.133902
C27   C     C_3   0.983582 0.723300 0.579079 -0.370775
C28   C     C_3   0.012899 0.816259 0.593719 -0.760044
C29   C     C_3   0.514617 0.297255 0.878040 0.149177
C30   C     C_3   0.478699 0.240415 0.806731 -0.358831
C31   C     C_3   0.562100 0.170672 0.772989 -0.850879
C32   C     C_3   0.484007 0.703757 0.111130 0.127634
C33   C     C_3   0.515052 0.772830 0.173551 -0.327140
C34   C     C_1   0.499367 0.497607 0.250628 -0.104485
C35   C     C_3   0.430647 0.848945 0.190228 -0.813256
C36   C     C_R   0.588695 0.035628 0.515234 0.350568
C37   C     C_R   0.411848 0.963965 0.479381 0.346409
C38   C     C_R   0.499348 0.094845 0.502217 -0.372296
C39   C     C_R   0.498575 0.905357 0.501983 -0.367563
C40   C     C_R   0.409347 0.058680 0.490402 0.266147
H1    H     H_    0.073978 0.250476 0.482753 0.243602
H2    H     H_    0.907430 0.722442 0.604176 0.293552
H3    H     H_    0.035425 0.673737 0.614316 0.208595
H4    H     H_    0.089628 0.818000 0.570678 0.281106
H5    H     H_    0.009868 0.832799 0.662287 0.271697
H6    H     H_    0.961061 0.867420 0.560309 0.293332
H7    H     H_    0.539359 0.253440 0.932092 0.185052
H8    H     H_    0.579294 0.327642 0.854280 0.116335
H9    H     H_    0.417303 0.205923 0.830285 0.253913
H10   H     H_    0.449811 0.284657 0.754196 0.238183
H11   H     H_    0.623360 0.203978 0.747492 0.285064
H12   H     H_    0.953679 0.303709 0.456893 0.130421
H13   H     H_    0.533338 0.130944 0.721305 0.267453
H14   H     H_    0.591236 0.124575 0.823972 0.273675
H15   H     H_    0.420311 0.675069 0.139004 0.121238
H16   H     H_    0.459603 0.737833 0.051295 0.184631
H17   H     H_    0.537255 0.739601 0.234140 0.241258
H18   H     H_    0.579893 0.801006 0.147809 0.260410
H19   H     H_    0.364464 0.822253 0.214983 0.288008
H20   H     H_    0.410382 0.885681 0.131108 0.260687
H21   H     H_    0.454529 0.896435 0.237690 0.290828
H22   H     H_    0.339687 0.226949 0.059899 0.386833
H23   H     H_    0.041720 0.270282 0.636840 0.262070
H24   H     H_    0.674073 0.765296 0.940909 0.384205
H25   H     H_    0.603518 0.824483 0.675259 0.363920
H26   H     H_    0.314780 0.191041 0.616051 0.340019
H27   H     H_    0.858726 0.025741 0.496219 0.372725
H28   H     H_    0.184701 0.962038 0.354197 0.383215
H29   H     H_    0.918189 0.325508 0.616235 0.225616
H30   H     H_    0.878825 0.187500 0.540894 0.299080
H31   H     H_    0.914982 0.166372 0.649193 0.285252
H32   H     H_    0.001739 0.131283 0.564936 0.281467
H33   H     H_    0.936604 0.750474 0.450949 0.223008
H34   H     H_    0.061022 0.698475 0.456931 0.138576
N1    N     N_1   0.500030 0.729450 0.499980 -0.055688
N2    N     N_1   0.499970 0.270550 0.500020 -0.054664
O1    O     O_R   0.500000 0.426350 0.621980 -0.630564
O2    O     O_3   0.948460 0.616135 0.471164 -0.644051
O3    O     O_3   0.435090 0.362696 0.903769 -0.561516
O4    O     O_3   0.565873 0.636823 0.095671 -0.559608
O5    O     O_2   0.499604 0.280579 0.134097 -0.290779
O6    O     O_2   0.343006 0.378643 0.159204 -0.271014
O7    O     O_3   0.357293 0.276740 0.025522 -0.495460
O8    O     O_2   0.662898 0.616536 0.838355 -0.272970
O9    O     O_2   0.510231 0.718392 0.868546 -0.315030
O10   O     O_3   0.656612 0.714711 0.974258 -0.492941
O11   O     O_2   0.749197 0.824026 0.501563 -0.246933
O12   O     O_R   0.500000 0.573650 0.378020 -0.618255
O13   O     O_2   0.748797 0.920045 0.627683 -0.228600
O14   O     O_3   0.643947 0.790848 0.630145 -0.524315
O15   O     O_2   0.274742 0.170482 0.405862 -0.200817
O16   O     O_2   0.209452 0.087034 0.519515 -0.253721
O17   O     O_3   0.301301 0.219208 0.560388 -0.550252
O18   O     O_2   0.700018 0.159010 0.459607 -0.318711
O19   O     O_2   0.725585 0.107135 0.604557 -0.317545
O20   O     O_3   0.796940 0.001890 0.480539 -0.471673
O21   O     O_2   0.341911 0.831909 0.388622 -0.348847
O22   O     O_2   0.241267 0.899163 0.506977 -0.292650
O23   O     O_R   0.499960 0.573690 0.621980 -0.579582
O24   O     O_3   0.244927 0.989147 0.368329 -0.463724
O25   O     O_R   0.500040 0.426310 0.378020 -0.578684
O26   O     O_R   0.640370 0.415730 0.499980 -0.607215
O27   O     O_R   0.359630 0.584270 0.500020 -0.613001
O28   O     O_R   0.640330 0.563060 0.499980 -0.571123
O29   O     O_R   0.359670 0.436940 0.500020 -0.563189
O30   O     O_3   0.053077 0.383925 0.512353 -0.641247
S1    S     S_3+6 0.415647 0.339297 0.092554 0.065639
S2    S     S_3+6 0.593505 0.656245 0.907177 0.054740
S3    S     S_3+6 0.686001 0.869786 0.571574 0.074322
S4    S     S_3+6 0.294864 0.133305 0.492574 0.074269
S5    S     S_3+6 0.704218 0.079147 0.515753 0.051109
S6    S     S_3+6 0.308369 0.917878 0.436024 0.055368
Zn1   Zn    Zn3+2 0.500030 0.401620 0.500000 1.070496
Zn2   Zn    Zn3+2 0.499970 0.598380 0.500000 1.069898

loop_
_geom_bond_atom_site_label_1
_geom_bond_atom_site_label_2
_ccdc_geom_bond_type
C15   C18   A    
H22   O7    S    
O5    S1    D    
C2    S3    S    
C33   H18   S    
C1    O1    A    
C1    O23   A    
O23   Zn2   S    
C18   O4    S    
C28   H6    S    
C26   C27   S    
C26   O2    S    
C29   H7    S    
O15   S4    D    
O29   Zn1   S    
C37   C40   A    
C30   C31   S    
C22   H1    S    
O13   S3    D    
O18   S5    D    
C26   H33   S    
O25   Zn1   S    
C35   H19   S    
C9    C13   S    
C26   H34   S    
C37   S6    S    
O8    S2    D    
C2    C39   A    
C3    C38   S    
C4    N1    T    
C25   H31   S    
O9    S2    D    
C9    C10   D    
C32   H15   S    
O17   S4    S    
C20   C34   T    
C30   H10   S    
C5    O28   A    
O1    Zn1   S    
H24   O10   S    
C24   H29   S    
H25   O14   S    
O20   S5    S    
C28   H5    S    
O22   S6    D    
C12   O12   A    
C29   H8    S    
O27   Zn2   S    
C24   C25   S    
N1    Zn2   S    
O21   S6    D    
C17   C19   A    
C40   S4    S    
O6    S1    D    
C28   H4    S    
C17   C21   S    
C35   H20   S    
C15   S2    S    
H28   O24   S    
C29   C30   S    
C32   O4    S    
C29   O3    S    
C4    C39   S    
C16   C20   S    
C36   S5    S    
N2    Zn1   S    
C35   H21   S    
C25   H32   S    
C6    O27   A    
C31   H13   S    
C19   O3    S    
C3    N2    T    
H26   O17   S    
O28   Zn2   S    
C22   O30   S    
C14   S1    S    
C30   H9    S    
C1    C23   S    
C24   H23   S    
C21   C23   T    
H27   O20   S    
C14   C16   A    
C10   O30   S    
C12   C34   S    
C22   H12   S    
C2    C36   A    
C15   C17   A    
C5    O26   A    
C33   H17   S    
C14   C19   A    
O10   S2    S    
C31   H11   S    
C5    C8    S    
O24   S6    S    
C6    C7    S    
O11   S3    D    
C32   C33   S    
C36   C38   A    
C12   O25   A    
C37   C39   A    
O26   Zn1   S    
O19   S5    D    
C38   C40   A    
C27   H2    S    
O16   S4    D    
C8    C11   T    
C33   C35   S    
C6    O29   A    
O7    S1    S    
C22   C24   S    
C9    O2    S    
C31   H14   S    
O12   Zn2   S    
C10   C11   S    
C27   H3    S    
C7    C13   T    
C16   C18   A    
C27   C28   S    
C25   H30   S    
O14   S3    S    
C32   H16   S    
