data_mof_unit_63021.cif
_audit_creation_date              2013-03-05T16:13:38-0500
_audit_creation_method            fapswitch 2.2
_symmetry_space_group_name_H-M    P1
_symmetry_Int_Tables_number       1
_space_group_crystal_system       triclinic
_cell_length_a                    30.393105
_cell_length_b                    30.403201
_cell_length_c                    35.646335
_cell_angle_alpha                 89.999582
_cell_angle_beta                  89.894957
_cell_angle_gamma                 90.001404
_cell_volume                      32938.8578018

loop_
_atom_site_label
_atom_site_type_symbol
_atom_site_description
_atom_site_fract_x
_atom_site_fract_y
_atom_site_fract_z
_atom_type_partial_charge
O1    O     O_R   0.064210 0.462880 0.500070 -0.572303
O2    O     O_R   0.462880 0.935790 0.500070 -0.571740
O3    O     O_R   0.935790 0.537120 0.500070 -0.572245
O4    O     O_R   0.537120 0.064210 0.500070 -0.570192
O5    O     O_R   0.064210 0.537120 0.499930 -0.572205
O6    O     O_R   0.462880 0.064210 0.499930 -0.570194
O7    O     O_R   0.935790 0.462880 0.499930 -0.572355
O8    O     O_R   0.537120 0.935790 0.499930 -0.571737
O9    O     O_R   0.564210 0.962880 0.000070 -0.570271
O10   O     O_R   0.962880 0.435790 0.000070 -0.572662
O11   O     O_R   0.435790 0.037120 0.000070 -0.570324
O12   O     O_R   0.037120 0.564210 0.000070 -0.572665
O13   O     O_R   0.564210 0.037120 0.999930 -0.570326
O14   O     O_R   0.962880 0.564210 0.999930 -0.572663
O15   O     O_R   0.435790 0.962880 0.999930 -0.570273
O16   O     O_R   0.037120 0.435790 0.999930 -0.572660
C1    C     C_R   0.084824 0.500017 0.499902 0.839252
C2    C     C_R   0.499999 0.915151 0.500000 0.838839
C3    C     C_R   0.915176 0.500016 0.500100 0.839202
C4    C     C_R   0.500001 0.084829 0.499999 0.840389
C5    C     C_R   0.584834 0.000001 0.000005 0.839510
C6    C     C_R   0.999999 0.415180 0.000000 0.839217
C7    C     C_R   0.415166 1.000000 0.999995 0.839511
C8    C     C_R   0.000000 0.584820 0.000000 0.839208
O17   O     O_R   0.999940 0.462880 0.445700 -0.583689
O18   O     O_R   0.462880 0.000060 0.445700 -0.579519
O19   O     O_R   0.000060 0.537120 0.445700 -0.583825
O20   O     O_R   0.537120 0.999940 0.445700 -0.585887
O21   O     O_R   0.999940 0.537120 0.554300 -0.583886
O22   O     O_R   0.462880 0.999940 0.554300 -0.585890
O23   O     O_R   0.000060 0.462880 0.554300 -0.583634
O24   O     O_R   0.537120 0.000060 0.554300 -0.579517
O25   O     O_R   0.499940 0.962880 0.945700 -0.582215
O26   O     O_R   0.962880 0.500060 0.945700 -0.584022
O27   O     O_R   0.500060 0.037120 0.945700 -0.582272
O28   O     O_R   0.037120 0.499940 0.945700 -0.584105
O29   O     O_R   0.499940 0.037120 0.054300 -0.582273
O30   O     O_R   0.962880 0.499940 0.054300 -0.584106
O31   O     O_R   0.500060 0.962880 0.054300 -0.582216
O32   O     O_R   0.037120 0.500060 0.054300 -0.584024
C9    C     C_R   0.999977 0.500000 0.427753 0.761075
C10   C     C_R   0.500035 0.999944 0.427748 0.758162
C11   C     C_R   0.000021 0.500000 0.572247 0.761062
C12   C     C_R   0.499965 0.999944 0.572252 0.758159
C13   C     C_R   0.499996 1.000000 0.927752 0.756847
C14   C     C_R   0.000035 0.500001 0.927749 0.762162
C15   C     C_R   0.500004 1.000000 0.072248 0.756848
C16   C     C_R   0.999965 0.500001 0.072251 0.762163
Cu1   Cu    Cu3+1 0.000000 0.456020 0.500000 0.997177
Cu2   Cu    Cu3+1 0.456020 0.000000 0.500000 0.999454
Cu3   Cu    Cu3+1 0.000000 0.543980 0.500000 0.996832
Cu4   Cu    Cu3+1 0.543980 0.000000 0.500000 0.999457
Cu5   Cu    Cu3+1 0.500000 0.956020 0.000000 1.000457
Cu6   Cu    Cu3+1 0.956020 0.500000 0.000000 0.996499
Cu7   Cu    Cu3+1 0.500000 0.043980 0.000000 1.000264
Cu8   Cu    Cu3+1 0.043980 0.500000 0.000000 0.996500
C17   C     C_R   0.039597 0.502163 0.173019 -0.129333
C18   C     C_R   0.499041 0.960185 0.173043 -0.130021
C19   C     C_R   0.960045 0.497850 0.173071 -0.129243
C20   C     C_R   0.501381 0.039792 0.173043 -0.130179
C21   C     C_R   0.039956 0.497848 0.826929 -0.129237
C22   C     C_R   0.498619 0.039794 0.826957 -0.130182
C23   C     C_R   0.960404 0.502164 0.826980 -0.129335
C24   C     C_R   0.500960 0.960187 0.826957 -0.130017
C25   C     C_R   0.539602 0.000351 0.673037 -0.131271
C26   C     C_R   0.002169 0.460232 0.673038 -0.129385
C27   C     C_R   0.459938 0.999553 0.673059 -0.128486
C28   C     C_R   0.998146 0.539772 0.673046 -0.129315
C29   C     C_R   0.540062 0.999552 0.326941 -0.128486
C30   C     C_R   0.001854 0.539773 0.326953 -0.129341
C31   C     C_R   0.460398 0.000349 0.326962 -0.131273
C32   C     C_R   0.997834 0.460232 0.326962 -0.129363
H1    H     H_    0.070561 0.503858 0.187966 0.152216
H2    H     H_    0.498150 0.929179 0.188011 0.152313
H3    H     H_    0.929045 0.496156 0.188060 0.152172
H4    H     H_    0.502329 0.070794 0.188011 0.152098
H5    H     H_    0.070956 0.496153 0.811940 0.152177
H6    H     H_    0.497669 0.070796 0.811989 0.152097
H7    H     H_    0.929440 0.503859 0.812033 0.152214
H8    H     H_    0.501851 0.929181 0.811990 0.152316
H9    H     H_    0.570602 0.000668 0.687996 0.151826
H10   H     H_    0.003769 0.429255 0.688002 0.152090
H11   H     H_    0.428886 0.999245 0.688035 0.151952
H12   H     H_    0.996585 0.570750 0.688017 0.152075
H13   H     H_    0.571114 0.999243 0.311965 0.151953
H14   H     H_    0.003415 0.570751 0.311982 0.152068
H15   H     H_    0.429398 0.000667 0.312003 0.151826
H16   H     H_    0.996235 0.429255 0.311998 0.152097
C33   C     C_R   0.039694 0.502153 0.133799 -0.169528
C34   C     C_R   0.498956 0.960143 0.133822 -0.168443
C35   C     C_R   0.960046 0.497858 0.133848 -0.169669
C36   C     C_R   0.501284 0.039845 0.133822 -0.168560
C37   C     C_R   0.039954 0.497856 0.866153 -0.169669
C38   C     C_R   0.498715 0.039846 0.866178 -0.168559
C39   C     C_R   0.960307 0.502154 0.866200 -0.169527
C40   C     C_R   0.501045 0.960145 0.866178 -0.168443
C41   C     C_R   0.539720 0.000338 0.633818 -0.165917
C42   C     C_R   0.002099 0.460183 0.633817 -0.169370
C43   C     C_R   0.459962 0.999543 0.633835 -0.171587
C44   C     C_R   0.998093 0.539818 0.633825 -0.169542
C45   C     C_R   0.540038 0.999542 0.366165 -0.171585
C46   C     C_R   0.001907 0.539819 0.366175 -0.169493
C47   C     C_R   0.460280 0.000338 0.366182 -0.165918
C48   C     C_R   0.997902 0.460183 0.366184 -0.169416
H17   H     H_    0.070920 0.503897 0.119203 0.168571
H18   H     H_    0.497977 0.928914 0.119246 0.169332
H19   H     H_    0.928860 0.496113 0.119286 0.168474
H20   H     H_    0.502202 0.071077 0.119244 0.169261
H21   H     H_    0.071140 0.496110 0.880715 0.168475
H22   H     H_    0.497797 0.071078 0.880756 0.169260
H23   H     H_    0.929080 0.503900 0.880797 0.168571
H24   H     H_    0.502024 0.928915 0.880754 0.169333
H25   H     H_    0.571002 0.000657 0.619236 0.169209
H26   H     H_    0.003704 0.428980 0.619235 0.168604
H27   H     H_    0.428736 0.999218 0.619263 0.168915
H28   H     H_    0.996444 0.571020 0.619250 0.168573
H29   H     H_    0.571264 0.999218 0.380736 0.168915
H30   H     H_    0.003555 0.571021 0.380750 0.168574
H31   H     H_    0.428998 0.000656 0.380763 0.169208
H32   H     H_    0.996298 0.428980 0.380766 0.168602
C49   C     C_R   0.999896 0.500004 0.113771 -0.047491
C50   C     C_R   0.500072 0.999997 0.113769 -0.049560
C51   C     C_R   0.000104 0.500004 0.886229 -0.047492
C52   C     C_R   0.499928 0.999998 0.886231 -0.049561
C53   C     C_R   0.499879 0.999936 0.613773 -0.049175
C54   C     C_R   0.000066 0.500000 0.613767 -0.047747
C55   C     C_R   0.500121 0.999936 0.386227 -0.049176
C56   C     C_R   0.999934 0.500000 0.386232 -0.047747
C57   C     C_R   0.999798 0.500007 0.192726 0.129426
C58   C     C_R   0.500257 0.999986 0.192723 0.129435
C59   C     C_R   0.000203 0.500006 0.807274 0.129425
C60   C     C_R   0.499743 0.999988 0.807277 0.129434
C61   C     C_R   0.499737 0.999959 0.692728 0.129913
C62   C     C_R   0.000191 0.500003 0.692723 0.129609
C63   C     C_R   0.500263 0.999958 0.307272 0.129913
C64   C     C_R   0.999811 0.500003 0.307277 0.129610
C65   C     C_1   0.999765 0.500005 0.233093 -0.028840
C66   C     C_1   0.500308 0.999979 0.233089 -0.029184
C67   C     C_1   0.000237 0.500004 0.766907 -0.028838
C68   C     C_1   0.499692 0.999981 0.766911 -0.029182
C69   C     C_1   0.499686 0.999972 0.733094 -0.029110
C70   C     C_1   0.000229 0.500003 0.733089 -0.028808
C71   C     C_1   0.500314 0.999970 0.266906 -0.029111
C72   C     C_1   0.999773 0.500004 0.266911 -0.028810
C73   C     C_R   0.202628 0.487265 0.531574 0.320067
C74   C     C_R   0.490561 0.797513 0.533388 0.321481
C75   C     C_R   0.797889 0.514808 0.532959 0.320179
C76   C     C_R   0.493874 0.202400 0.533959 0.321454
C77   C     C_R   0.202114 0.514592 0.466983 0.320237
C78   C     C_R   0.506188 0.202404 0.466055 0.321498
C79   C     C_R   0.797366 0.487031 0.468510 0.319982
C80   C     C_R   0.509442 0.797514 0.466614 0.321471
C81   C     C_R   0.702360 0.008900 0.033557 0.321265
C82   C     C_R   0.983858 0.297690 0.031480 0.319578
C83   C     C_R   0.297455 0.991096 0.033437 0.321291
C84   C     C_R   0.016060 0.702312 0.031461 0.319576
C85   C     C_R   0.702545 0.991097 0.966563 0.321290
C86   C     C_R   0.983944 0.702312 0.968539 0.319573
C87   C     C_R   0.297641 0.008895 0.966442 0.321267
C88   C     C_R   0.016138 0.297691 0.968518 0.319578
C89   C     C_R   0.156307 0.487177 0.532139 -0.000361
C90   C     C_R   0.490640 0.843866 0.533612 -0.000894
C91   C     C_R   0.844214 0.513830 0.533124 -0.000720
C92   C     C_R   0.493996 0.156046 0.534147 -0.000768
C93   C     C_R   0.155788 0.513634 0.466825 -0.000698
C94   C     C_R   0.506034 0.156050 0.465860 -0.000776
C95   C     C_R   0.843685 0.486966 0.467931 -0.000382
C96   C     C_R   0.509360 0.843867 0.466390 -0.000886
C97   C     C_R   0.655992 0.008751 0.033740 -0.000427
C98   C     C_R   0.984553 0.343981 0.031976 -0.000483
C99   C     C_R   0.343822 0.991252 0.033664 -0.000396
C100  C     C_R   0.015358 0.656021 0.031959 -0.000474
C101  C     C_R   0.656178 0.991253 0.966336 -0.000396
C102  C     C_R   0.984645 0.656021 0.968041 -0.000475
C103  C     C_R   0.344009 0.008746 0.966260 -0.000427
C104  C     C_R   0.015444 0.343983 0.968024 -0.000480
C105  C     C_R   0.132963 0.500152 0.499590 -0.098481
C106  C     C_R   0.499999 0.866965 0.500001 -0.096921
C107  C     C_R   0.867036 0.500147 0.500417 -0.098553
C108  C     C_R   0.500006 0.132990 0.500001 -0.097679
C109  C     C_R   0.633016 0.000002 0.000027 -0.098658
C110  C     C_R   0.999998 0.367066 1.000000 -0.099449
C111  C     C_R   0.366984 0.999999 0.999973 -0.098656
C112  C     C_R   0.000001 0.632936 0.000000 -0.099475
C113  C     C_R   0.225347 0.501222 0.499188 -0.171195
C114  C     C_R   0.500002 0.774510 0.500002 -0.174332
C115  C     C_R   0.774652 0.501216 0.500826 -0.171092
C116  C     C_R   0.500036 0.225418 0.500008 -0.173224
C117  C     C_R   0.725477 0.999995 0.000072 -0.173169
C118  C     C_R   0.999998 0.274721 0.999999 -0.170199
C119  C     C_R   0.274523 0.999993 0.999928 -0.173170
C120  C     C_R   0.000002 0.725282 0.000000 -0.170148
C121  C     C_R   0.296673 0.474633 0.473588 -0.092947
C122  C     C_R   0.469699 0.702988 0.478066 -0.091828
C123  C     C_R   0.703053 0.527093 0.475445 -0.087811
C124  C     C_R   0.537795 0.296946 0.489405 -0.091397
C125  C     C_R   0.296959 0.527285 0.524409 -0.087603
C126  C     C_R   0.462264 0.296928 0.510624 -0.091577
C127  C     C_R   0.703312 0.474853 0.526575 -0.092940
C128  C     C_R   0.530304 0.702986 0.521933 -0.091853
C129  C     C_R   0.797036 0.961511 0.991622 -0.091922
C130  C     C_R   0.976513 0.203295 0.972696 -0.089395
C131  C     C_R   0.202996 0.038453 0.991411 -0.091941
C132  C     C_R   0.023544 0.796710 0.972659 -0.089368
C133  C     C_R   0.797006 0.038455 0.008588 -0.091940
C134  C     C_R   0.976459 0.796708 0.027342 -0.089371
C135  C     C_R   0.202962 0.961509 0.008379 -0.091921
C136  C     C_R   0.023485 0.203296 0.027303 -0.089397
H33   H     H_    0.278414 0.454184 0.454182 0.197204
H34   H     H_    0.445810 0.721107 0.461656 0.195461
H35   H     H_    0.720793 0.548020 0.455993 0.190484
H36   H     H_    0.566941 0.278772 0.481207 0.196251
H37   H     H_    0.279227 0.548369 0.543742 0.190534
H38   H     H_    0.433129 0.278741 0.518831 0.196253
H39   H     H_    0.721546 0.454556 0.546114 0.197014
H40   H     H_    0.554196 0.721104 0.538343 0.195460
H41   H     H_    0.778853 0.931847 0.985036 0.196775
H42   H     H_    0.957690 0.221372 0.952012 0.196653
H43   H     H_    0.221204 0.068119 0.984827 0.196799
H44   H     H_    0.042410 0.778633 0.951944 0.196698
H45   H     H_    0.778800 0.068121 0.015172 0.196801
H46   H     H_    0.957593 0.778630 0.048057 0.196697
H47   H     H_    0.221143 0.931845 0.014966 0.196773
H48   H     H_    0.042308 0.221374 0.047987 0.196653
C137  C     C_R   0.342682 0.473100 0.473714 0.300301
C138  C     C_R   0.468905 0.656973 0.478084 0.291095
C139  C     C_R   0.657214 0.525868 0.474301 0.306992
C140  C     C_R   0.538235 0.342970 0.488655 0.292299
C141  C     C_R   0.342799 0.526061 0.525552 0.306822
C142  C     C_R   0.461807 0.342950 0.511384 0.292628
C143  C     C_R   0.657307 0.473324 0.526435 0.300551
C144  C     C_R   0.531100 0.656971 0.521910 0.291001
C145  C     C_R   0.843076 0.961020 0.990867 0.290220
C146  C     C_R   0.975970 0.157352 0.972352 0.301793
C147  C     C_R   0.156958 0.038938 0.990657 0.290162
C148  C     C_R   0.024085 0.842653 0.972312 0.301760
C149  C     C_R   0.843045 0.038940 0.009342 0.290169
C150  C     C_R   0.975917 0.842651 0.027689 0.301758
C151  C     C_R   0.156922 0.961019 0.009134 0.290227
C152  C     C_R   0.024029 0.157354 0.027646 0.301789
C153  C     C_R   0.366252 0.498934 0.500134 -0.233066
C154  C     C_R   0.500000 0.633573 0.499998 -0.243849
C155  C     C_R   0.633750 0.498945 0.499866 -0.232891
C156  C     C_R   0.500012 0.366443 0.500009 -0.240265
C157  C     C_R   0.866503 0.999981 0.000095 -0.241709
C158  C     C_R   1.000000 0.133788 0.999999 -0.235703
C159  C     C_R   0.133497 0.999980 0.999905 -0.241708
C160  C     C_R   0.000001 0.866215 0.000000 -0.235603
C161  C     C_R   0.273841 0.501290 0.498900 0.056266
C162  C     C_R   0.500001 0.725972 0.500001 0.059475
C163  C     C_R   0.726160 0.501300 0.501112 0.056347
C164  C     C_R   0.500032 0.273965 0.500010 0.059087
C165  C     C_R   0.774040 0.999987 0.000096 0.059292
C166  C     C_R   0.999999 0.226244 0.999999 0.053649
C167  C     C_R   0.225960 0.999985 0.999904 0.059294
C168  C     C_R   0.000002 0.773760 0.000001 0.053611
O33   O     O_R   0.499910 0.564360 0.468610 -0.554586
O34   O     O_R   0.564360 0.500090 0.468610 -0.537048
O35   O     O_R   0.500090 0.435640 0.468610 -0.539010
O36   O     O_R   0.435640 0.499910 0.468610 -0.545643
O37   O     O_R   0.499910 0.435640 0.531390 -0.539219
O38   O     O_R   0.564360 0.499910 0.531390 -0.545603
O39   O     O_R   0.500090 0.564360 0.531390 -0.554497
O40   O     O_R   0.435640 0.500090 0.531390 -0.536995
O41   O     O_R   0.999910 0.064360 0.968610 -0.544026
O42   O     O_R   0.064360 0.000090 0.968610 -0.543126
O43   O     O_R   0.000090 0.935640 0.968610 -0.544006
O44   O     O_R   0.935640 0.999910 0.968610 -0.542922
O45   O     O_R   0.999910 0.935640 0.031390 -0.544006
O46   O     O_R   0.064360 0.999910 0.031390 -0.542926
O47   O     O_R   0.000090 0.064360 0.031390 -0.544023
O48   O     O_R   0.935640 0.000090 0.031390 -0.543130
C169  C     C_R   0.499999 0.585238 0.500000 0.902148
C170  C     C_R   0.585309 0.499586 0.499954 0.906033
C171  C     C_R   0.500000 0.414756 0.500002 0.916630
C172  C     C_R   0.414691 0.499586 0.500045 0.906444
C173  C     C_R   1.000000 0.085323 1.000000 0.920604
C174  C     C_R   0.085220 0.999996 0.999970 0.917872
C175  C     C_R   0.000000 0.914678 0.000000 0.920715
C176  C     C_R   0.914780 0.999996 0.000030 0.917871
Cu9   Cu    Cu3+1 0.500000 0.500000 0.462810 1.218169
Cu10  Cu    Cu3+1 0.500000 0.500000 0.537190 1.218322
Cu11  Cu    Cu3+1 0.000000 0.000000 0.962810 1.214979
Cu12  Cu    Cu3+1 0.000000 0.000000 0.037190 1.214978
N1    N     N_R   0.226793 0.471688 0.563557 0.131598
O49   O     O_R   0.253559 0.438519 0.560171 -0.292266
O50   O     O_R   0.224465 0.492487 0.595390 -0.322666
N2    N     N_R   0.479408 0.773615 0.566881 0.133132
O51   O     O_R   0.446413 0.746345 0.566886 -0.299426
O52   O     O_R   0.503864 0.776912 0.596658 -0.318821
N3    N     N_R   0.774265 0.530968 0.565103 0.132955
O53   O     O_R   0.747664 0.564259 0.561733 -0.292963
O54   O     O_R   0.776641 0.510399 0.597034 -0.319767
N4    N     N_R   0.489185 0.226260 0.568565 0.130807
O55   O     O_R   0.519288 0.254132 0.578938 -0.303248
O56   O     O_R   0.453938 0.221636 0.588945 -0.320135
N5    N     N_R   0.225743 0.530507 0.434751 0.132929
O57   O     O_R   0.252379 0.563797 0.437943 -0.293092
O58   O     O_R   0.223316 0.509732 0.402920 -0.319741
N6    N     N_R   0.510895 0.226268 0.431453 0.130807
O59   O     O_R   0.480804 0.254151 0.421076 -0.303219
O60   O     O_R   0.546143 0.221631 0.411076 -0.320114
N7    N     N_R   0.773194 0.471204 0.436619 0.131620
O61   O     O_R   0.746452 0.438043 0.440195 -0.292104
O62   O     O_R   0.775468 0.491789 0.404683 -0.322702
N8    N     N_R   0.520598 0.773616 0.433123 0.133128
O63   O     O_R   0.553594 0.746350 0.433119 -0.299494
O64   O     O_R   0.496142 0.776911 0.403345 -0.318833
N9    N     N_R   0.726128 0.016388 0.067809 0.130532
O65   O     O_R   0.754007 0.987237 0.079981 -0.304828
O66   O     O_R   0.721323 0.053122 0.086074 -0.319814
N10   N     N_R   0.965364 0.273821 0.062548 0.132240
O67   O     O_R   0.932165 0.247528 0.057288 -0.290848
O68   O     O_R   0.983788 0.275589 0.095423 -0.320435
N11   N     N_R   0.273495 0.983608 0.067667 0.130524
O69   O     O_R   0.245537 0.012752 0.079806 -0.304928
O70   O     O_R   0.278207 0.946879 0.085943 -0.319838
N12   N     N_R   0.034479 0.726179 0.062504 0.132221
O71   O     O_R   0.067697 0.752464 0.057200 -0.290838
O72   O     O_R   0.015967 0.724423 0.095401 -0.320456
N13   N     N_R   0.726504 0.983607 0.932333 0.130523
O73   O     O_R   0.754463 0.012750 0.920193 -0.304928
O74   O     O_R   0.721790 0.946876 0.914060 -0.319835
N14   N     N_R   0.965524 0.726180 0.937497 0.132221
O75   O     O_R   0.932306 0.752463 0.942801 -0.290838
O76   O     O_R   0.984037 0.724425 0.904600 -0.320450
N15   N     N_R   0.273872 0.016381 0.932189 0.130533
O77   O     O_R   0.245991 0.987229 0.920020 -0.304826
O78   O     O_R   0.278680 0.053113 0.913922 -0.319816
N16   N     N_R   0.034633 0.273824 0.937451 0.132238
O79   O     O_R   0.067832 0.247533 0.942711 -0.290853
O80   O     O_R   0.016209 0.275592 0.904576 -0.320440
C177  C     C_3   0.132877 0.472838 0.567738 -0.698746
H49   H     H_    0.096605 0.472094 0.565441 0.200709
H50   H     H_    0.143756 0.439234 0.575654 0.256484
H51   H     H_    0.140771 0.495966 0.590838 0.257130
C178  C     C_3   0.480116 0.867670 0.569954 -0.698883
H52   H     H_    0.477968 0.903832 0.567083 0.197329
H53   H     H_    0.447937 0.856174 0.581028 0.255577
H54   H     H_    0.506142 0.860844 0.590943 0.257889
C179  C     C_3   0.868226 0.527831 0.568462 -0.698885
H55   H     H_    0.904484 0.527644 0.565882 0.200498
H56   H     H_    0.858224 0.561742 0.576297 0.255583
H57   H     H_    0.859949 0.505051 0.591738 0.257413
C180  C     C_3   0.489174 0.132108 0.571273 -0.690943
H58   H     H_    0.494906 0.096236 0.569325 0.189099
H59   H     H_    0.513452 0.145085 0.591721 0.252479
H60   H     H_    0.455450 0.137015 0.582483 0.260901
C181  C     C_3   0.131775 0.527449 0.431434 -0.698882
H61   H     H_    0.095519 0.527371 0.434047 0.200322
H62   H     H_    0.141845 0.561284 0.423423 0.255574
H63   H     H_    0.139978 0.504492 0.408265 0.257435
C182  C     C_3   0.510843 0.132117 0.428731 -0.690941
H64   H     H_    0.505083 0.096249 0.430673 0.189093
H65   H     H_    0.486578 0.145115 0.408282 0.252496
H66   H     H_    0.544572 0.137004 0.417525 0.260892
C183  C     C_3   0.867103 0.472439 0.432382 -0.698739
H67   H     H_    0.903380 0.471804 0.434642 0.200891
H68   H     H_    0.856289 0.438758 0.424644 0.256494
H69   H     H_    0.859130 0.495391 0.409177 0.257113
C184  C     C_3   0.519883 0.867672 0.430048 -0.698881
H70   H     H_    0.522026 0.903834 0.432917 0.197327
H71   H     H_    0.552063 0.856180 0.418974 0.255572
H72   H     H_    0.493858 0.860841 0.409058 0.257889
C185  C     C_3   0.631959 0.016345 0.070516 -0.689700
H73   H     H_    0.596139 0.010093 0.068971 0.189595
H74   H     H_    0.645126 0.993911 0.092369 0.251985
H75   H     H_    0.636554 0.050924 0.079655 0.261159
C186  C     C_3   0.968472 0.367630 0.066913 -0.698240
H76   H     H_    0.969307 0.403906 0.064885 0.202324
H77   H     H_    0.933986 0.357890 0.073031 0.256182
H78   H     H_    0.989592 0.358756 0.091105 0.256967
C187  C     C_3   0.367654 0.983664 0.070463 -0.689929
H79   H     H_    0.403485 0.989917 0.068950 0.189612
H80   H     H_    0.354364 0.006101 0.092301 0.251957
H81   H     H_    0.363008 0.949087 0.079601 0.261224
C188  C     C_3   0.031334 0.632373 0.066883 -0.698167
H82   H     H_    0.030484 0.596097 0.064865 0.202326
H83   H     H_    0.065808 0.642097 0.072959 0.256174
H84   H     H_    0.010153 0.641263 0.091098 0.256959
C189  C     C_3   0.632345 0.983663 0.929537 -0.689925
H85   H     H_    0.596514 0.989918 0.931050 0.189611
H86   H     H_    0.645637 0.006097 0.907698 0.251957
H87   H     H_    0.636988 0.949085 0.920401 0.261224
C190  C     C_3   0.968669 0.632374 0.933117 -0.698159
H88   H     H_    0.969520 0.596098 0.935134 0.202324
H89   H     H_    0.934195 0.642096 0.927042 0.256175
H90   H     H_    0.989849 0.641266 0.908902 0.256961
C191  C     C_3   0.368042 0.016338 0.929482 -0.689700
H91   H     H_    0.403861 0.010085 0.931028 0.189594
H92   H     H_    0.354873 0.993903 0.907631 0.251986
H93   H     H_    0.363448 0.050916 0.920342 0.261157
C192  C     C_3   0.031525 0.367633 0.933086 -0.698240
H94   H     H_    0.030689 0.403909 0.935114 0.202323
H95   H     H_    0.066011 0.357895 0.926968 0.256180
H96   H     H_    0.010405 0.358759 0.908894 0.256966
N17   N     N_R   0.364480 0.444495 0.447416 0.155627
O81   O     O_R   0.347443 0.437788 0.414430 -0.277327
O82   O     O_R   0.397537 0.420321 0.457913 -0.311688
N18   N     N_R   0.435426 0.634772 0.456786 0.151002
O83   O     O_R   0.421704 0.651478 0.425298 -0.273644
O84   O     O_R   0.413996 0.601834 0.471275 -0.336540
N19   N     N_R   0.635006 0.553436 0.447858 0.137633
O85   O     O_R   0.639027 0.595923 0.450399 -0.279423
O86   O     O_R   0.620070 0.536442 0.416909 -0.266709
N20   N     N_R   0.578129 0.364838 0.477271 0.149376
O87   O     O_R   0.616101 0.347293 0.485040 -0.275060
O88   O     O_R   0.576976 0.398119 0.454394 -0.304548
N21   N     N_R   0.365017 0.553842 0.551833 0.137574
O89   O     O_R   0.360779 0.596300 0.549182 -0.279245
O90   O     O_R   0.380147 0.537052 0.582795 -0.266967
N22   N     N_R   0.421923 0.364794 0.522822 0.149604
O91   O     O_R   0.383946 0.347238 0.515088 -0.275107
O92   O     O_R   0.423099 0.398052 0.545722 -0.304389
N23   N     N_R   0.635483 0.444939 0.552878 0.155328
O93   O     O_R   0.652211 0.438914 0.586066 -0.277124
O94   O     O_R   0.602739 0.420342 0.542388 -0.311053
N24   N     N_R   0.564589 0.634768 0.543191 0.150962
O95   O     O_R   0.578320 0.651462 0.574682 -0.273539
O96   O     O_R   0.586026 0.601848 0.528681 -0.336605
N25   N     N_R   0.865038 0.920490 0.981455 0.149847
O97   O     O_R   0.847127 0.883027 0.990386 -0.274974
O98   O     O_R   0.899153 0.920338 0.959398 -0.317288
N26   N     N_R   0.949846 0.135529 0.944378 0.153656
O99   O     O_R   0.947932 0.151381 0.910508 -0.276916
O100  O     O_R   0.922537 0.104546 0.953942 -0.303887
N27   N     N_R   0.135028 0.079463 0.981238 0.149882
O101  O     O_R   0.152919 0.116933 0.990120 -0.274987
O102  O     O_R   0.100968 0.079595 0.959226 -0.317277
N28   N     N_R   0.050260 0.864478 0.944291 0.153667
O103  O     O_R   0.052262 0.848611 0.910424 -0.276838
O104  O     O_R   0.077521 0.895491 0.953801 -0.303945
N29   N     N_R   0.864977 0.079463 0.018761 0.149878
O105  O     O_R   0.847088 0.116934 0.009879 -0.274989
O106  O     O_R   0.899036 0.079595 0.040775 -0.317277
N30   N     N_R   0.949740 0.864475 0.055709 0.153665
O107  O     O_R   0.947739 0.848607 0.089576 -0.276843
O108  O     O_R   0.922479 0.895485 0.046198 -0.303939
N31   N     N_R   0.134957 0.920490 0.018548 0.149843
O109  O     O_R   0.152866 0.883027 0.009617 -0.274978
O110  O     O_R   0.100842 0.920339 0.040605 -0.317292
N32   N     N_R   0.050155 0.135532 0.055620 0.153656
O111  O     O_R   0.052069 0.151383 0.089490 -0.276913
O112  O     O_R   0.077464 0.104550 0.046055 -0.303882

loop_
_geom_bond_atom_site_label_1
_geom_bond_atom_site_label_2
_geom_bond_distance
_ccdc_geom_bond_type
N27   O101  1.301671 A    
C124  C140  1.399577 A    
C183  H67   1.105810 S    
C149  N29   1.440760 S    
C8    C112  1.462874 S    
O25   C13   1.297286 A    
N3    O53   1.301139 A    
C178  H52   1.106125 S    
O11   Cu7   1.962650 S    
N7    O62   1.300811 A    
C75   N3    1.437658 S    
C177  H49   1.105830 S    
O42   C174  1.286147 A    
C104  C110  1.417809 A    
C99   C111  1.416169 A    
N19   O86   1.300725 A    
C66   C71   1.205474 T    
N17   O82   1.300383 A    
C67   C70   1.205492 T    
C191  H92   1.110534 S    
C42   H26   1.082797 S    
C82   C98   1.407673 A    
C116  C164  1.475960 S    
C127  C143  1.399012 A    
O24   Cu4   1.946414 S    
C160  C175  1.473433 S    
C86   C102  1.407674 A    
N14   O75   1.301130 A    
Cu1   Cu3   2.674269 S    
C146  N26   1.438017 S    
C88   C104  1.407673 A    
C156  C171  1.468861 S    
Cu2   Cu4   2.673381 S    
O3    C3    1.290365 A    
C186  H78   1.109287 S    
C20   C36   1.398101 A    
C29   C63   1.399284 A    
C30   C64   1.399261 A    
C182  H65   1.110567 S    
C81   N9    1.437940 S    
C182  H64   1.106607 S    
C131  C167  1.395519 A    
O38   C170  1.287852 A    
C184  H72   1.109399 S    
N16   O79   1.301128 A    
C22   C60   1.399244 A    
O35   Cu9   1.967643 S    
C68   C69   1.205474 T    
C187  H81   1.109505 S    
O17   C9    1.297278 A    
O27   Cu7   1.946800 S    
C20   H4    1.083510 S    
C90   C178  1.517482 S    
C86   C120  1.409114 A    
C26   H10   1.083507 S    
C74   C90   1.409298 A    
N7    O61   1.301137 A    
C140  C156  1.421638 A    
C125  C161  1.395536 A    
O41   C173  1.287724 A    
N8    O63   1.301144 A    
O13   C5    1.290956 A    
C134  C150  1.396954 A    
C19   C35   1.398188 A    
C180  H60   1.109524 S    
C93   C181  1.517890 S    
C155  C170  1.472387 S    
N16   O80   1.300829 A    
O26   Cu6   1.946414 S    
C183  H69   1.109353 S    
O7    C3    1.291270 A    
C189  H85   1.106709 S    
N20   O88   1.300049 A    
C89   C105  1.417122 A    
C126  H38   1.083740 S    
C3    C107  1.463140 S    
C178  H54   1.109403 S    
C76   N4    1.437919 S    
N6    O59   1.301204 A    
O41   Cu11  1.967642 S    
O31   C15   1.297285 A    
C177  H51   1.109398 S    
C1    C105  1.463121 S    
O32   C16   1.296912 A    
C19   C57   1.399305 A    
C37   C51   1.407194 A    
C29   C45   1.398166 A    
C76   C116  1.410187 A    
C192  H94   1.105559 S    
C123  C139  1.394371 A    
C102  C190  1.518107 S    
O18   Cu2   1.946414 S    
C121  C137  1.399150 A    
C132  C148  1.396953 A    
C185  H73   1.106620 S    
C145  C157  1.420962 A    
C130  C166  1.395036 A    
C73   C89   1.407921 A    
C159  C174  1.467301 S    
C79   C95   1.407905 A    
O11   C7    1.290954 A    
C157  C176  1.467301 S    
C115  C163  1.473847 S    
N28   O104  1.300546 A    
C142  C156  1.421656 A    
C113  C161  1.473880 S    
C124  H36   1.083738 S    
O47   C173  1.287726 A    
C57   C65   1.438916 S    
C151  N31   1.440749 S    
N1    O50   1.300841 A    
N13   O73   1.301190 A    
O5    Cu3   1.962657 S    
C117  C165  1.475976 S    
C128  C144  1.399210 A    
O46   Cu12  1.966618 S    
N21   O89   1.300724 A    
C190  H89   1.110398 S    
C82   N10   1.437612 S    
O48   Cu12  1.967375 S    
C135  H47   1.083680 S    
N25   O97   1.301669 A    
O34   C170  1.287100 A    
N19   O85   1.300683 A    
C93   C105  1.417907 A    
C148  C160  1.421456 A    
O9    C5    1.290964 A    
C28   C44   1.398111 A    
C144  N24   1.438770 S    
C81   C117  1.410196 A    
C103  C191  1.517220 S    
C91   C179  1.517893 S    
O40   C172  1.287106 A    
O23   C11   1.297281 A    
C127  H39   1.083707 S    
C153  C172  1.472346 S    
N22   O91   1.301675 A    
N3    O54   1.300818 A    
C99   C187  1.517251 S    
C46   C56   1.407200 A    
N31   O110  1.300130 A    
C78   C116  1.410178 A    
C132  C168  1.395048 A    
C85   N13   1.437935 S    
C138  C154  1.418552 A    
C78   C94   1.409341 A    
N10   O67   1.301132 A    
O14   C8    1.290531 A    
C100  C112  1.417824 A    
N12   O72   1.300826 A    
O2    Cu2   1.963302 S    
C26   C62   1.399256 A    
C36   H20   1.082783 S    
C21   H5    1.083503 S    
C188  H84   1.109285 S    
C84   N12   1.437610 S    
C191  H93   1.109506 S    
N23   O94   1.300327 A    
O28   C14   1.297128 A    
O26   C14   1.296914 A    
O29   C15   1.297304 A    
C47   C55   1.407175 A    
O8    Cu4   1.963292 S    
O30   C16   1.297126 A    
C141  N21   1.431554 S    
C140  N20   1.440486 S    
C63   C71   1.438884 S    
O48   C176  1.286144 A    
C98   C110  1.417806 A    
O33   Cu9   1.967642 S    
N5    O58   1.300844 A    
O19   Cu3   1.946800 S    
N24   O96   1.300978 A    
N9    O66   1.300855 A    
C88   N16   1.437611 S    
C192  H96   1.109287 S    
C12   C53   1.480076 S    
O44   Cu11  1.966621 S    
C76   C92   1.409337 A    
C122  C138  1.399208 A    
C77   C93   1.408305 A    
C24   C40   1.398086 A    
C80   C114  1.409465 A    
C185  H75   1.109505 S    
C16   C49   1.480026 S    
N15   O78   1.300857 A    
C96   C184  1.517482 S    
C120  C168  1.473868 S    
O38   Cu10  1.966618 S    
C84   C100  1.407679 A    
C73   C113  1.409509 A    
N2    O52   1.300808 A    
C158  C173  1.473497 S    
O16   Cu8   1.963292 S    
C7    C111  1.464396 S    
C36   C50   1.407187 A    
C122  H34   1.083691 S    
C124  C164  1.395262 A    
C87   N15   1.437937 S    
C97   C185  1.517221 S    
O6    Cu2   1.963288 S    
C143  N23   1.439072 S    
N26   O99   1.301373 A    
C65   C72   1.205492 T    
C181  H63   1.109358 S    
C91   C107  1.417937 A    
O39   C169  1.286458 A    
C178  H53   1.110447 S    
C29   H13   1.083501 S    
C18   H2    1.083509 S    
C118  C166  1.473844 S    
O21   Cu3   1.946797 S    
C39   C51   1.407206 A    
C31   C47   1.398019 A    
C22   H6    1.083506 S    
C154  C169  1.469533 S    
N18   O83   1.301357 A    
C27   C43   1.398166 A    
C136  H48   1.083770 S    
O12   C8    1.290534 A    
O1    C1    1.291265 A    
N30   O107  1.301378 A    
C130  H42   1.083769 S    
C88   C118  1.409112 A    
C6    C110  1.462835 S    
C75   C91   1.408290 A    
N17   O81   1.301757 A    
C80   N8    1.437593 S    
C104  C192  1.518106 S    
C134  H46   1.083765 S    
C77   N5    1.437680 S    
C128  H40   1.083690 S    
O22   Cu2   1.947174 S    
C188  H83   1.110401 S    
C59   C67   1.438916 S    
C21   C59   1.399307 A    
O36   C172  1.287821 A    
C126  C164  1.395238 A    
C94   C108  1.416136 A    
C2    C106  1.465033 S    
N14   O76   1.300827 A    
C35   C49   1.407194 A    
C79   N7    1.437548 S    
C150  C160  1.421455 A    
Cu11  Cu12  2.651371 S    
C48   H32   1.082798 S    
N32   O111  1.301372 A    
N32   O112  1.300542 A    
C148  N28   1.438037 S    
C186  H77   1.110397 S    
C95   C107  1.417141 A    
C77   C113  1.408784 A    
O40   Cu10  1.967375 S    
C44   H28   1.082798 S    
O36   Cu9   1.966621 S    
C133  C165  1.395519 A    
O10   C6    1.290519 A    
C79   C115  1.409476 A    
C184  H71   1.110447 S    
C89   C177  1.517920 S    
C181  H61   1.105682 S    
O39   Cu10  1.967639 S    
C17   C33   1.398043 A    
C132  H44   1.083767 S    
C144  C154  1.418532 A    
O15   Cu5   1.962669 S    
C186  H76   1.105557 S    
C187  H80   1.110533 S    
C43   H27   1.082784 S    
N4    O55   1.301207 A    
C21   C37   1.398188 A    
O5    C1    1.290355 A    
C137  C153  1.421089 A    
C23   C39   1.398043 A    
O45   C175  1.287699 A    
C151  C159  1.420962 A    
C128  C162  1.396597 A    
C86   N14   1.437613 S    
C24   C60   1.399233 A    
N6    O60   1.300882 A    
N29   O106  1.300131 A    
N8    O64   1.300808 A    
O35   C171  1.286587 A    
C23   C59   1.399219 A    
C180  H59   1.110569 S    
C73   N1    1.437563 S    
C92   C108  1.416136 A    
C135  C151  1.399596 A    
C82   C118  1.409112 A    
C101  C109  1.416171 A    
N11   O69   1.301189 A    
C183  H68   1.110423 S    
O21   C11   1.297292 A    
C152  C158  1.421473 A    
C24   H8    1.083508 S    
O22   C12   1.297124 A    
O23   Cu1   1.946806 S    
C80   C96   1.409295 A    
N30   O108  1.300540 A    
C177  H50   1.110457 S    
C28   H12   1.083507 S    
C87   C119  1.410197 A    
C34   H18   1.082785 S    
C41   C53   1.407177 A    
O3    Cu3   1.962650 S    
C83   N11   1.437935 S    
C32   C48   1.398112 A    
C75   C115  1.408732 A    
C179  H55   1.105669 S    
C38   H22   1.082785 S    
O8    C2    1.290944 A    
C101  C189  1.517247 S    
N31   O109  1.301670 A    
C131  C147  1.399632 A    
N1    O49   1.301162 A    
O28   Cu8   1.947174 S    
C35   H19   1.082803 S    
C62   C70   1.438913 S    
N27   O102  1.300133 A    
C129  C145  1.399597 A    
O30   Cu6   1.947174 S    
O43   Cu11  1.967643 S    
C133  C149  1.399632 A    
C18   C34   1.398082 A    
C97   C109  1.416210 A    
C10   C55   1.480076 S    
C94   C182  1.517178 S    
C31   H15   1.083514 S    
C125  C141  1.394379 A    
C22   C38   1.398105 A    
C58   C66   1.438886 S    
C44   C54   1.407199 A    
C14   C51   1.480026 S    
O9    Cu5   1.962656 S    
C102  C112  1.417826 A    
C182  H66   1.109524 S    
C125  H37   1.083956 S    
C190  H88   1.105548 S    
C4    C108  1.464258 S    
O16   C6    1.290516 A    
C74   C114  1.409457 A    
C30   C46   1.398111 A    
C60   C68   1.438886 S    
O6    C4    1.290671 A    
O44   C176  1.285991 A    
C61   C69   1.438884 S    
C45   H29   1.082786 S    
O46   C174  1.285988 A    
C28   C62   1.399258 A    
N15   O77   1.301190 A    
C64   C72   1.438913 S    
C147  N27   1.440765 S    
C146  C158  1.421478 A    
C31   C63   1.399192 A    
C26   C42   1.398113 A    
O31   Cu5   1.946806 S    
C33   C49   1.407204 A    
C18   C58   1.399233 A    
C129  C165  1.395498 A    
O43   C175  1.287700 A    
N10   O68   1.300826 A    
O18   C10   1.296953 A    
O17   Cu1   1.946803 S    
C114  C162  1.475738 S    
C74   N2    1.437591 S    
C25   C41   1.398019 A    
C42   C54   1.407198 A    
C81   C97   1.409272 A    
C189  H86   1.110529 S    
N20   O87   1.301669 A    
C85   C101  1.409296 A    
O13   Cu7   1.962657 S    
O42   Cu11  1.967372 S    
O2    C2    1.290947 A    
N5    O57   1.301160 A    
N22   O92   1.300059 A    
C134  C168  1.395048 A    
N26   O100  1.300538 A    
C136  C152  1.396948 A    
C43   C53   1.407210 A    
C23   H7    1.083512 S    
N9    O65   1.301191 A    
C5    C109  1.464396 S    
C40   H24   1.082784 S    
O4    Cu4   1.963298 S    
C17   C57   1.399219 A    
C27   C61   1.399283 A    
C185  H74   1.110531 S    
C139  C155  1.416544 A    
C32   C64   1.399256 A    
C130  C146  1.396947 A    
C17   H1    1.083511 S    
C141  C153  1.416652 A    
C133  H45   1.083675 S    
C135  C167  1.395497 A    
N28   O103  1.301372 A    
C45   C55   1.407211 A    
C179  H56   1.110417 S    
C25   H9    1.083516 S    
C41   H25   1.082785 S    
N13   O74   1.300856 A    
C48   C56   1.407198 A    
C92   C180  1.517176 S    
O45   Cu12  1.967646 S    
C121  C161  1.396500 A    
N21   O90   1.300773 A    
C46   H30   1.082798 S    
C190  H90   1.109284 S    
O15   C7    1.290967 A    
N25   O98   1.300129 A    
O32   Cu8   1.946414 S    
C34   C50   1.407188 A    
C9    C56   1.480042 S    
C137  N17   1.439364 S    
C136  C166  1.395031 A    
C11   C54   1.480042 S    
C147  C159  1.420953 A    
C32   H16   1.083507 S    
Cu5   Cu7   2.674269 S    
C13   C52   1.480073 S    
O25   Cu5   1.946803 S    
Cu6   Cu8   2.673381 S    
N11   O70   1.300856 A    
C90   C106  1.417158 A    
C40   C52   1.407188 A    
C149  C157  1.420953 A    
C142  N22   1.440477 S    
C100  C188  1.518106 S    
O7    Cu1   1.962669 S    
N18   O84   1.300961 A    
C20   C58   1.399244 A    
C139  N19   1.431421 S    
C15   C50   1.480073 S    
C138  N18   1.438787 S    
Cu9   Cu10  2.651371 S    
C78   N6    1.437909 S    
C123  C163  1.395579 A    
C192  H95   1.110400 S    
O29   Cu7   1.946797 S    
C143  C155  1.420863 A    
C119  C167  1.475976 S    
C123  H35   1.083924 S    
N12   O71   1.301126 A    
C189  H87   1.109507 S    
O19   C9    1.297299 A    
C121  H33   1.083719 S    
N23   O93   1.301457 A    
C122  C162  1.396592 A    
O24   C12   1.296951 A    
C27   H11   1.083501 S    
C188  H82   1.105545 S    
O12   Cu8   1.963298 S    
C83   C119  1.410237 A    
C84   C120  1.409113 A    
C127  C163  1.396521 A    
O14   Cu6   1.963288 S    
C145  N25   1.440750 S    
C95   C183  1.517920 S    
O34   Cu9   1.967372 S    
C33   H17   1.082806 S    
C30   H14   1.083507 S    
C19   H3    1.083504 S    
N24   O95   1.301397 A    
C179  H57   1.109307 S    
C103  C111  1.416209 A    
C47   H31   1.082784 S    
C126  C142  1.399529 A    
O37   C171  1.286486 A    
O4    C4    1.290648 A    
C150  N30   1.438036 S    
C184  H70   1.106128 S    
C98   C186  1.518106 S    
O33   C169  1.286444 A    
C131  H43   1.083678 S    
N2    O51   1.301145 A    
C129  H41   1.083681 S    
C39   H23   1.082803 S    
C187  H79   1.106709 S    
N4    O56   1.300880 A    
O20   Cu4   1.947174 S    
O47   Cu12  1.967639 S    
C191  H91   1.106620 S    
C96   C106  1.417157 A    
O20   C10   1.297126 A    
C152  N32   1.438019 S    
O10   Cu6   1.963302 S    
C85   C117  1.410235 A    
O37   Cu10  1.967646 S    
C83   C99   1.409295 A    
C181  H62   1.110455 S    
N29   O105  1.301674 A    
C37   H21   1.082803 S    
C87   C103  1.409272 A    
C180  H58   1.106603 S    
O1    Cu1   1.962656 S    
C25   C61   1.399191 A    
C38   C52   1.407185 A    
O27   C13   1.297306 A    
