data_mof_unit_67012.cif
_audit_creation_date              2013-03-05T15:58:13-0500
_audit_creation_method            fapswitch 2.2
_symmetry_space_group_name_H-M    P1
_symmetry_Int_Tables_number       1
_space_group_crystal_system       triclinic
_cell_length_a                    8.300034
_cell_length_b                    12.69279
_cell_length_c                    14.283746
_cell_angle_alpha                 92.829007
_cell_angle_beta                  90.912221
_cell_angle_gamma                 98.140251
_cell_volume                      1487.42442026

loop_
_atom_site_label
_atom_site_type_symbol
_atom_site_description
_atom_site_fract_x
_atom_site_fract_y
_atom_site_fract_z
_atom_type_partial_charge
P1    P     P_3+3 0.054400 0.427280 0.286870 0.460429
O1    O     O_2   0.887370 0.460630 0.272300 -0.366952
O2    O     O_3   0.129410 0.451380 0.388510 -0.403159
O3    O     O_3   0.670210 0.653170 0.329170 -0.383393
O4    O     O_2   0.781351 0.585062 0.165699 -0.369434
O5    O     O_3   0.023731 0.290067 0.259381 -0.579934
O6    O     O_3   0.711852 0.777760 0.168321 -0.502986
H1    H     H_    0.739388 0.867011 0.293897 0.134839
C1    C     C_3   0.653754 0.956653 0.182997 -1.038367
H2    H     H_    0.636387 0.021618 0.235879 0.246904
H3    H     H_    0.770594 0.978349 0.147027 0.276427
P2    P     P_3+3 0.668300 0.742890 0.573060 0.454856
P3    P     P_3+3 0.136073 0.842769 0.378769 0.455769
O7    O     O_2   0.845380 0.761330 0.544970 -0.356154
O8    O     O_3   0.088930 0.704860 0.376040 -0.351334
O9    O     O_2   0.020801 0.887303 0.448994 -0.384464
O10   O     O_3   0.694218 0.774007 0.693072 -0.556293
O11   O     O_3   0.074923 0.886154 0.271430 -0.501018
C2    C     C_3   0.195166 0.872317 0.205881 0.425577
H4    H     H_    0.212015 0.786741 0.197070 0.085634
H5    H     H_    0.311812 0.922265 0.227769 0.049042
C3    C     C_3   0.142184 0.909364 0.112235 -0.968833
H6    H     H_    0.027539 0.859764 0.086610 0.286448
H7    H     H_    0.122271 0.993930 0.119906 0.256202
C4    C     C_3   0.247271 0.762840 0.663408 0.377233
H8    H     H_    0.380245 0.772723 0.676318 0.094562
H9    H     H_    0.216369 0.721785 0.593693 0.115322
C5    C     C_3   0.193510 0.871723 0.661721 -0.848690
H10   H     H_    0.202533 0.910401 0.732899 0.252696
H11   H     H_    0.266725 0.921794 0.611927 0.229749
H12   H     H_    0.064761 0.862476 0.639475 0.276398
Ba1   Ba    Ba6+2 0.855630 0.555280 0.454520 1.547882
C6    C     C_3   0.964968 0.233857 0.336111 0.362451
H13   H     H_    0.833610 0.238700 0.341245 0.096066
H14   H     H_    0.030499 0.263647 0.402776 0.137054
C7    C     C_3   0.989071 0.118167 0.318137 -0.888534
H15   H     H_    0.944482 0.089692 0.246670 0.259922
H16   H     H_    0.922236 0.067010 0.369386 0.235536
H17   H     H_    0.120472 0.111369 0.323313 0.263343
C8    C     C_3   0.690354 0.682837 0.744409 0.313429
H18   H     H_    0.798004 0.643006 0.727955 0.087296
H19   H     H_    0.577833 0.626960 0.728103 0.134111
C9    C     C_3   0.695835 0.717329 0.849444 -0.710699
H20   H     H_    0.819777 0.758996 0.869172 0.187385
H21   H     H_    0.672748 0.645524 0.891242 0.169692
P4    P     P_3+3 0.135310 0.572810 0.713130 0.462748
O12   O     O_2   0.302330 0.539400 0.727760 -0.383337
O13   O     O_3   0.060300 0.548700 0.611500 -0.388229
O14   O     O_3   0.519500 0.346920 0.670840 -0.354377
O15   O     O_3   0.170106 0.710329 0.737827 -0.565260
P5    P     P_3+3 0.055438 0.156195 0.621653 0.434707
O16   O     O_3   0.614310 0.373510 0.452640 -0.395341
O17   O     O_3   0.100780 0.295230 0.623970 -0.392643
O18   O     O_2   0.201014 0.111230 0.575963 -0.370899
O19   O     O_3   0.056027 0.115172 0.737322 -0.569543
Ba2   Ba    Ba6+2 0.334200 0.444810 0.545490 1.540106
P6    P     P_3+3 0.652774 0.649799 0.206998 0.475556
C10   C     C_3   0.655563 0.852378 0.231373 0.527645
H22   H     H_    0.529811 0.825044 0.254458 -0.018169
H23   H     H_    0.552823 0.947955 0.129377 0.263521
O20   O     O_3   0.575400 0.626570 0.547370 -0.407980
C11   C     C_3   0.475414 0.321806 0.260546 0.434075
H24   H     H_    0.352946 0.337598 0.280540 0.101628
H25   H     H_    0.567799 0.390110 0.284577 0.129566
C12   C     C_3   0.482969 0.310690 0.155030 -1.011372
H26   H     H_    0.392927 0.242182 0.127864 0.276840
H27   H     H_    0.455930 0.384075 0.122862 0.229726
H28   H     H_    0.608633 0.297987 0.136246 0.252411
P7    P     P_3+3 0.523674 0.242827 0.419065 0.419289
O21   O     O_2   0.344320 0.238700 0.455090 -0.361251
O22   O     O_3   0.506952 0.226151 0.297065 -0.586001
H29   H     H_    0.238207 0.902692 0.060272 0.215065
C13   C     C_3   0.041775 0.202482 0.799953 0.368355
H30   H     H_    0.129539 0.273318 0.783769 0.134704
H31   H     H_    0.916645 0.222981 0.796440 0.021600
C14   C     C_3   0.089150 0.177697 0.899613 -0.409856
H32   H     H_    0.134966 0.254034 0.939614 0.172542
H33   H     H_    0.189308 0.129713 0.894965 0.232036
P8    P     P_3+3 0.546564 0.361571 0.795020 0.426017
C15   C     C_3   0.524286 0.172124 0.859582 0.652834
H34   H     H_    0.656405 0.194280 0.848923 0.052237
O23   O     O_2   0.469009 0.458701 0.829340 -0.406762
O24   O     O_3   0.440476 0.261426 0.860058 -0.555125
H35   H     H_    0.579916 0.050957 0.953479 0.270282
C16   C     C_3   0.514274 0.121317 0.955514 -1.070797
H36   H     H_    0.387925 0.092919 0.976991 0.253455
H37   H     H_    0.573447 0.179115 0.010548 0.255734
C17   C     C_R   0.989697 0.442580 0.060724 -0.136286
C18   C     C_R   0.180891 0.499741 0.196945 0.283310
C19   C     C_R   0.332560 0.553347 0.227932 -0.517340
C20   C     C_R   0.448025 0.593471 0.164286 0.206067
C21   C     C_R   0.409347 0.588335 0.068811 -0.228341
C22   C     C_R   0.253102 0.544593 0.035388 0.062802
C23   C     C_R   0.139233 0.494933 0.098590 -0.015703
H38   H     H_    0.365502 0.557475 0.301796 0.175172
C24   C     C_R   0.061236 0.498346 0.901671 -0.049679
C25   C     C_R   0.950051 0.444943 0.964352 0.077038
C26   C     C_R   0.015622 0.498654 0.803950 0.250866
C27   C     C_R   0.865223 0.445676 0.772946 -0.489544
C28   C     C_R   0.755252 0.399479 0.835579 0.239591
C29   C     C_R   0.796419 0.397670 0.930545 -0.335374
C30   C     C_R   0.211964 0.548322 0.939263 -0.093357
H39   H     H_    0.503455 0.616247 0.020904 0.193187
H40   H     H_    0.706579 0.362338 0.978215 0.158861
H41   H     H_    0.827953 0.447042 0.700071 0.175045
H42   H     H_    0.901695 0.400323 0.105468 0.164471
H43   H     H_    0.298360 0.591004 0.894396 0.203659
C31   C     C_R   0.772757 0.175239 0.519951 -0.532757
C32   C     C_R   0.434580 0.812647 0.458512 -0.495269
C33   C     C_R   0.412698 0.993224 0.420676 -0.229485
C34   C     C_R   0.347247 0.886188 0.419292 0.175447
C35   C     C_R   0.582575 0.845555 0.506507 0.283897
C36   C     C_R   0.651719 0.955484 0.508360 -0.081389
C37   C     C_R   0.564168 0.029906 0.464902 -0.055355
C38   C     C_R   0.625347 0.140060 0.472694 0.272741
C39   C     C_R   0.862512 0.103752 0.559354 0.250824
C40   C     C_R   0.799566 0.995277 0.556876 -0.154436
H44   H     H_    0.341077 0.047169 0.389457 0.173842
H45   H     H_    0.863597 0.944633 0.596854 0.185591
H46   H     H_    0.818620 0.259530 0.526024 0.172953
H47   H     H_    0.381293 0.729733 0.456983 0.169441
C41   C     C_2   0.573687 0.792528 0.872385 1.152096
O25   O     O_2   0.578999 0.875824 0.832694 -0.661132
O26   O     O_R   0.455613 0.768636 0.939130 -0.842782
H48   H     H_    0.372432 0.820305 0.940519 0.309335
C42   C     C_3   0.952299 0.118134 0.955252 -0.341901
C43   C     C_3   0.912751 0.000584 0.922316 -0.753397
H49   H     H_    0.868351 0.992235 0.848242 0.295407
H50   H     H_    0.022863 0.960107 0.928303 0.242744
H51   H     H_    0.817660 0.960012 0.967243 0.239261
H52   H     H_    0.991658 0.122367 0.030282 0.206782
H53   H     H_    0.843891 0.159017 0.951629 0.199603
C44   C     C_3   0.448636 0.091750 0.781956 -0.333422
C45   C     C_3   0.571613 0.073541 0.708958 -0.871675
H54   H     H_    0.621393 0.151488 0.680950 0.245483
H55   H     H_    0.672365 0.036068 0.739346 0.286054
H56   H     H_    0.508829 0.020740 0.651903 0.266323
H57   H     H_    0.397168 0.014891 0.810871 0.219097
H58   H     H_    0.348934 0.123259 0.745296 0.263883

loop_
_geom_bond_atom_site_label_1
_geom_bond_atom_site_label_2
_geom_bond_distance
_ccdc_geom_bond_type
C22   C23   1.421316 A    
C24   C30   1.405725 A    
C13   H31   1.106804 S    
C13   H30   1.110349 S    
C31   H46   1.082378 S    
C2    H4    1.115933 S    
C33   H44   1.076117 S    
C45   H56   1.103875 S    
C37   C38   1.416646 A    
C19   H38   1.082566 S    
C16   H36   1.112614 S    
C4    C5    1.512380 S    
C15   C16   1.541461 S    
P3    O11   1.746220 S    
C31   C38   1.393278 A    
C5    H10   1.103702 S    
C2    H5    1.110855 S    
C14   H33   1.098899 S    
Ba1   O20   2.926329 S    
O11   C2    1.402380 S    
C32   C34   1.393158 A    
C6    C7    1.519808 S    
C14   C42   1.529116 S    
C39   C40   1.400295 A    
O1    Ba1   2.844291 S    
P1    O1    1.519928 D    
C18   C23   1.437724 A    
P7    O22   1.745950 S    
C4    O15   1.398241 S    
Ba1   O16   2.831800 S    
C11   H25   1.109689 S    
O16   P7    1.761795 S    
C21   H39   1.080030 S    
H1    C10   1.115074 S    
C33   C34   1.388974 A    
C8    C9    1.540119 S    
C12   H27   1.107826 S    
C24   C26   1.440768 A    
P2    O10   1.743042 S    
P5    O18   1.547651 D    
C1    H2    1.116655 S    
C33   C37   1.405817 A    
O6    C10   1.407443 S    
C17   C25   1.412987 A    
C8    H19   1.103935 S    
P4    C26   1.858073 S    
C44   H57   1.110026 S    
P2    Ba1   3.418975 S    
Ba1   O13   2.803196 S    
P7    O21   1.577515 D    
C15   O24   1.411177 S    
C3    H29   1.106806 S    
C35   C36   1.430396 A    
P4    O13   1.569072 S    
C16   H37   1.107291 S    
C27   H41   1.082856 S    
C17   C23   1.408597 A    
P1    O5    1.748126 S    
P8    C28   1.808840 S    
O8    Ba1   2.801597 S    
C2    C3    1.518421 S    
C14   H32   1.115336 S    
C32   C35   1.397481 A    
C20   C21   1.392281 A    
C45   H55   1.111481 S    
C10   H22   1.112749 S    
C7    H17   1.107743 S    
P1    Ba1   3.405389 S    
C15   C44   1.532698 S    
O14   P8    1.781617 S    
P1    O2    1.569190 S    
O10   C8    1.397088 S    
O3    P6    1.746675 S    
C9    H20   1.113269 S    
C43   H50   1.114164 S    
C11   H24   1.102853 S    
C17   H42   1.080478 S    
O2    Ba2   2.803772 S    
C27   C28   1.379691 A    
P3    O8    1.737106 S    
C42   H53   1.102263 S    
C12   H28   1.112713 S    
C24   C25   1.421882 A    
C6    H13   1.104052 S    
C30   H43   1.075784 S    
H35   C16   1.109492 S    
C9    H21   1.109839 S    
C9    C41   1.516580 S    
O3    Ba1   2.791317 S    
C36   C40   1.415648 A    
C8    H18   1.109982 S    
P2    O7    1.518756 D    
C44   H58   1.104336 S    
C29   H40   1.082767 S    
Ba2   O21   2.872395 S    
C1    H3    1.111072 S    
C44   C45   1.503126 S    
C13   C14   1.530173 S    
C3    H7    1.109365 S    
C41   O26   1.391205 S    
C43   H49   1.109938 S    
P2    C35   1.863157 S    
C36   C37   1.429537 A    
O17   Ba2   2.802197 S    
O13   Ba2   2.930970 S    
P4    O12   1.520281 D    
P7    C38   1.841247 S    
P1    C18   1.866578 S    
P6    C20   1.830651 S    
C11   C12   1.509926 S    
Ba2   O20   2.831121 S    
C5    H12   1.098492 S    
O7    Ba1   2.872184 S    
C15   H34   1.107705 S    
C22   C30   1.414253 A    
P8    O23   1.532872 D    
C45   H54   1.112733 S    
C4    H9    1.109828 S    
O14   Ba2   2.790715 S    
P4    O15   1.745801 S    
P5    C39   1.842118 S    
O5    C6    1.394198 S    
O4    P6    1.543569 D    
C1    H23   1.116070 S    
C31   C39   1.386920 A    
C40   H45   1.070068 S    
C4    H8    1.104488 S    
C43   H51   1.110668 S    
P3    C34   1.836715 S    
C7    H16   1.105931 S    
P8    O24   1.754925 S    
P2    O20   1.588759 S    
C32   H47   1.081322 S    
C19   C20   1.392672 A    
C42   H52   1.111923 S    
C42   C43   1.530472 S    
C5    H11   1.108176 S    
C21   C22   1.402919 A    
C6    H14   1.111426 S    
Ba1   Ba2   4.585329 S    
C11   O22   1.401042 S    
P5    O19   1.756766 S    
C12   H26   1.112951 S    
O2    Ba1   2.930197 S    
O19   C13   1.408922 S    
C1    C10   1.524811 S    
C7    H15   1.106041 S    
C26   C27   1.386320 A    
P3    O9    1.539093 D    
P4    Ba2   3.405852 S    
C41   O25   1.219812 D    
C3    H6    1.110090 S    
O12   Ba2   2.844811 S    
C28   C29   1.395646 A    
P5    O17   1.750089 S    
C18   C19   1.397697 A    
O6    P6    1.747925 S    
C25   C29   1.397968 A    
O16   Ba2   2.925537 S    
O26   H48   1.017118 S    
