data_mof_unit_17263.cif
_audit_creation_date              2012-12-11T15:48:05-0500
_audit_creation_method            fapswitch 2.2
_symmetry_space_group_name_H-M    P1
_symmetry_Int_Tables_number       1
_space_group_crystal_system       triclinic
_cell_length_a                    6.930848
_cell_length_b                    17.593796
_cell_length_c                    19.436487
_cell_angle_alpha                 108.534437
_cell_angle_beta                  89.516813
_cell_angle_gamma                 90.520414
_cell_volume                      2247.02296722

loop_
_atom_site_label
_atom_site_type_symbol
_atom_type_description
_atom_site_fract_x
_atom_site_fract_y
_atom_site_fract_z
_atom_type_partial_charge
O1    O     O_R   0.494330 0.415710 0.413720 -0.537147
O2    O     O_R   0.819360 0.430070 0.560210 -0.545903
O3    O     O_R   0.994320 0.584290 0.586280 -0.540356
C1    C     C_R   0.650013 0.414297 0.581301 0.708363
O4    O     O_R   0.823740 0.406290 0.412670 -0.547909
O5    O     O_R   0.998730 0.560340 0.437690 -0.537524
C2    C     C_R   0.654677 0.380305 0.386832 0.681349
O6    O     O_R   0.489920 0.439660 0.562310 -0.539184
O7    O     O_3   0.662330 0.550570 0.508380 -0.368015
V1    V     V_3+5 0.935370 0.490620 0.498440 1.391772
O8    O     O_R   0.328720 0.569930 0.439790 -0.541367
C3    C     C_R   0.160701 0.585233 0.418276 0.713219
O9    O     O_R   0.324340 0.593710 0.587330 -0.543786
C4    C     C_R   0.155112 0.616874 0.615309 0.686003
V2    V     V_3+5 0.435940 0.509380 0.501560 1.399781
O10   O     O_3   0.159110 0.449430 0.491620 -0.371055
C5    C     C_R   0.312301 0.723580 0.718585 -0.157168
H1    H     H_    0.453211 0.704280 0.695488 0.116669
C6    C     C_R   0.301152 0.787394 0.783574 -0.151724
H2    H     H_    0.434023 0.815417 0.808431 0.118577
C7    C     C_R   0.121326 0.814655 0.815876 -0.046326
C8    C     C_R   0.952970 0.776352 0.781340 -0.157212
H3    H     H_    0.812051 0.795646 0.804431 0.116613
C9    C     C_R   0.964119 0.712544 0.716357 -0.151595
H4    H     H_    0.831236 0.684526 0.691506 0.118878
C10   C     C_R   0.143936 0.685279 0.684052 -0.046691
C11   C     C_R   0.308420 0.634812 0.321886 -0.222688
C12   C     C_R   0.153288 0.634899 0.369182 -0.084450
C13   C     C_R   0.990092 0.681846 0.368653 -0.218547
C14   C     C_R   0.982026 0.728826 0.322220 0.088879
C15   C     C_R   0.136962 0.727409 0.274238 0.053107
C16   C     C_R   0.300196 0.679856 0.273815 0.090722
C17   C     C_R   0.821766 0.777292 0.322897 -0.189116
C18   C     C_R   0.813640 0.823086 0.275790 -0.183214
C19   C     C_R   0.965286 0.821076 0.226920 0.091154
C20   C     C_R   0.128515 0.773520 0.226508 0.053277
C21   C     C_R   0.283374 0.772024 0.178475 0.089056
C22   C     C_R   0.443790 0.723680 0.177887 -0.189484
C23   C     C_R   0.451985 0.677948 0.225033 -0.183548
C24   C     C_R   0.956862 0.865936 0.178689 -0.224497
C25   C     C_R   0.111711 0.865557 0.131187 -0.083176
C26   C     C_R   0.275036 0.818745 0.131845 -0.218476
H5    H     H_    0.434110 0.598425 0.321500 0.123822
H6    H     H_    0.870280 0.682629 0.405099 0.128097
H7    H     H_    0.701812 0.779382 0.359560 0.134593
H8    H     H_    0.687749 0.859641 0.277205 0.135501
H9    H     H_    0.831208 0.902338 0.179054 0.122399
H10   H     H_    0.394729 0.817829 0.095312 0.127811
H11   H     H_    0.563745 0.721589 0.141224 0.134567
H12   H     H_    0.577944 0.641442 0.223653 0.135280
C27   C     C_R   0.467288 0.185392 0.867303 -0.220726
C28   C     C_R   0.623499 0.135650 0.869855 -0.084521
C29   C     C_R   0.784182 0.132456 0.824266 -0.220382
C30   C     C_R   0.787751 0.177017 0.775695 0.089827
C31   C     C_R   0.630622 0.226851 0.773752 0.053571
C32   C     C_R   0.470532 0.231431 0.820130 0.088351
C33   C     C_R   0.945018 0.172216 0.728579 -0.185593
C34   C     C_R   0.947853 0.217052 0.680604 -0.185126
C35   C     C_R   0.793523 0.267545 0.678899 0.088470
C36   C     C_R   0.633460 0.272127 0.725298 0.053280
C37   C     C_R   0.476423 0.322037 0.723437 0.089505
C38   C     C_R   0.318995 0.326727 0.770447 -0.185448
C39   C     C_R   0.316062 0.281824 0.818349 -0.185212
C40   C     C_R   0.796944 0.313768 0.631868 -0.220152
C41   C     C_R   0.641097 0.363821 0.629635 -0.082976
C42   C     C_R   0.480294 0.366863 0.675112 -0.220498
H13   H     H_    0.343079 0.188659 0.902392 0.128750
H14   H     H_    0.904591 0.093980 0.825435 0.125204
H15   H     H_    0.066566 0.134098 0.729106 0.133916
H16   H     H_    0.071697 0.212685 0.645177 0.133920
H17   H     H_    0.921035 0.310483 0.596714 0.128631
H18   H     H_    0.360039 0.405470 0.674084 0.125545
H19   H     H_    0.197461 0.364857 0.769930 0.133960
H20   H     H_    0.192143 0.286145 0.853731 0.134309
C43   C     C_R   0.778485 0.244648 0.302756 0.152544
C44   C     C_R   0.769379 0.185060 0.234208 -0.149240
H21   H     H_    0.875694 0.137714 0.220019 0.120243
C45   C     C_R   0.620239 0.183090 0.185307 -0.080489
C46   C     C_R   0.480298 0.243220 0.204721 -0.163342
H22   H     H_    0.362819 0.242929 0.168236 0.124316
C47   C     C_R   0.493892 0.305945 0.270332 -0.184722
H23   H     H_    0.387060 0.352991 0.282042 0.126605
C48   C     C_R   0.643942 0.309120 0.319759 -0.084372
O11   O     O_R   0.774940 0.060470 0.937800 -0.539142
O12   O     O_R   0.440880 0.093730 0.087350 -0.541107
O13   O     O_R   0.266130 0.939630 0.062280 -0.538947
C49   C     C_R   0.609538 0.116659 0.115436 0.694521
O14   O     O_R   0.445480 0.069960 0.939820 -0.543846
O15   O     O_R   0.270770 0.915690 0.913690 -0.540946
C50   C     C_R   0.614793 0.085560 0.918560 0.711282
O16   O     O_R   0.770300 0.084410 0.086380 -0.540926
O17   O     O_3   0.602600 0.949510 0.991670 -0.370495
V3    V     V_3+5 0.329470 0.009370 0.001550 1.401285
O18   O     O_R   0.940760 0.906160 0.912560 -0.544299
C51   C     C_R   0.110052 0.883054 0.884620 0.684726
O19   O     O_R   0.936150 0.929930 0.060100 -0.542645
C52   C     C_R   0.104156 0.914875 0.081811 0.710837
V4    V     V_3+5 0.828930 0.990450 0.998310 1.398264
O20   O     O_3   0.105670 0.050490 0.008320 -0.368158
C53   C     C_3   0.927464 0.233582 0.355805 -0.374149
C54   C     C_3   0.890379 0.156654 0.374689 -0.775243
H24   H     H_    0.741895 0.156785 0.396730 0.230937
H25   H     H_    0.909038 0.102733 0.326394 0.225511
H26   H     H_    0.994678 0.152965 0.416570 0.220132
H27   H     H_    0.073847 0.231389 0.331451 0.184377
H28   H     H_    0.928520 0.282378 0.408045 0.200553

loop_
_geom_bond_atom_site_label_1
_geom_bond_atom_site_label_2
_ccdc_geom_bond_type
C45   C49   S    
C24   H9    S    
C2    C48   S    
C31   C32   A    
C54   H24   S    
C49   O16   A    
C17   H7    S    
C25   C26   A    
C28   C50   S    
C19   C20   A    
C1    O6    A    
C47   H23   S    
O17   V4    S    
C22   H11   S    
C29   C30   A    
C35   C40   A    
C38   C39   A    
C3    C12   S    
C5    C10   A    
C12   C13   A    
C6    C7    A    
C21   C22   A    
C44   C45   A    
C18   C19   A    
C15   C20   A    
O5    C3    A    
C14   C15   A    
C40   H17   S    
O18   V4    S    
V2    O10   S    
C27   C32   A    
C16   C23   A    
C21   C26   A    
C29   H14   S    
O13   C52   A    
O17   V3    S    
O14   V3    S    
O8    V2    S    
C37   C42   A    
C42   H18   S    
C15   C16   A    
O19   V4    S    
C38   H19   S    
C18   H8    S    
O9    C4    A    
O7    V1    S    
V3    O20   S    
C35   C36   A    
C54   H25   S    
C31   C36   A    
O18   C51   A    
O11   C50   A    
C47   C48   A    
C5    H1    S    
C44   H21   S    
O12   C49   A    
C22   C23   A    
C27   C28   A    
C9    H4    S    
O4    C2    A    
C45   C46   A    
C34   H16   S    
C26   H10   S    
C7    C51   S    
C34   C35   A    
C36   C37   A    
O15   C51   A    
O2    C1    A    
C43   C44   A    
C13   C14   A    
O13   V3    S    
O12   V3    S    
O19   C52   A    
C17   C18   A    
C53   H27   S    
C32   C39   A    
C27   H13   S    
C4    C10   S    
O3    C4    A    
O1    V2    S    
C24   C25   A    
O14   C50   A    
C41   C42   A    
O6    V2    S    
O9    V2    S    
C13   H6    S    
C25   C52   S    
O2    V1    S    
C28   C29   A    
C46   C47   A    
C30   C31   A    
C20   C21   A    
C14   C17   A    
C11   C16   A    
O1    C2    A    
C9    C10   A    
O5    V1    S    
O8    C3    A    
C39   H20   S    
C54   H26   S    
C53   H28   S    
O11   V4    S    
C40   C41   A    
C6    H2    S    
C19   C24   A    
O7    V2    S    
O4    V1    S    
O3    V1    S    
V1    O10   S    
C43   C48   A    
C33   C34   A    
C1    C41   S    
C43   C53   S    
C5    C6    A    
C8    C9    A    
O16   V4    S    
O15   V3    S    
C37   C38   A    
C46   H22   S    
C11   H5    S    
C23   H12   S    
V4    O20   S    
C11   C12   A    
C8    H3    S    
C53   C54   S    
C33   H15   S    
C7    C8    A    
C30   C33   A    
