data_mof_unit_43601.cif
_audit_creation_date              2012-12-10T18:43:10-0500
_audit_creation_method            fapswitch 2.2
_symmetry_space_group_name_H-M    P1
_symmetry_Int_Tables_number       1
_space_group_crystal_system       triclinic
_cell_length_a                    10.61065
_cell_length_b                    9.858959
_cell_length_c                    10.7278
_cell_angle_alpha                 90.058487
_cell_angle_beta                  90.207621
_cell_angle_gamma                 89.924018
_cell_volume                      1122.22583042

loop_
_atom_site_label
_atom_site_type_symbol
_atom_type_description
_atom_site_fract_x
_atom_site_fract_y
_atom_site_fract_z
_atom_type_partial_charge
C1    C     C_R   0.260455 0.499950 0.499984 1.086078
C2    C     C_R   0.935593 0.482577 0.384053 0.368554
C3    C     C_R   0.871919 0.498726 0.497386 -0.313920
C4    C     C_R   0.128084 0.499154 0.499555 -0.316753
C5    C     C_R   0.933665 0.510489 0.612309 0.292910
C6    C     C_R   0.065357 0.515755 0.612874 0.278714
C7    C     C_R   0.578513 0.072192 0.577311 -0.211458
C8    C     C_R   0.421676 0.072236 0.422516 -0.211803
C9    C     C_R   0.579100 0.927454 0.577696 0.453009
C10   C     C_R   0.421022 0.927511 0.422180 0.456731
C11   C     C_3   0.157389 0.343575 0.240253 -0.240617
C12   C     C_R   0.739523 0.499765 0.496908 1.066987
C13   C     C_3   0.834331 0.344828 0.244208 -0.270595
C14   C     C_R   0.492862 0.499757 0.262624 0.785452
C15   C     C_R   0.509082 0.499863 0.737184 0.835053
C16   C     C_2   0.502434 0.388621 0.933214 -0.170715
C17   C     C_2   0.511417 0.389847 0.066793 -0.204658
C18   C     C_2   0.536962 0.497952 0.868177 0.409147
C19   C     C_2   0.470317 0.497535 0.130859 0.406217
C20   C     C_R   0.065934 0.482016 0.385502 0.374338
H1    H     H_    0.462333 0.299025 0.889351 0.134141
H2    H     H_    0.835565 0.330587 0.141629 0.193713
H3    H     H_    0.896285 0.265294 0.285928 0.126280
H4    H     H_    0.736369 0.328083 0.275415 0.187706
H5    H     H_    0.913382 0.477551 0.789864 0.352120
H6    H     H_    0.083663 0.591925 0.779309 0.363610
H7    H     H_    0.709085 0.920233 0.705241 0.318064
H8    H     H_    0.291220 0.920424 0.294450 0.313943
H9    H     H_    0.553868 0.302240 0.111894 0.118695
H10   H     H_    0.640843 0.128015 0.638705 0.151910
H11   H     H_    0.359664 0.128059 0.360849 0.133428
H12   H     H_    0.628195 0.669611 0.860546 0.373866
H13   H     H_    0.371453 0.664524 0.136685 0.371200
H14   H     H_    0.086057 0.309574 0.171289 0.186050
H15   H     H_    0.160925 0.270951 0.319914 0.119294
H16   H     H_    0.250297 0.339122 0.193616 0.175996
N1    N     N_R   0.500000 0.857200 0.500000 -0.106233
N2    N     N_R   0.500000 0.142810 0.500000 -0.098839
O1    O     O_R   0.316770 0.614620 0.499990 -0.558365
O2    O     O_3   0.401890 0.599713 0.072833 -0.698580
O3    O     O_3   0.133086 0.479387 0.274986 -0.562087
O4    O     O_3   0.871797 0.479284 0.271206 -0.559802
O5    O     O_3   0.862791 0.515064 0.720223 -0.758644
O6    O     O_3   0.135229 0.538899 0.719887 -0.753551
O7    O     O_3   0.658396 0.855435 0.655247 -0.724703
O8    O     O_3   0.341849 0.855566 0.344484 -0.730299
O9    O     O_R   0.683230 0.614620 0.500010 -0.558094
O10   O     O_R   0.316800 0.385290 0.500000 -0.634291
O11   O     O_R   0.683200 0.385290 0.500000 -0.645498
O12   O     O_R   0.500000 0.614630 0.319080 -0.570291
O13   O     O_R   0.500000 0.614630 0.680920 -0.569997
O14   O     O_R   0.500030 0.385300 0.319080 -0.671320
O15   O     O_R   0.499970 0.385300 0.680920 -0.641743
O16   O     O_3   0.602619 0.603087 0.924785 -0.697728
Zn1   Zn    Zn3+2 0.500000 0.653120 0.500000 1.096429
Zn2   Zn    Zn3+2 0.500000 0.346880 0.500000 0.950947

loop_
_geom_bond_atom_site_label_1
_geom_bond_atom_site_label_2
_ccdc_geom_bond_type
C10   O8    S    
C15   C18   S    
C1    O10   A    
C9    O7    S    
C16   H1    S    
C15   O13   A    
O11   Zn2   S    
C17   H9    S    
C13   O4    S    
O12   Zn1   S    
O10   Zn2   S    
C1    C4    S    
H7    O7    S    
C9    N1    A    
C2    C3    A    
C5    O5    S    
O9    Zn1   S    
H6    O6    S    
C7    H10   S    
C6    O6    S    
H8    O8    S    
C14   O12   A    
C8    N2    A    
C2    O4    S    
C10   N1    A    
C15   O15   A    
C11   H15   S    
H5    O5    S    
C17   C19   D    
C7    N2    A    
C13   H2    S    
C20   O3    S    
O13   Zn1   S    
C12   O11   A    
C12   O9    A    
C5    C6    A    
C8    C10   A    
O1    Zn1   S    
O15   Zn2   S    
H13   O2    S    
C19   O2    S    
C18   O16   S    
C2    C20   A    
N1    Zn1   S    
N2    Zn2   S    
C13   H3    S    
C16   C18   D    
C4    C6    A    
C11   O3    S    
H12   O16   S    
C7    C9    A    
C1    O1    A    
C11   H16   S    
C3    C12   S    
C8    H11   S    
C14   C19   S    
C11   H14   S    
C14   O14   A    
O14   Zn2   S    
C13   H4    S    
C16   C17   S    
C3    C5    A    
C4    C20   A    
