data_mof_unit_14274.cif
_audit_creation_date              2012-12-11T14:40:29-0500
_audit_creation_method            fapswitch 2.2
_symmetry_space_group_name_H-M    P1
_symmetry_Int_Tables_number       1
_space_group_crystal_system       triclinic
_cell_length_a                    19.410069
_cell_length_b                    11.003511
_cell_length_c                    19.415156
_cell_angle_alpha                 89.818878
_cell_angle_beta                  97.370475
_cell_angle_gamma                 90.360246
_cell_volume                      4112.31267848

loop_
_atom_site_label
_atom_site_type_symbol
_atom_type_description
_atom_site_fract_x
_atom_site_fract_y
_atom_site_fract_z
_atom_type_partial_charge
C1    C     C_R   0.726651 0.948469 0.359326 0.542021
C2    C     C_3   0.268299 0.360783 0.561675 0.066103
C3    C     C_3   0.898037 0.942426 0.540070 -0.381193
C4    C     C_3   0.228171 0.838926 0.441250 0.052154
C5    C     C_3   0.768298 0.860783 0.561675 0.066103
C6    C     C_3   0.703219 0.457361 0.470175 0.011071
C7    C     C_3   0.323534 0.403712 0.517355 -0.001052
C8    C     C_3   0.203219 0.957361 0.470175 0.011071
C9    C     C_3   0.823534 0.903712 0.517355 -0.001052
C10   C     C_3   0.775813 0.473748 0.512143 -0.103706
C11   C     C_3   0.272938 0.501220 0.485605 -0.117728
C12   C     C_3   0.275813 0.973748 0.512143 -0.103706
C13   C     C_R   0.272215 0.947099 0.641408 0.542028
C14   C     C_3   0.772938 0.001220 0.485605 -0.117727
C15   C     C_3   0.800116 0.353457 0.483997 -0.113583
C16   C     C_3   0.217555 0.458061 0.531089 -0.120774
C17   C     C_3   0.300116 0.853457 0.483997 -0.113583
C18   C     C_3   0.717555 0.958062 0.531089 -0.120774
C19   C     C_3   0.773838 0.282172 0.543942 -0.138480
C20   C     C_3   0.188840 0.367411 0.474422 -0.111056
C21   C     C_3   0.273838 0.782172 0.543942 -0.138481
C22   C     C_3   0.688840 0.867411 0.474422 -0.111055
C23   C     C_3   0.749911 0.401972 0.571871 0.048205
C24   C     C_R   0.226651 0.448469 0.359326 0.542021
C25   C     C_3   0.244801 0.409269 0.430019 0.050451
C26   C     C_3   0.249911 0.901972 0.571871 0.048205
C27   C     C_3   0.744801 0.909269 0.430019 0.050451
C28   C     C_3   0.451676 0.283134 0.985355 -0.113299
C29   C     C_3   0.422967 0.198255 0.038668 -0.137007
C30   C     C_3   0.951656 0.783121 0.985358 -0.113314
C31   C     C_3   0.922963 0.698216 0.038669 -0.137013
C32   C     C_3   0.526702 0.255138 0.016929 -0.103663
C33   C     C_3   0.425614 0.088883 0.988709 -0.134479
C34   C     C_3   0.026687 0.755166 0.016932 -0.103659
C35   C     C_R   0.772215 0.447099 0.641408 0.542028
C36   C     C_3   0.925631 0.588856 0.988705 -0.134464
C37   C     C_3   0.497714 0.170379 0.069468 0.050170
C38   C     C_3   0.455126 0.174190 0.936994 0.045299
C39   C     C_3   0.997715 0.670380 0.069467 0.050170
C40   C     C_3   0.955127 0.674189 0.936993 0.045301
C41   C     C_R   0.535776 0.179823 0.338401 0.535285
C42   C     C_R   0.466270 0.179816 0.663158 0.544114
C43   C     C_R   0.035776 0.679823 0.338401 0.535285
C44   C     C_R   0.966270 0.679816 0.663158 0.544114
C45   C     C_3   0.501038 0.061071 0.021233 -0.109584
C46   C     C_3   0.701295 0.266888 0.500437 -0.163555
C47   C     C_3   0.529740 0.146185 0.968153 -0.102005
C48   C     C_3   0.001060 0.561083 0.021229 -0.109587
C49   C     C_3   0.029746 0.646224 0.968152 -0.102008
C50   C     C_1   0.756052 0.407936 0.899113 -0.007606
C51   C     C_1   0.243391 0.409397 0.100596 -0.007109
C52   C     C_1   0.256052 0.907935 0.899113 -0.007607
C53   C     C_1   0.743391 0.909397 0.100596 -0.007105
C54   C     C_1   0.732496 0.356424 0.025130 -0.049074
C55   C     C_1   0.266409 0.358580 0.974549 -0.047398
C56   C     C_1   0.232496 0.856423 0.025130 -0.049072
C57   C     C_3   0.239948 0.270197 0.505809 -0.159128
C58   C     C_1   0.766409 0.858579 0.974549 -0.047402
C59   C     C_1   0.743048 0.381167 0.956138 -0.042182
C60   C     C_1   0.255984 0.383304 0.043466 -0.046470
C61   C     C_1   0.243047 0.881165 0.956138 -0.042186
C62   C     C_1   0.755984 0.883303 0.043467 -0.046464
C63   C     C_1   0.726454 0.336518 0.084993 -0.014504
C64   C     C_1   0.272704 0.338081 0.914899 -0.015269
C65   C     C_1   0.226453 0.836517 0.084993 -0.014500
C66   C     C_1   0.772704 0.838081 0.914899 -0.015275
C67   C     C_R   0.723402 0.307919 0.367455 0.565099
C68   C     C_3   0.201295 0.766888 0.500437 -0.163555
C69   C     C_R   0.274931 0.315736 0.631911 0.562018
C70   C     C_R   0.223402 0.807919 0.367455 0.565100
C71   C     C_R   0.774931 0.815736 0.631911 0.562018
C72   C     C_R   0.723041 0.950697 0.164651 0.541935
C73   C     C_R   0.276907 0.950541 0.835306 0.530091
C74   C     C_R   0.223041 0.450697 0.164651 0.541935
C75   C     C_R   0.776908 0.450541 0.835306 0.530091
C76   C     C_R   0.529586 0.178695 0.141130 0.540900
C77   C     C_R   0.435585 0.182366 0.862492 0.536034
C78   C     C_R   0.029585 0.678695 0.141130 0.540900
C79   C     C_3   0.739948 0.770197 0.505809 -0.159128
C80   C     C_R   0.935585 0.682366 0.862492 0.536033
C81   C     C_R   0.721592 0.309532 0.156282 0.565168
C82   C     C_R   0.278059 0.309949 0.843972 0.541616
C83   C     C_R   0.221592 0.809532 0.156282 0.565169
C84   C     C_R   0.778059 0.809949 0.843972 0.541616
C85   C     C_1   0.490869 0.169754 0.597351 -0.025650
C86   C     C_1   0.516732 0.171119 0.406693 -0.014528
C87   C     C_1   0.990869 0.669754 0.597351 -0.025650
C88   C     C_1   0.016732 0.671119 0.406693 -0.014528
C89   C     C_1   0.508693 0.166332 0.466901 -0.061573
C90   C     C_3   0.728171 0.338926 0.441250 0.052154
C91   C     C_1   0.501755 0.165286 0.537937 -0.066730
C92   C     C_1   0.008693 0.666332 0.466901 -0.061573
C93   C     C_1   0.001755 0.665287 0.537937 -0.066730
C94   C     C_3   0.677223 0.387288 0.530731 -0.108960
C95   C     C_3   0.295981 0.312390 0.460390 -0.131261
C96   C     C_3   0.177223 0.887288 0.530732 -0.108960
C97   C     C_3   0.795981 0.812390 0.460390 -0.131262
C98   C     C_3   0.655550 0.548754 0.428288 -0.375439
C99   C     C_3   0.398037 0.442427 0.540071 -0.381193
C100  C     C_3   0.155550 0.048753 0.428288 -0.375439
Cr1   Cr    Cr6+3 0.765830 0.160660 0.268180 1.015429
Cr2   Cr    Cr6+3 0.384070 0.324050 0.751550 1.017402
Cr3   Cr    Cr6+3 0.115930 0.824050 0.248450 1.014402
Cr4   Cr    Cr6+3 0.884070 0.824050 0.751550 1.017403
Cr5   Cr    Cr6+3 0.234170 0.160660 0.731820 1.016880
Cr6   Cr    Cr6+3 0.265830 0.660660 0.268180 1.015428
Cr7   Cr    Cr6+3 0.734170 0.660660 0.731820 1.016880
Cr8   Cr    Cr6+3 0.612110 0.009150 0.248770 1.016834
Cr9   Cr    Cr6+3 0.387890 0.009150 0.751230 1.025050
Cr10  Cr    Cr6+3 0.112110 0.509150 0.248770 1.016835
Cr11  Cr    Cr6+3 0.887890 0.509150 0.751230 1.025049
Cr12  Cr    Cr6+3 0.615930 0.324050 0.248450 1.014403
H1    H     H_    0.668111 0.184805 0.491967 0.109706
H2    H     H_    0.790126 0.092534 0.471249 0.128330
H3    H     H_    0.810950 0.553991 0.517716 0.101986
H4    H     H_    0.290126 0.592534 0.471249 0.128330
H5    H     H_    0.851327 0.339711 0.465523 0.137440
H6    H     H_    0.186746 0.514921 0.562850 0.126286
H7    H     H_    0.351327 0.839711 0.465523 0.137440
H8    H     H_    0.686746 0.014922 0.562850 0.126286
H9    H     H_    0.802832 0.211643 0.576654 0.128596
H10   H     H_    0.133156 0.350838 0.455443 0.135020
H11   H     H_    0.302832 0.711643 0.576654 0.128596
H12   H     H_    0.224372 0.181540 0.524421 0.127326
H13   H     H_    0.633156 0.850838 0.455443 0.135020
H14   H     H_    0.568601 0.323847 0.029180 0.131986
H15   H     H_    0.383737 0.020828 0.975060 0.124946
H16   H     H_    0.068574 0.823896 0.029185 0.131998
H17   H     H_    0.883766 0.520780 0.975052 0.124956
H18   H     H_    0.431349 0.374367 0.969236 0.134607
H19   H     H_    0.380126 0.218628 0.069503 0.125938
H20   H     H_    0.931312 0.874345 0.969241 0.134600
H21   H     H_    0.880118 0.718557 0.069503 0.125937
H22   H     H_    0.521486 0.969996 0.037510 0.137592
H23   H     H_    0.168111 0.684805 0.491967 0.109706
H24   H     H_    0.573071 0.125434 0.937958 0.134365
H25   H     H_    0.021527 0.470020 0.037503 0.137595
H26   H     H_    0.073081 0.625507 0.937956 0.134364
H27   H     H_    0.631062 0.609690 0.463276 0.108371
H28   H     H_    0.685186 0.602306 0.393346 0.156759
H29   H     H_    0.611898 0.500332 0.397292 0.168831
H30   H     H_    0.421138 0.479533 0.494932 0.124591
H31   H     H_    0.399640 0.513203 0.580862 0.146067
H32   H     H_    0.428367 0.364297 0.560646 0.159906
H33   H     H_    0.131063 0.109692 0.463275 0.108371
H34   H     H_    0.724372 0.681540 0.524421 0.127326
H35   H     H_    0.185185 0.102304 0.393345 0.156760
H36   H     H_    0.111897 0.000330 0.397293 0.168830
H37   H     H_    0.921138 0.979529 0.494931 0.124592
H38   H     H_    0.899640 0.013205 0.580860 0.146066
H39   H     H_    0.928366 0.864296 0.560647 0.159907
H40   H     H_    0.627337 0.401400 0.551795 0.119301
H41   H     H_    0.327078 0.252623 0.430451 0.115544
H42   H     H_    0.127337 0.901399 0.551796 0.119301
H43   H     H_    0.827078 0.752623 0.430451 0.115544
H44   H     H_    0.310951 0.053991 0.517716 0.101986
O1    O     O_R   0.783230 0.287800 0.346510 -0.515839
O2    O     O_R   0.454570 0.285140 0.836900 -0.510976
O3    O     O_R   0.045430 0.785140 0.163100 -0.520822
O4    O     O_R   0.954570 0.785140 0.836900 -0.510973
O5    O     O_R   0.677850 0.374730 0.185500 -0.482411
O6    O     O_R   0.322150 0.374730 0.814500 -0.494300
O7    O     O_R   0.177850 0.874730 0.185500 -0.482412
O8    O     O_R   0.822150 0.874730 0.814500 -0.494300
O9    O     O_3   0.664630 0.164620 0.255130 -0.297261
O10   O     O_3   0.335370 0.164620 0.744870 -0.315586
O11   O     O_3   0.164630 0.664620 0.255130 -0.297261
O12   O     O_R   0.216770 0.287800 0.653490 -0.507049
O13   O     O_3   0.835370 0.664620 0.744870 -0.315587
O14   O     O_R   0.760130 0.037060 0.338610 -0.524254
O15   O     O_R   0.239870 0.037060 0.661390 -0.521570
O16   O     O_R   0.260130 0.537060 0.338610 -0.524254
O17   O     O_R   0.739870 0.537060 0.661390 -0.521570
O18   O     O_R   0.666620 0.921370 0.332440 -0.518674
O19   O     O_R   0.333380 0.921370 0.667560 -0.508031
O20   O     O_R   0.166620 0.421370 0.332440 -0.518673
O21   O     O_R   0.833380 0.421370 0.667560 -0.508031
O22   O     O_R   0.557170 0.082420 0.312350 -0.493226
O23   O     O_R   0.283230 0.787800 0.346510 -0.515839
O24   O     O_R   0.442830 0.082420 0.687650 -0.482175
O25   O     O_R   0.057170 0.582420 0.312350 -0.493226
O26   O     O_R   0.942830 0.582420 0.687650 -0.482175
O27   O     O_R   0.548310 0.285980 0.316250 -0.523891
O28   O     O_R   0.451690 0.285980 0.683750 -0.522636
O29   O     O_R   0.048310 0.785980 0.316250 -0.523891
O30   O     O_R   0.951690 0.785980 0.683750 -0.522636
O31   O     O_R   0.680520 0.375500 0.327470 -0.496590
O32   O     O_R   0.319480 0.375500 0.672530 -0.491523
O33   O     O_R   0.180520 0.875500 0.327470 -0.496590
O34   O     O_R   0.716770 0.787800 0.653490 -0.507049
O35   O     O_R   0.819480 0.875500 0.672530 -0.491522
O36   O     O_R   0.780350 0.286970 0.193350 -0.493518
O37   O     O_R   0.219650 0.286970 0.806650 -0.485381
O38   O     O_R   0.280350 0.786970 0.193350 -0.493519
O39   O     O_R   0.719650 0.786970 0.806650 -0.485380
O40   O     O_R   0.757460 0.036290 0.196640 -0.511387
O41   O     O_R   0.242540 0.036290 0.803360 -0.512607
O42   O     O_R   0.257460 0.536290 0.196640 -0.511387
O43   O     O_R   0.742540 0.536290 0.803360 -0.512606
O44   O     O_R   0.663740 0.920540 0.179290 -0.504383
O45   O     O_R   0.554500 0.081650 0.170370 -0.501341
O46   O     O_R   0.336260 0.920540 0.820710 -0.510548
O47   O     O_R   0.163740 0.420540 0.179290 -0.504385
O48   O     O_R   0.836260 0.420540 0.820710 -0.510552
O49   O     O_R   0.445500 0.081650 0.829630 -0.489235
O50   O     O_R   0.054500 0.581650 0.170370 -0.501341
O51   O     O_R   0.945500 0.581650 0.829630 -0.489235
O52   O     O_R   0.545430 0.285140 0.163100 -0.520820

loop_
_geom_bond_atom_site_label_1
_geom_bond_atom_site_label_2
_ccdc_geom_bond_type
C35   O21   A    
C21   C26   S    
C58   C62   S    
C56   C61   S    
C44   O26   A    
C47   H24   S    
C34   C49   S    
C33   C45   S    
C14   C18   S    
C99   H30   S    
C19   C23   S    
C2    C7    S    
Cr3   O29   S    
C51   C74   S    
C4    C8    S    
Cr1   O36   S    
Cr2   O2    S    
Cr12  O31   S    
C4    C70   S    
C85   C91   T    
C19   C46   S    
Cr6   O38   S    
C15   C19   S    
C41   C86   S    
C55   C60   S    
C45   H22   S    
C68   C96   S    
C7    C99   S    
C48   H25   S    
C63   C81   S    
C43   C88   S    
C6    C98   S    
C99   H31   S    
C28   C29   S    
Cr4   O4    S    
C22   C79   S    
C77   O49   A    
C52   C61   T    
C30   C31   S    
C71   O35   A    
C70   O23   A    
C80   O4    A    
C54   C63   T    
C11   C25   S    
C100  H35   S    
C94   H40   S    
C40   C49   S    
C29   C33   S    
C1    O14   A    
C33   H15   S    
Cr5   O10   S    
Cr10  O11   S    
C32   H14   S    
C74   O47   A    
C82   O37   A    
C8    C96   S    
C18   H8    S    
C58   C66   T    
C27   C97   S    
C88   C92   T    
Cr10  O25   S    
C42   O24   A    
C6    C94   S    
Cr8   O18   S    
C12   C17   S    
C40   C80   S    
Cr3   O33   S    
C14   C27   S    
C89   C91   S    
C2    C69   S    
C2    C16   S    
C20   H10   S    
C84   O8    A    
Cr1   O40   S    
C31   H21   S    
C77   O2    A    
Cr6   O42   S    
C73   O41   A    
Cr5   O41   S    
C19   H9    S    
Cr1   O1    S    
Cr2   O10   S    
C49   H26   S    
C81   O5    A    
C12   H44   S    
Cr7   O39   S    
C67   O31   A    
Cr11  O26   S    
C79   H34   S    
C54   C59   S    
C45   C47   S    
C26   C96   S    
C96   H42   S    
C1    O18   A    
C3    H37   S    
C32   C37   S    
C30   C34   S    
Cr8   O22   S    
C34   C39   S    
C35   O17   A    
C39   C78   S    
C74   O42   A    
C99   H32   S    
C28   C32   S    
C24   C25   S    
Cr12  O52   S    
C67   O1    A    
C52   C73   S    
C4    C68   S    
C43   O29   A    
C76   O45   A    
C22   H13   S    
C5    C18   S    
C82   O6    A    
C42   O28   A    
C72   O40   A    
C6    C90   S    
Cr4   O35   S    
C43   O25   A    
C67   C90   S    
Cr2   O32   S    
C15   H5    S    
C12   C26   S    
Cr10  O47   S    
C95   H41   S    
C65   C83   S    
Cr8   O44   S    
C7    C11   S    
C9    C14   S    
C78   O50   A    
C81   O36   A    
C5    C9    S    
Cr8   O45   S    
C3    C9    S    
C16   H6    S    
C72   O44   A    
C53   C62   T    
C41   O22   A    
C46   C94   S    
C28   C38   S    
C100  H33   S    
C8    C12   S    
C55   C64   T    
Cr3   O7    S    
C30   C40   S    
Cr1   O14   S    
Cr10  O50   S    
C42   C85   S    
C16   C20   S    
Cr3   O11   S    
Cr9   O49   S    
C11   H4    S    
C69   O32   A    
C64   C82   S    
C38   C47   S    
C4    C17   S    
C34   H16   S    
C48   C49   S    
C37   C76   S    
C25   C95   S    
C75   O43   A    
C22   C27   S    
C21   C68   S    
C57   C95   S    
C32   C47   S    
C13   C26   S    
C5    C79   S    
C50   C59   T    
C37   C45   S    
C44   C87   S    
Cr11  O51   S    
Cr6   O23   S    
C36   C40   S    
C7    C95   S    
Cr2   O6    S    
Cr11  O21   S    
Cr8   O9    S    
Cr7   O13   S    
C2    C57   S    
C56   C65   T    
C13   O19   A    
C83   O7    A    
Cr12  O27   S    
Cr9   O46   S    
C3    H38   S    
C9    C97   S    
Cr5   O15   S    
C46   H1    S    
C18   C22   S    
Cr6   O16   S    
C79   C97   S    
C68   H23   S    
C39   C48   S    
C86   C89   T    
Cr11  O48   S    
C6    C10   S    
Cr7   O17   S    
C75   O48   A    
Cr9   O19   S    
C46   C90   S    
C38   C77   S    
Cr10  O20   S    
C10   C23   S    
Cr4   O30   S    
C73   O46   A    
C3    H39   S    
C33   C38   S    
Cr5   O12   S    
C98   H27   S    
C10   C15   S    
Cr2   O28   S    
Cr6   O11   S    
C83   O38   A    
C8    C100  S    
C69   O12   A    
C98   H29   S    
C14   H2    S    
C50   C75   S    
Cr1   O9    S    
C15   C90   S    
Cr7   O43   S    
Cr5   O37   S    
Cr9   O24   S    
Cr3   O3    S    
Cr4   O8    S    
C29   H19   S    
C100  H36   S    
C30   H20   S    
Cr12  O9    S    
C87   C93   T    
Cr7   O34   S    
C92   C93   S    
C31   C39   S    
C36   C48   S    
C28   H18   S    
C97   H43   S    
C71   O34   A    
C24   O16   A    
C23   C35   S    
C17   C21   S    
C11   C16   S    
Cr12  O5    S    
Cr9   O10   S    
C17   H7    S    
C66   C84   S    
C23   C94   S    
C78   O3    A    
C13   O15   A    
C80   O51   A    
C5    C71   S    
C20   C25   S    
C29   C37   S    
C1    C27   S    
C98   H28   S    
C31   C36   S    
C41   O27   A    
C51   C60   T    
C84   O39   A    
Cr11  O13   S    
C20   C57   S    
C36   H17   S    
C53   C72   S    
C21   H11   S    
C10   H3    S    
C76   O52   A    
C70   O33   A    
C44   O30   A    
Cr4   O13   S    
C57   H12   S    
C24   O20   A    
