data_mof_unit_30930.cif
_audit_creation_date              2012-12-11T14:08:01-0500
_audit_creation_method            fapswitch 2.2
_symmetry_space_group_name_H-M    P1
_symmetry_Int_Tables_number       1
_space_group_crystal_system       triclinic
_cell_length_a                    10.912187
_cell_length_b                    10.952593
_cell_length_c                    18.671843
_cell_angle_alpha                 90.212721
_cell_angle_beta                  89.791036
_cell_angle_gamma                 60.106067
_cell_volume                      1934.63048093

loop_
_atom_site_label
_atom_site_type_symbol
_atom_type_description
_atom_site_fract_x
_atom_site_fract_y
_atom_site_fract_z
_atom_type_partial_charge
C1    C     C_R   0.233596 0.646597 0.607769 0.594457
C2    C     C_2   0.785650 0.150479 0.705027 -0.142616
C3    C     C_2   0.164165 0.668019 0.676955 0.291600
C4    C     C_R   0.629925 0.592114 0.609605 0.537454
C5    C     C_2   0.195854 0.661682 0.838890 0.272201
C6    C     C_2   0.181262 0.568494 0.798110 -0.111193
C7    C     C_2   0.211728 0.555535 0.721230 -0.128734
C8    C     C_2   0.657800 0.646160 0.318314 0.253320
C9    C     C_2   0.625278 0.665669 0.156643 -0.149901
C10   C     C_2   0.690146 0.546966 0.194838 0.193062
C11   C     C_2   0.655371 0.551334 0.271180 0.248679
C12   C     C_3   0.688399 0.524844 0.809166 0.040774
C13   C     C_2   0.665643 0.142870 0.330719 -0.052592
C14   C     C_2   0.714965 0.015866 0.187359 0.214407
C15   C     C_2   0.597202 0.055849 0.225568 -0.068680
C16   C     C_R   0.628943 0.226396 0.601532 0.548879
C17   C     C_2   0.589984 0.087992 0.302201 -0.064721
C18   C     C_2   0.313044 0.597424 0.319153 -0.017735
C19   C     C_2   0.168890 0.656290 0.180158 0.258014
C20   C     C_2   0.257062 0.702470 0.201306 -0.101421
C21   C     C_2   0.294650 0.701644 0.276244 -0.121731
C22   C     C_R   0.704068 0.101049 0.897017 0.585877
C23   C     C_3   0.689002 0.666228 0.816508 0.015400
C24   C     C_R   0.720550 0.686129 0.890028 0.542124
C25   C     C_R   0.119657 0.706021 0.907483 0.540898
C26   C     C_R   0.708454 0.028220 0.109020 0.568133
C27   C     C_R   0.690690 0.688059 0.093837 0.530248
C28   C     C_R   0.303475 0.613577 0.395911 0.596862
C29   C     C_R   0.095864 0.707699 0.112593 0.534754
C30   C     C_R   0.643721 0.623101 0.393682 0.656022
C31   C     C_R   0.619642 0.224146 0.396470 0.558889
C32   C     C_3   0.543142 0.790490 0.791024 0.173410
C33   C     C_3   0.511964 0.758024 0.714982 0.165503
C34   C     C_3   0.648587 0.626584 0.683260 0.002029
C35   C     C_3   0.810267 0.657448 0.768671 -0.209610
C36   C     C_3   0.782617 0.643470 0.689570 0.081312
C37   C     C_3   0.675307 0.497601 0.729350 -0.257003
C38   C     C_2   0.677604 0.152906 0.669631 -0.108639
C39   C     C_2   0.692422 0.161863 0.826067 -0.027199
C40   C     C_2   0.806084 0.120964 0.782802 0.192624
Cr1   Cr    Cr6+3 0.393010 0.398050 0.501480 1.042053
Cr2   Cr    Cr6+3 0.398820 0.707980 0.501630 1.077326
Cr3   Cr    Cr6+3 0.708140 0.393940 0.496850 1.056562
Cr4   Cr    Cr6+3 0.937950 0.938450 0.008940 1.060426
Cr5   Cr    Cr6+3 0.626180 0.937030 0.994750 1.050666
Cr6   Cr    Cr6+3 0.937790 0.625760 0.001410 1.030673
H1    H     H_    0.775734 0.404441 0.711619 0.099924
H2    H     H_    0.858247 0.175168 0.677379 0.151811
H3    H     H_    0.586363 0.222642 0.804603 0.081491
H4    H     H_    0.610842 0.118614 0.695654 0.117833
H5    H     H_    0.140384 0.504252 0.820159 0.108171
H6    H     H_    0.284309 0.449827 0.701739 0.119548
H7    H     H_    0.255200 0.801794 0.845420 0.344292
H8    H     H_    0.460474 0.796312 0.827710 0.190038
H9    H     H_    0.006497 0.800220 0.736515 0.342423
H10   H     H_    0.768463 0.415970 0.114849 0.340019
H11   H     H_    0.619855 0.396006 0.255610 0.330607
H12   H     H_    0.877827 0.546580 0.668954 0.151170
H13   H     H_    0.749099 0.720761 0.256390 0.337031
H14   H     H_    0.502674 0.090977 0.331849 0.159410
H15   H     H_    0.914347 0.960578 0.190795 0.355479
H16   H     H_    0.747422 0.149572 0.300947 0.183605
H17   H     H_    0.430368 0.726094 0.719710 0.199778
H18   H     H_    0.292032 0.795482 0.297377 0.144455
H19   H     H_    0.053327 0.571120 0.204048 0.356091
H20   H     H_    0.330773 0.497772 0.297341 0.168122
H21   H     H_    0.523503 0.901958 0.656859 0.379343
H22   H     H_    0.787447 0.731250 0.600135 0.356801
H23   H     H_    0.535845 0.758550 0.180216 0.082782
H24   H     H_    0.790151 0.435543 0.828932 0.157946
H25   H     H_    0.605364 0.509746 0.898665 0.326977
H26   H     H_    0.589520 0.471710 0.721567 0.153259
H27   H     H_    0.498095 0.082935 0.199485 0.115157
H28   H     H_    0.280891 0.766142 0.165578 0.103400
H29   H     H_    0.825986 0.749110 0.777775 0.153045
H30   H     H_    0.606938 0.923532 0.763634 0.341851
H31   H     H_    0.911659 0.562975 0.783731 0.091657
H32   H     H_    0.009201 0.035713 0.771814 0.362992
O1    O     O_R   0.507110 0.256280 0.580300 -0.506211
O2    O     O_R   0.837080 0.593860 0.915300 -0.541970
O3    O     O_R   0.064770 0.636080 0.932550 -0.524561
O4    O     O_R   0.280830 0.527190 0.577940 -0.540938
O5    O     O_R   0.068250 0.829200 0.092940 -0.556460
O6    O     O_R   0.799650 0.057040 0.080330 -0.506510
O7    O     O_R   0.586130 0.079760 0.077080 -0.531096
O8    O     O_R   0.627700 0.809630 0.066580 -0.525445
O9    O     O_R   0.816140 0.597180 0.075920 -0.485001
O10   O     O_R   0.045360 0.639170 0.081440 -0.499067
O11   O     O_3   0.833980 0.833750 0.001700 -0.291539
O12   O     O_R   0.524640 0.695370 0.425100 -0.528743
O13   O     O_R   0.261360 0.738990 0.584270 -0.456703
O14   O     O_R   0.532590 0.694780 0.574370 -0.453191
O15   O     O_R   0.744470 0.503750 0.577000 -0.540176
O16   O     O_R   0.698520 0.277230 0.571620 -0.512062
O17   O     O_R   0.498530 0.256920 0.419280 -0.528310
O18   O     O_R   0.272880 0.527780 0.428680 -0.479052
O19   O     O_R   0.252780 0.739630 0.423250 -0.499969
O20   O     O_3   0.534357 0.923388 0.795439 -0.660431
O21   O     O_3   0.940843 0.052794 0.811002 -0.657639
O22   O     O_3   0.260739 0.731404 0.810288 -0.682746
O23   O     O_R   0.735890 0.504390 0.415980 -0.469828
O24   O     O_3   0.064363 0.803937 0.696538 -0.652327
O25   O     O_3   0.790003 0.418480 0.166208 -0.659506
O26   O     O_3   0.627480 0.449232 0.296810 -0.724441
O27   O     O_3   0.691873 0.748345 0.300878 -0.725515
O28   O     O_3   0.843086 0.958710 0.222649 -0.700147
O29   O     O_3   0.129385 0.582677 0.226140 -0.696947
O30   O     O_3   0.450161 0.879574 0.671859 -0.634555
O31   O     O_3   0.768901 0.759783 0.651305 -0.726407
O32   O     O_3   0.575404 0.529273 0.847900 -0.714647
O33   O     O_R   0.690560 0.277820 0.422350 -0.453530
O34   O     O_3   0.499990 0.499990 0.499980 -0.322024
O35   O     O_R   0.089190 0.825870 0.932320 -0.487653
O36   O     O_R   0.819070 0.053960 0.931440 -0.435750
O37   O     O_R   0.607070 0.076440 0.916460 -0.489050
O38   O     O_R   0.647110 0.806550 0.917690 -0.459225

loop_
_geom_bond_atom_site_label_1
_geom_bond_atom_site_label_2
_ccdc_geom_bond_type
C28   O19   A    
C18   C21   D    
C35   C36   S    
C30   O12   A    
Cr4   O5    S    
C8    O27   S    
C40   O21   S    
C12   O32   S    
Cr6   O11   S    
C12   C23   S    
C35   H29   S    
H13   O27   S    
C10   O25   S    
C9    H23   S    
C7    H6    S    
C29   O5    A    
C3    C7    D    
C26   O7    A    
C5    C6    D    
H21   O30   S    
Cr1   O18   S    
Cr1   O4    S    
H30   O20   S    
C34   C37   S    
H25   O32   S    
Cr3   O16   S    
Cr2   O13   S    
C12   C37   S    
Cr2   O34   S    
C21   H18   S    
C24   O2    A    
C13   H16   S    
C19   C20   D    
C29   O10   A    
Cr1   O34   S    
C23   C24   S    
C11   O26   S    
C6    H5    S    
C37   H1    S    
Cr5   O11   S    
C9    C10   D    
Cr2   O14   S    
Cr4   O36   S    
C1    O13   A    
C25   O3    A    
C33   O30   S    
Cr3   O33   S    
C32   H8    S    
Cr6   O10   S    
H7    O22   S    
C4    C34   S    
C18   C28   S    
Cr2   O19   S    
C39   C40   D    
C2    H2    S    
C1    O4    A    
C35   H31   S    
C1    C3    S    
C27   O8    A    
Cr5   O7    S    
Cr3   O23   S    
C25   O35   A    
Cr6   O3    S    
C2    C38   D    
H9    O24   S    
C5    O22   S    
C14   O28   S    
C33   H17   S    
C33   C34   S    
C20   H28   S    
C14   C26   S    
C27   O9    A    
H15   O28   S    
C5    C25   S    
C3    O24   S    
C22   O37   A    
C39   H3    S    
Cr4   O35   S    
C24   O38   A    
C23   C35   S    
Cr3   O34   S    
C19   C29   S    
H32   O21   S    
C9    C27   S    
Cr6   O9    S    
C15   C17   S    
H11   O26   S    
C12   H24   S    
C26   O6    A    
C15   H27   S    
C16   O16   A    
C13   C31   S    
H10   O25   S    
Cr5   O37   S    
Cr4   O6    S    
Cr1   O1    S    
C6    C7    S    
C38   H4    S    
C18   H20   S    
C36   H12   S    
C13   C17   D    
C28   O18   A    
C16   O1    A    
C8    C30   S    
C32   C33   S    
Cr5   O8    S    
C23   C32   S    
Cr6   O2    S    
Cr5   O38   S    
Cr1   O17   S    
C8    C11   D    
C31   O17   A    
C22   C39   S    
C30   O23   A    
Cr3   O15   S    
C32   O20   S    
C34   C36   S    
H22   O31   S    
C10   C11   S    
C17   H14   S    
C4    O15   A    
C2    C40   S    
C22   O36   A    
C20   C21   S    
C37   H26   S    
C36   O31   S    
C31   O33   A    
C14   C15   D    
Cr2   O12   S    
H19   O29   S    
Cr4   O11   S    
C16   C38   S    
C4    O14   A    
C19   O29   S    
