data_mof_unit_59284.cif
_audit_creation_date              2012-12-11T15:10:41-0500
_audit_creation_method            fapswitch 2.2
_symmetry_space_group_name_H-M    P1
_symmetry_Int_Tables_number       1
_space_group_crystal_system       triclinic
_cell_length_a                    21.160042
_cell_length_b                    7.229044
_cell_length_c                    18.342182
_cell_angle_alpha                 89.589577
_cell_angle_beta                  93.112517
_cell_angle_gamma                 89.355061
_cell_volume                      2801.34490032

loop_
_atom_site_label
_atom_site_type_symbol
_atom_type_description
_atom_site_fract_x
_atom_site_fract_y
_atom_site_fract_z
_atom_type_partial_charge
O1    O     O_R   0.448880 0.506250 0.415280 -0.518910
O2    O     O_R   0.551120 0.006250 0.584720 -0.527967
O3    O     O_R   0.434830 0.174000 0.557310 -0.518494
O4    O     O_R   0.565170 0.674000 0.442690 -0.511083
C1    C     C_R   0.417303 0.344644 0.580056 0.719414
C2    C     C_R   0.582728 0.844370 0.419890 0.723044
O5    O     O_R   0.441680 0.176440 0.414130 -0.526044
O6    O     O_R   0.558320 0.676440 0.585870 -0.518992
O7    O     O_R   0.558020 0.007570 0.440520 -0.516850
O8    O     O_R   0.441980 0.507570 0.559480 -0.507986
C3    C     C_R   0.425405 0.347251 0.390662 0.742866
C4    C     C_R   0.574473 0.843944 0.609688 0.744258
O9    O     O_3   0.538160 0.339670 0.508820 -0.359045
O10   O     O_3   0.461840 0.839670 0.491180 -0.353332
V1    V     V_3+5 0.492920 0.064260 0.498360 1.552190
V2    V     V_3+5 0.507080 0.564260 0.501640 1.568940
C5    C     C_R   0.880996 0.954917 0.688418 -0.093021
C6    C     C_R   0.116143 0.417309 0.311640 -0.094719
H1    H     H_    0.966747 0.992831 0.753709 0.118280
H2    H     H_    0.029703 0.438123 0.245764 0.117891
H3    H     H_    0.906423 0.967771 0.639235 0.165012
H4    H     H_    0.090155 0.420705 0.360638 0.165382
C7    C     C_R   0.887733 0.945040 0.820226 -0.040383
C8    C     C_R   0.110925 0.433393 0.180055 -0.038389
C9    C     C_R   0.582865 0.866803 0.743731 0.130357
C10   C     C_R   0.414961 0.323243 0.256877 0.132681
C11   C     C_R   0.616414 0.895662 0.809784 -0.115301
C12   C     C_R   0.379892 0.312718 0.190887 -0.115271
C13   C     C_R   0.681880 0.910435 0.813122 -0.166981
C14   C     C_R   0.314628 0.336472 0.187624 -0.167638
C15   C     C_R   0.716786 0.890027 0.750184 0.061738
C16   C     C_R   0.281884 0.377847 0.250646 0.061997
C17   C     C_R   0.683008 0.852278 0.682001 -0.031976
C18   C     C_R   0.317603 0.394966 0.318993 -0.032017
C19   C     C_R   0.784297 0.908523 0.753190 0.056433
C20   C     C_R   0.214444 0.401131 0.247460 0.056126
C21   C     C_R   0.815597 0.918250 0.686625 0.044752
C22   C     C_R   0.182829 0.409136 0.313830 0.045534
C23   C     C_R   0.782056 0.879998 0.620031 0.147369
C24   C     C_R   0.218222 0.420442 0.380819 0.144326
C25   C     C_R   0.718976 0.821431 0.620153 0.063990
C26   C     C_R   0.284054 0.442422 0.381276 0.061335
C27   C     C_R   0.822009 0.917764 0.819999 -0.185411
C28   C     C_R   0.177130 0.416821 0.180577 -0.186235
C29   C     C_R   0.916310 0.968741 0.754281 -0.163547
C30   C     C_R   0.080862 0.429123 0.245625 -0.165085
C31   C     C_R   0.614815 0.848322 0.678778 -0.100888
C32   C     C_R   0.384956 0.360744 0.321923 -0.100870
H5    H     H_    0.802102 0.899004 0.872405 0.093535
H6    H     H_    0.198081 0.421899 0.128311 0.093127
H7    H     H_    0.703795 0.942962 0.865803 0.120829
H8    H     H_    0.290795 0.316425 0.134908 0.120703
H9    H     H_    0.591230 0.911966 0.859213 0.151933
H10   H     H_    0.403400 0.281414 0.141389 0.151751
C33   C     C_1   0.864509 0.939675 0.132180 -0.197424
C34   C     C_1   0.135409 0.438260 0.867847 -0.196838
C35   C     C_1   0.821662 0.925573 0.175932 0.016230
C36   C     C_1   0.178270 0.424285 0.824081 0.016261
C37   C     C_1   0.771084 0.906146 0.227997 0.028302
C38   C     C_1   0.228876 0.405468 0.771996 0.028613
C39   C     C_1   0.728475 0.889178 0.271897 0.045706
C40   C     C_1   0.271520 0.389110 0.728073 0.045956
C41   C     C_1   0.677849 0.869674 0.323871 0.069470
C42   C     C_1   0.322179 0.370239 0.676082 0.069182
C43   C     C_1   0.634954 0.855459 0.367531 -0.113198
C44   C     C_1   0.365092 0.356245 0.632409 -0.113077
O11   O     O_R   0.058070 0.289240 0.940580 -0.520157
O12   O     O_R   0.941930 0.789240 0.059420 -0.520280
O13   O     O_R   0.058330 0.616740 0.085880 -0.532099
O14   O     O_R   0.941670 0.116740 0.914120 -0.533093
C45   C     C_R   0.071913 0.447142 0.111336 0.684476
C46   C     C_R   0.927620 0.949698 0.888747 0.683868
O15   O     O_R   0.065180 0.619040 0.942700 -0.522332
O16   O     O_R   0.934820 0.119040 0.057300 -0.522651
O17   O     O_R   0.948870 0.787780 0.915270 -0.529134
O18   O     O_R   0.051130 0.287780 0.084730 -0.530561
C47   C     C_R   0.083172 0.450066 0.920186 0.705798
C48   C     C_R   0.916772 0.950591 0.079840 0.705736
O19   O     O_3   0.961870 0.453310 0.991210 -0.366173
O20   O     O_3   0.038130 0.953310 0.008790 -0.365791
V3    V     V_3+5 0.007070 0.728770 0.001630 1.432645
V4    V     V_3+5 0.992930 0.228770 0.998370 1.432893
I1    I     I_    0.826181 0.899704 0.517464 -0.329444
I2    I     I_    0.173478 0.414970 0.483309 -0.335965
I3    I     I_    0.482456 0.857010 0.745931 -0.400115
I4    I     I_    0.514390 0.277355 0.254185 -0.402011
I5    I     I_    0.694297 0.610497 0.543295 -0.322411
I6    I     I_    0.319958 0.636368 0.459500 -0.311737

loop_
_geom_bond_atom_site_label_1
_geom_bond_atom_site_label_2
_ccdc_geom_bond_type
C22   C24   A    
C41   C43   T    
C7    C29   A    
C11   C13   A    
C24   I2    S    
O11   C47   A    
O2    C4    A    
C2    O7    A    
C23   C25   A    
O5    C3    A    
O12   V3    S    
C16   C20   A    
C19   C21   A    
C5    C29   A    
C46   O17   A    
C45   O18   A    
O20   V3    S    
C35   C37   S    
C36   C38   S    
C7    C27   A    
C38   C40   T    
O15   V3    S    
O13   C45   A    
C40   C42   S    
C2    C43   S    
C18   C26   A    
O1    C3    A    
C15   C17   A    
O6    C4    A    
C19   C27   A    
C9    C31   A    
C10   C32   A    
C24   C26   A    
O6    V2    S    
C3    C32   S    
O16   V4    S    
C4    C31   S    
C6    C30   A    
C9    I3    S    
O12   C48   A    
C25   I5    S    
C37   C39   T    
C17   C25   A    
O4    C2    A    
O18   V4    S    
C33   C48   S    
C12   H10   S    
C27   H5    S    
C5    H3    S    
C34   C47   S    
C42   C44   T    
O4    V2    S    
C10   I4    S    
H1    C29   S    
O1    V2    S    
C5    C21   A    
O2    V1    S    
C33   C35   T    
C17   C31   A    
C15   C19   A    
C20   C28   A    
C26   I6    S    
C20   C22   A    
O3    V1    S    
C13   H7    S    
C28   H6    S    
C14   H8    S    
C6    H4    S    
C7    C46   S    
C39   C41   S    
O17   V3    S    
C1    C44   S    
O3    C1    A    
O19   V4    S    
C11   H9    S    
C9    C11   A    
C10   C12   A    
C8    C30   A    
C12   C14   A    
C6    C22   A    
C23   I1    S    
C1    O8    A    
C21   C23   A    
O8    V2    S    
C14   C16   A    
C8    C28   A    
O5    V1    S    
C34   C36   T    
O7    V1    S    
O14   V4    S    
O13   V3    S    
C18   C32   A    
O11   V4    S    
C13   C15   A    
O16   C48   A    
O9    V2    S    
O15   C47   A    
O10   V1    S    
O14   C46   A    
H2    C30   S    
C8    C45   S    
C16   C18   A    
