data_mof_unit_64316.cif
_audit_creation_date              2012-12-10T19:25:42-0500
_audit_creation_method            fapswitch 2.2
_symmetry_space_group_name_H-M    P1
_symmetry_Int_Tables_number       1
_space_group_crystal_system       triclinic
_cell_length_a                    30.471427
_cell_length_b                    30.446391
_cell_length_c                    34.36433
_cell_angle_alpha                 90.00551
_cell_angle_beta                  89.99669
_cell_angle_gamma                 89.894568
_cell_volume                      31881.2804974

loop_
_atom_site_label
_atom_site_type_symbol
_atom_type_description
_atom_site_fract_x
_atom_site_fract_y
_atom_site_fract_z
_atom_type_partial_charge
C1    C     C_R   0.499943 0.999735 0.855802 0.964013
C2    C     C_R   0.999149 0.498701 0.101623 -0.177871
C3    C     C_R   0.863781 0.634989 0.216001 0.303421
C4    C     C_R   0.663240 0.106303 0.752615 0.294963
C5    C     C_R   0.367678 0.863277 0.213728 0.296613
C6    C     C_R   0.891971 0.660809 0.737369 0.278218
C7    C     C_R   0.106383 0.337811 0.258276 0.282449
C8    C     C_R   0.806892 0.640590 0.763719 0.384623
C9    C     C_R   0.194140 0.359841 0.241916 0.381418
C10   C     C_R   0.639476 0.195423 0.746567 0.380470
C11   C     C_R   0.339070 0.825017 0.282851 0.374658
C12   C     C_R   0.193749 0.360392 0.763226 0.387988
C13   C     C_R   0.498950 0.998229 0.898386 -0.205379
C14   C     C_R   0.827215 0.661883 0.286426 0.378605
C15   C     C_R   0.337077 0.830403 0.788531 0.391490
C16   C     C_R   0.658722 0.179076 0.225745 0.385967
C17   C     C_R   0.803310 0.361382 0.251347 0.377914
C18   C     C_R   0.169349 0.666840 0.717920 0.382250
C19   C     C_R   0.649692 0.810292 0.251022 0.377509
C20   C     C_R   0.359593 0.193319 0.763429 0.383595
C21   C     C_R   0.190246 0.649064 0.251562 0.371649
C22   C     C_R   0.804569 0.360649 0.746610 0.379169
C23   C     C_R   0.360521 0.194928 0.245150 0.383899
C24   C     C_R   0.498859 0.998335 0.101647 -0.195737
C25   C     C_R   0.640019 0.806513 0.763765 0.389764
C26   C     C_R   0.304731 0.138604 0.254912 0.388466
C27   C     C_R   0.692722 0.858565 0.736840 0.388240
C28   C     C_R   0.128764 0.700287 0.253986 0.393569
C29   C     C_R   0.861024 0.304286 0.752846 0.378900
C30   C     C_R   0.699874 0.871995 0.258771 0.393753
C31   C     C_R   0.306616 0.140629 0.737953 0.391331
C32   C     C_R   0.856647 0.307293 0.234131 0.367614
C33   C     C_R   0.168918 0.663724 0.788806 0.387571
C34   C     C_R   0.332298 0.831767 0.717705 0.382956
C35   C     C_R   0.501030 0.999096 0.398527 -0.191999
C36   C     C_R   0.678700 0.149832 0.289449 0.393462
C37   C     C_R   0.141385 0.307005 0.737892 0.385762
C38   C     C_R   0.830071 0.666503 0.217024 0.375949
C39   C     C_R   0.695724 0.138816 0.752561 0.380113
C40   C     C_R   0.336373 0.829366 0.213457 0.385058
C41   C     C_R   0.859312 0.693340 0.737447 0.392462
C42   C     C_R   0.138758 0.305037 0.258149 0.386839
C43   C     C_R   0.816769 0.683168 0.750525 -0.121823
C44   C     C_R   0.182594 0.316111 0.250051 -0.121062
C45   C     C_R   0.683781 0.183221 0.749536 -0.121121
C46   C     C_R   0.501781 0.998952 0.601679 -0.184963
C47   C     C_R   0.314655 0.817666 0.248417 -0.125767
C48   C     C_R   0.183906 0.317509 0.750760 -0.120169
C49   C     C_R   0.819047 0.687198 0.252635 -0.127562
C50   C     C_R   0.318627 0.814747 0.753732 -0.115508
C51   C     C_R   0.685019 0.180615 0.259423 -0.118610
C52   C     C_R   0.815278 0.316401 0.250900 -0.128578
C53   C     C_R   0.185439 0.681369 0.754001 -0.117183
C54   C     C_R   0.692615 0.826603 0.255138 -0.119518
C55   C     C_R   0.316914 0.183313 0.750667 -0.121401
C56   C     C_R   0.174184 0.692385 0.252347 -0.118374
C57   C     C_R   0.999973 0.499945 0.398099 -0.230975
C58   C     C_R   0.816688 0.316296 0.749675 -0.119283
C59   C     C_R   0.316329 0.182926 0.250024 -0.120886
C60   C     C_R   0.682587 0.816220 0.750472 -0.120651
C61   C     C_R   0.881985 0.618087 0.750246 -0.326379
C62   C     C_R   0.117864 0.381656 0.250083 -0.339719
C63   C     C_R   0.618469 0.118258 0.749792 -0.344063
C64   C     C_R   0.382605 0.880437 0.249489 -0.330075
C65   C     C_R   0.118341 0.382234 0.750231 -0.331897
C66   C     C_R   0.881401 0.618559 0.251034 -0.333415
C67   C     C_R   0.382703 0.880876 0.751284 -0.324581
C68   C     C_R   0.999770 0.499863 0.601951 -0.212263
C69   C     C_R   0.619481 0.116405 0.252402 -0.319902
C70   C     C_R   0.880706 0.381918 0.248209 -0.349301
C71   C     C_R   0.119254 0.617291 0.751422 -0.331800
C72   C     C_R   0.621207 0.885038 0.252925 -0.331127
C73   C     C_R   0.381955 0.118063 0.750242 -0.329890
C74   C     C_R   0.115221 0.621298 0.252436 -0.336030
C75   C     C_R   0.881703 0.381560 0.749919 -0.348516
C76   C     C_R   0.381754 0.118042 0.250076 -0.332170
C77   C     C_R   0.617785 0.881703 0.750105 -0.322367
C78   C     C_R   0.776506 0.744082 0.783485 0.359713
C79   C     C_R   0.033567 0.475160 0.958742 -0.041955
C80   C     C_R   0.227721 0.260308 0.215161 0.364689
C81   C     C_R   0.736508 0.231062 0.714164 0.363425
C82   C     C_R   0.246782 0.783833 0.214946 0.356458
C83   C     C_R   0.224329 0.256955 0.784053 0.363403
C84   C     C_R   0.787440 0.756718 0.220420 0.356182
C85   C     C_R   0.240028 0.792577 0.756734 0.358909
C86   C     C_R   0.763853 0.202812 0.257296 0.358898
C87   C     C_R   0.796400 0.234965 0.261197 0.348766
C88   C     C_R   0.207552 0.760052 0.756840 0.359326
C89   C     C_R   0.752227 0.786470 0.220173 0.358607
C90   C     C_R   0.957341 0.502682 0.041151 -0.039762
C91   C     C_R   0.256610 0.224092 0.783961 0.362997
C92   C     C_R   0.216817 0.748846 0.215572 0.357589
C93   C     C_R   0.768935 0.263572 0.714197 0.363457
C94   C     C_R   0.260477 0.227955 0.215123 0.364120
C95   C     C_R   0.743675 0.776398 0.783530 0.361114
C96   C     C_R   0.270779 0.238312 0.284991 0.362248
C97   C     C_R   0.722550 0.755003 0.717691 0.361079
C98   C     C_R   0.218557 0.749903 0.286028 0.363233
C99   C     C_R   0.764108 0.268307 0.785030 0.362375
C100  C     C_R   0.748028 0.781010 0.290403 0.361508
C101  C     C_R   0.510375 0.957658 0.958890 -0.004142
C102  C     C_R   0.276891 0.244271 0.717611 0.361912
C103  C     C_R   0.742577 0.288202 0.280142 0.355074
C104  C     C_R   0.264222 0.703354 0.753900 0.359479
C105  C     C_R   0.296704 0.735889 0.753743 0.359849
C106  C     C_R   0.709442 0.256295 0.277459 0.361292
C107  C     C_R   0.244610 0.277126 0.717701 0.360573
C108  C     C_R   0.783427 0.751492 0.289803 0.355935
C109  C     C_R   0.731687 0.235796 0.784998 0.364047
C110  C     C_R   0.248523 0.784800 0.284577 0.355056
C111  C     C_R   0.755389 0.722700 0.717639 0.363082
C112  C     C_R   0.499935 0.999781 0.144205 0.962282
C113  C     C_R   0.469460 0.027940 0.041085 -0.041159
C114  C     C_R   0.238153 0.270793 0.284999 0.361028
C115  C     C_R   0.716733 0.781856 0.750625 -0.129406
C116  C     C_R   0.281964 0.216986 0.250041 -0.129452
C117  C     C_R   0.782663 0.282145 0.749629 -0.127636
C118  C     C_R   0.205097 0.729691 0.251296 -0.130797
C119  C     C_R   0.282834 0.217735 0.750721 -0.129428
C120  C     C_R   0.730252 0.796056 0.255113 -0.131401
C121  C     C_R   0.219664 0.715472 0.755226 -0.129997
C122  C     C_R   0.784243 0.279868 0.263289 -0.143116
C123  C     C_R   0.719649 0.214251 0.263118 -0.136386
C124  C     C_R   0.957535 0.503233 0.958693 -0.019141
C125  C     C_R   0.284570 0.780480 0.754961 -0.128452
C126  C     C_R   0.795806 0.731417 0.254234 -0.141236
C127  C     C_R   0.218321 0.283422 0.750908 -0.128552
C128  C     C_R   0.270402 0.794526 0.249179 -0.139286
C129  C     C_R   0.717935 0.217244 0.749565 -0.130822
C130  C     C_R   0.216650 0.281747 0.250088 -0.128657
C131  C     C_R   0.782373 0.717282 0.750522 -0.130402
C132  C     C_R   0.960630 0.510315 0.918029 0.271391
C133  C     C_R   0.035729 0.482237 0.081716 0.278345
C134  C     C_R   0.476553 0.031457 0.918434 0.283426
C135  C     C_R   0.033478 0.474944 0.041084 -0.020879
C136  C     C_R   0.515751 0.961665 0.081972 0.303427
C137  C     C_R   0.035817 0.482568 0.918147 0.292456
C138  C     C_R   0.960373 0.509414 0.081872 0.285440
C139  C     C_R   0.516476 0.961806 0.918071 0.325708
C140  C     C_R   0.476804 0.031787 0.081565 0.297239
C141  C     C_R   0.468363 0.975843 0.418466 0.288090
C142  C     C_R   0.538632 0.015386 0.582051 0.276534
C143  C     C_R   0.023526 0.532229 0.418189 0.313847
C144  C     C_R   0.977080 0.466978 0.581894 0.283480
C145  C     C_R   0.536223 0.018165 0.418608 0.285234
C146  C     C_R   0.469362 0.027650 0.958901 -0.022721
C147  C     C_R   0.467993 0.977692 0.581587 0.292920
C148  C     C_R   0.976323 0.467669 0.418114 0.308941
C149  C     C_R   0.021827 0.533044 0.581834 0.282339
C150  C     C_3   0.144488 0.435544 0.963178 -0.487771
C151  C     C_3   0.847258 0.544498 0.036780 -0.477782
C152  C     C_3   0.497023 0.851749 0.948861 -0.559718
C153  C     C_3   0.411096 0.130404 0.036341 -0.493956
C154  C     C_3   0.863861 0.463478 0.944042 -0.562508
C155  C     C_3   0.079010 0.384180 0.056015 -0.559355
C156  C     C_3   0.372486 0.055784 0.943017 -0.555334
C157  C     C_R   0.509304 0.957485 0.041292 -0.006092
C158  C     C_3   0.484878 0.858643 0.054162 -0.554192
C159  C     C_3   0.642899 0.070179 0.463021 -0.470622
C160  C     C_3   0.369426 0.911975 0.537161 -0.465548
C161  C     C_3   0.870157 0.451618 0.446479 -0.542864
C162  C     C_3   0.126117 0.545232 0.559571 -0.561844
C163  C     C_3   0.443250 0.872048 0.443945 -0.521702
C164  C     C_3   0.641806 0.984790 0.553772 -0.549218
C165  C     C_3   0.129585 0.548795 0.447393 -0.562193
C166  C     C_3   0.872438 0.456338 0.558415 -0.582301
C167  C     C_R   0.541297 0.010663 0.458950 -0.044894
C168  C     C_R   0.471878 0.969908 0.541256 -0.045188
C169  C     C_R   0.971942 0.470646 0.458939 -0.015627
C170  C     C_R   0.027121 0.529562 0.541230 -0.004314
C171  C     C_R   0.471960 0.969103 0.459078 -0.028612
C172  C     C_R   0.999957 0.499943 0.855761 0.965820
C173  C     C_R   0.542504 0.009405 0.541259 -0.022869
C174  C     C_R   0.027676 0.529290 0.459037 -0.018136
C175  C     C_R   0.971969 0.470441 0.541189 -0.000907
C176  C     C_R   0.995430 0.488899 0.979294 -0.053716
C177  C     C_R   0.995365 0.488730 0.020538 -0.054933
C178  C     C_R   0.489447 0.992451 0.979420 -0.068356
C179  C     C_R   0.489228 0.992505 0.020618 -0.061305
C180  C     C_R   0.507009 0.989418 0.479544 -0.051197
C181  C     C_R   0.507284 0.989355 0.520726 -0.052504
C182  C     C_R   0.999772 0.499945 0.479543 -0.075173
C183  C     C_R   0.999976 0.499894 0.144204 0.962609
C184  C     C_R   0.999665 0.499933 0.520611 -0.056599
C185  C     C_R   0.067420 0.453240 0.979423 0.193431
C186  C     C_R   0.917448 0.508024 0.020323 0.191970
C187  C     C_R   0.522678 0.919257 0.979744 0.156084
C188  C     C_R   0.442016 0.057483 0.020422 0.197484
C189  C     C_R   0.917523 0.507763 0.979475 0.185834
C190  C     C_R   0.067013 0.452636 0.020267 0.187153
C191  C     C_R   0.441381 0.056742 0.979595 0.190085
C192  C     C_R   0.520776 0.918745 0.020784 0.174019
C193  C     C_R   0.580047 0.022349 0.479303 0.188622
C194  C     C_R   0.999996 0.499984 0.355705 0.961787
C195  C     C_R   0.442261 0.942411 0.520837 0.189679
C196  C     C_R   0.940099 0.446050 0.479602 0.196423
C197  C     C_R   0.059219 0.553969 0.520683 0.147821
C198  C     C_R   0.442927 0.941369 0.479999 0.180119
C199  C     C_R   0.580900 0.020834 0.520135 0.186503
C200  C     C_R   0.059250 0.554091 0.479835 0.199768
C201  C     C_R   0.939791 0.446305 0.520463 0.153344
C202  C     C_R   0.416018 0.915798 0.750140 0.993992
C203  C     C_R   0.584008 0.084030 0.250018 0.999072
C204  C     C_R   0.916003 0.584030 0.750034 0.986197
C205  C     C_R   0.999963 0.499910 0.644311 0.969314
C206  C     C_R   0.083994 0.415926 0.250009 0.982677
C207  C     C_R   0.584158 0.084126 0.749961 0.971492
C208  C     C_R   0.415814 0.915806 0.250132 0.983513
C209  C     C_R   0.084047 0.416018 0.750025 0.989596
C210  C     C_R   0.915970 0.584383 0.250356 0.974679
C211  C     C_R   0.415950 0.084050 0.250003 0.977083
C212  C     C_R   0.583975 0.915956 0.750000 0.984208
C213  C     C_R   0.915751 0.415707 0.249863 0.963208
C214  C     C_R   0.084241 0.583990 0.750182 0.990535
C215  C     C_R   0.584388 0.916210 0.250281 0.973104
C216  C     C_R   0.500117 0.999980 0.355861 0.952782
C217  C     C_R   0.415976 0.084005 0.750019 0.987936
C218  C     C_R   0.083778 0.584512 0.250311 0.978622
C219  C     C_R   0.915867 0.415845 0.749994 0.974559
C220  C     C_R   0.839535 0.608083 0.763686 0.293890
C221  C     C_R   0.161768 0.392592 0.241783 0.286033
C222  C     C_R   0.606794 0.163115 0.746748 0.296299
C223  C     C_R   0.370111 0.858936 0.284175 0.311320
C224  C     C_R   0.160968 0.392800 0.762928 0.279858
C225  C     C_R   0.861105 0.630647 0.286434 0.304820
C226  C     C_R   0.369185 0.863317 0.787389 0.293837
C227  C     C_R   0.500228 0.999945 0.644212 0.958772
C228  C     C_R   0.625774 0.147082 0.222317 0.285719
C229  C     C_R   0.836108 0.393879 0.252710 0.287175
C230  C     C_R   0.136367 0.634833 0.716555 0.302432
C231  C     C_R   0.613944 0.839461 0.249925 0.290945
C232  C     C_R   0.392074 0.160656 0.763338 0.290260
C233  C     C_R   0.160874 0.613533 0.251616 0.288756
C234  C     C_R   0.836902 0.393310 0.746789 0.285569
C235  C     C_R   0.393278 0.162539 0.245201 0.288047
C236  C     C_R   0.607574 0.839257 0.763550 0.287416
C237  C     C_R   0.337382 0.106121 0.254907 0.284017
C238  C     C_R   0.999215 0.498990 0.898273 -0.174018
C239  C     C_R   0.660287 0.891275 0.736561 0.280048
C240  C     C_R   0.099330 0.664928 0.254293 0.293024
C241  C     C_R   0.893559 0.336742 0.752907 0.293248
C242  C     C_R   0.664285 0.901183 0.257864 0.281082
C243  C     C_R   0.339130 0.107953 0.737794 0.277705
C244  C     C_R   0.890401 0.338325 0.236657 0.301930
C245  C     C_R   0.135969 0.631636 0.787612 0.294450
C246  C     C_R   0.364269 0.864799 0.716413 0.300423
C247  C     C_R   0.646532 0.117303 0.285577 0.305073
C248  C     C_R   0.108636 0.339395 0.737531 0.282032
Cl1   Cl    Cl    0.827630 0.555281 0.782144 -0.364282
Cl2   Cl    Cl    0.115661 0.618304 0.670821 -0.388731
Cl3   Cl    Cl    0.548627 0.924055 0.108858 -0.492985
Cl4   Cl    Cl    0.085833 0.479347 0.891710 -0.534551
Cl5   Cl    Cl    0.918571 0.535830 0.109059 -0.524522
Cl6   Cl    Cl    0.548823 0.924327 0.890515 -0.493447
Cl7   Cl    Cl    0.466479 0.081383 0.107266 -0.542769
Cl8   Cl    Cl    0.419564 0.963734 0.392410 -0.518220
Cl9   Cl    Cl    0.576304 0.047385 0.609395 -0.557098
Cl10  Cl    Cl    0.042910 0.578381 0.391546 -0.496050
Cl11  Cl    Cl    0.960818 0.419480 0.608118 -0.550403
Cl12  Cl    Cl    0.569138 0.056730 0.393473 -0.502599
Cl13  Cl    Cl    0.560325 0.818755 0.243011 -0.394445
Cl14  Cl    Cl    0.417829 0.969537 0.606803 -0.511217
Cl15  Cl    Cl    0.957049 0.421504 0.391428 -0.509968
Cl16  Cl    Cl    0.035895 0.581467 0.607563 -0.500400
Cl17  Cl    Cl    0.444987 0.172726 0.781350 -0.351618
Cl18  Cl    Cl    0.181722 0.559472 0.248876 -0.337613
Cl19  Cl    Cl    0.820261 0.448929 0.744748 -0.353334
Cl20  Cl    Cl    0.448586 0.177872 0.237455 -0.373392
Cl21  Cl    Cl    0.554332 0.827295 0.781051 -0.406083
Cl22  Cl    Cl    0.322498 0.050639 0.262598 -0.396704
Cl23  Cl    Cl    0.672539 0.943801 0.717669 -0.384452
Cl24  Cl    Cl    0.042442 0.675890 0.258684 -0.390679
Cl25  Cl    Cl    0.176159 0.447022 0.229474 -0.349292
Cl26  Cl    Cl    0.949165 0.320236 0.755064 -0.337523
Cl27  Cl    Cl    0.674020 0.958031 0.264501 -0.387054
Cl28  Cl    Cl    0.326353 0.054534 0.721095 -0.394005
Cl29  Cl    Cl    0.944227 0.320871 0.224903 -0.330710
Cl30  Cl    Cl    0.117483 0.608105 0.831766 -0.368646
Cl31  Cl    Cl    0.379598 0.887026 0.670875 -0.402923
Cl32  Cl    Cl    0.641497 0.076382 0.321693 -0.395366
Cl33  Cl    Cl    0.055894 0.326635 0.719504 -0.356900
Cl34  Cl    Cl    0.880563 0.613666 0.170599 -0.358133
Cl35  Cl    Cl    0.679630 0.050603 0.754532 -0.332747
Cl36  Cl    Cl    0.551248 0.179855 0.744805 -0.330506
Cl37  Cl    Cl    0.391393 0.880405 0.169223 -0.444531
Cl38  Cl    Cl    0.945215 0.673420 0.720245 -0.390790
Cl39  Cl    Cl    0.051695 0.323965 0.270236 -0.363336
Cl40  Cl    Cl    0.753520 0.628076 0.780552 -0.338938
Cl41  Cl    Cl    0.249334 0.373527 0.231693 -0.337690
Cl42  Cl    Cl    0.624958 0.251581 0.742889 -0.330888
Cl43  Cl    Cl    0.341499 0.784427 0.319786 -0.360035
Cl44  Cl    Cl    0.247257 0.373430 0.779348 -0.344874
Cl45  Cl    Cl    0.786893 0.657284 0.323361 -0.337313
Cl46  Cl    Cl    0.319939 0.808494 0.833700 -0.360073
Cl47  Cl    Cl    0.392616 0.873576 0.329821 -0.395827
Cl48  Cl    Cl    0.667048 0.217394 0.187840 -0.349857
Cl49  Cl    Cl    0.749910 0.377753 0.236868 -0.333848
Cl50  Cl    Cl    0.190414 0.689222 0.674242 -0.363223
Cl51  Cl    Cl    0.640832 0.753134 0.246700 -0.357861
Cl52  Cl    Cl    0.372267 0.246882 0.779794 -0.335167
Cl53  Cl    Cl    0.247454 0.639385 0.249977 -0.351195
Cl54  Cl    Cl    0.748488 0.375252 0.742807 -0.340372
Cl55  Cl    Cl    0.374764 0.250733 0.238644 -0.337339
Cl56  Cl    Cl    0.627424 0.753226 0.780819 -0.343682
Cl57  Cl    Cl    0.249091 0.123846 0.261365 -0.335979
Cl58  Cl    Cl    0.173135 0.446443 0.779434 -0.398846
Cl59  Cl    Cl    0.746162 0.870531 0.719855 -0.335383
Cl60  Cl    Cl    0.108668 0.754824 0.255515 -0.329242
Cl61  Cl    Cl    0.875765 0.248185 0.756502 -0.331266
Cl62  Cl    Cl    0.753861 0.892370 0.264306 -0.328422
Cl63  Cl    Cl    0.252874 0.128180 0.722072 -0.332199
Cl64  Cl    Cl    0.862258 0.265395 0.198622 -0.345811
Cl65  Cl    Cl    0.189838 0.681808 0.834053 -0.340366
Cl66  Cl    Cl    0.308934 0.811796 0.674039 -0.369392
Cl67  Cl    Cl    0.710882 0.152231 0.332246 -0.368342
Cl68  Cl    Cl    0.129252 0.253157 0.721932 -0.328372
Cl69  Cl    Cl    0.877399 0.607514 0.331450 -0.390291
Cl70  Cl    Cl    0.793119 0.667875 0.177195 -0.349335
Cl71  Cl    Cl    0.751764 0.123966 0.756059 -0.329136
Cl72  Cl    Cl    0.337614 0.792424 0.173638 -0.346391
Cl73  Cl    Cl    0.871601 0.746942 0.720997 -0.329816
Cl74  Cl    Cl    0.124472 0.249946 0.268291 -0.328222
Cl75  Cl    Cl    0.810390 0.737104 0.824785 -0.349946
Cl76  Cl    Cl    0.200480 0.274076 0.171397 -0.383205
Cl77  Cl    Cl    0.719053 0.207577 0.669742 -0.364214
Cl78  Cl    Cl    0.242145 0.822186 0.176445 -0.325833
Cl79  Cl    Cl    0.191234 0.264963 0.825713 -0.376248
Cl80  Cl    Cl    0.393720 0.880820 0.831430 -0.444126
Cl81  Cl    Cl    0.827818 0.762047 0.183661 -0.318230
Cl82  Cl    Cl    0.224929 0.848635 0.758478 -0.340127
Cl83  Cl    Cl    0.778907 0.148051 0.246491 -0.323231
Cl84  Cl    Cl    0.849238 0.217447 0.276174 -0.312888
Cl85  Cl    Cl    0.151533 0.775139 0.758576 -0.334619
Cl86  Cl    Cl    0.737030 0.813033 0.176470 -0.346249
Cl87  Cl    Cl    0.264253 0.190764 0.825542 -0.380859
Cl88  Cl    Cl    0.192356 0.730668 0.171834 -0.346985
Cl89  Cl    Cl    0.792437 0.281125 0.669817 -0.369344
Cl90  Cl    Cl    0.274761 0.201167 0.171256 -0.381671
Cl91  Cl    Cl    0.591828 0.145944 0.180621 -0.374903
Cl92  Cl    Cl    0.736295 0.810218 0.824840 -0.346698
Cl93  Cl    Cl    0.297711 0.224244 0.328830 -0.352179
Cl94  Cl    Cl    0.688651 0.761960 0.676396 -0.371935
Cl95  Cl    Cl    0.196756 0.732762 0.331186 -0.359264
Cl96  Cl    Cl    0.781532 0.291814 0.829454 -0.377605
Cl97  Cl    Cl    0.727442 0.800519 0.335274 -0.364121
Cl98  Cl    Cl    0.309978 0.236267 0.675943 -0.348627
Cl99  Cl    Cl    0.735683 0.330832 0.314667 -0.345576
Cl100 Cl    Cl    0.279292 0.647297 0.752076 -0.344574
Cl101 Cl    Cl    0.352712 0.720840 0.751650 -0.346354
Cl102 Cl    Cl    0.820123 0.449693 0.256074 -0.389022
Cl103 Cl    Cl    0.655791 0.268343 0.293866 -0.337782
Cl104 Cl    Cl    0.236954 0.310426 0.676105 -0.360602
Cl105 Cl    Cl    0.819764 0.751868 0.330017 -0.321298
Cl106 Cl    Cl    0.708185 0.218258 0.829382 -0.355599
Cl107 Cl    Cl    0.248124 0.823047 0.323432 -0.334041
Cl108 Cl    Cl    0.762808 0.688927 0.676304 -0.361532
Cl109 Cl    Cl    0.224256 0.297964 0.328778 -0.360621
Cl110 Cl    Cl    0.919271 0.537903 0.890972 -0.550311
Cl111 Cl    Cl    0.085538 0.478020 0.108315 -0.558265
Cl112 Cl    Cl    0.464912 0.080625 0.892526 -0.551518
H1    H     H_    0.087949 0.407644 0.936114 0.274628
H2    H     H_    0.502071 0.839525 0.918771 0.297431
H3    H     H_    0.465199 0.869681 0.949880 0.236747
H4    H     H_    0.495545 0.823071 0.968760 0.224333
H5    H     H_    0.394354 0.070148 0.064257 0.276822
H6    H     H_    0.414540 0.145553 0.065555 0.278426
H7    H     H_    0.380126 0.142388 0.023046 0.242971
H8    H     H_    0.439185 0.141159 0.018034 0.238382
H9    H     H_    0.863694 0.533530 0.948032 0.297217
H10   H     H_    0.829246 0.464795 0.934042 0.265191
H11   H     H_    0.866861 0.437202 0.966322 0.237526
H12   H     H_    0.158535 0.441326 0.933830 0.280544
H13   H     H_    0.885171 0.455361 0.918857 0.249406
H14   H     H_    0.124578 0.437111 0.051663 0.296001
H15   H     H_    0.106143 0.362344 0.065605 0.264079
H16   H     H_    0.059027 0.366311 0.034112 0.238343
H17   H     H_    0.058215 0.392206 0.081556 0.254543
H18   H     H_    0.415517 0.110616 0.948382 0.294734
H19   H     H_    0.345769 0.078309 0.933766 0.262014
H20   H     H_    0.358827 0.032022 0.964336 0.240650
H21   H     H_    0.384653 0.037711 0.917129 0.256360
H22   H     H_    0.547227 0.855612 0.029493 0.253327
H23   H     H_    0.161853 0.407279 0.976584 0.241221
H24   H     H_    0.492004 0.828302 0.070952 0.272275
H25   H     H_    0.463833 0.850111 0.028923 0.217296
H26   H     H_    0.466714 0.881655 0.073419 0.260829
H27   H     H_    0.626946 0.009917 0.434768 0.278157
H28   H     H_    0.647079 0.085298 0.433868 0.289050
H29   H     H_    0.675864 0.064891 0.475930 0.241975
H30   H     H_    0.624174 0.093414 0.481704 0.232712
H31   H     H_    0.429510 0.895790 0.565455 0.284135
H32   H     H_    0.354340 0.915715 0.566378 0.288705
H33   H     H_    0.357403 0.880924 0.524081 0.243346
H34   H     H_    0.150228 0.465300 0.981227 0.238466
H35   H     H_    0.358666 0.939986 0.518695 0.232910
H36   H     H_    0.895012 0.395156 0.472488 0.270151
H37   H     H_    0.847207 0.432134 0.428305 0.268831
H38   H     H_    0.882817 0.479219 0.428588 0.254195
H39   H     H_    0.851864 0.464959 0.471789 0.222996
H40   H     H_    0.090328 0.604633 0.551871 0.310584
H41   H     H_    0.156744 0.563515 0.566019 0.269749
H42   H     H_    0.134468 0.516678 0.540847 0.223304
H43   H     H_    0.112177 0.533147 0.587372 0.270906
H44   H     H_    0.388908 0.915911 0.448924 0.300127
H45   H     H_    0.871449 0.485090 0.062326 0.272411
H46   H     H_    0.420467 0.845656 0.434625 0.272872
H47   H     H_    0.466640 0.858078 0.465458 0.228940
H48   H     H_    0.461674 0.883794 0.418130 0.259675
H49   H     H_    0.630456 0.054053 0.551483 0.295273
H50   H     H_    0.675854 0.991422 0.563606 0.265920
H51   H     H_    0.642936 0.959122 0.530807 0.237617
H52   H     H_    0.622452 0.972475 0.578838 0.251527
H53   H     H_    0.104026 0.605271 0.472839 0.273628
H54   H     H_    0.117330 0.521032 0.429472 0.247026
H55   H     H_    0.147586 0.535689 0.472963 0.223531
H56   H     H_    0.840165 0.557438 0.066313 0.286331
H57   H     H_    0.152676 0.568322 0.429397 0.270165
H58   H     H_    0.907577 0.396343 0.551679 0.303108
H59   H     H_    0.841604 0.438442 0.564940 0.265182
H60   H     H_    0.864489 0.484557 0.539172 0.231517
H61   H     H_    0.886238 0.468945 0.586088 0.267984
H62   H     H_    0.815831 0.534591 0.023065 0.237886
H63   H     H_    0.862268 0.571217 0.019219 0.238704
H64   H     H_    0.561743 0.863787 0.967728 0.263612
N1    N     N_2   0.098156 0.425389 0.959995 -0.297516
N2    N     N_2   0.416813 0.910019 0.540658 -0.297390
N3    N     N_2   0.905761 0.423714 0.459495 -0.254124
N4    N     N_2   0.095491 0.574067 0.539872 -0.315742
N5    N     N_2   0.418446 0.907482 0.461436 -0.300776
N6    N     N_2   0.622691 0.024680 0.538350 -0.299643
N7    N     N_2   0.093633 0.576546 0.459902 -0.249603
N8    N     N_2   0.903020 0.426861 0.539407 -0.316939
N9    N     N_2   0.875911 0.506549 0.039472 -0.299701
N10   N     N_2   0.533403 0.879825 0.959541 -0.271086
N11   N     N_2   0.409331 0.082985 0.039893 -0.295992
N12   N     N_2   0.875939 0.505403 0.960669 -0.298058
N13   N     N_2   0.097091 0.423659 0.038995 -0.298996
N14   N     N_2   0.407396 0.080934 0.960771 -0.300126
N15   N     N_2   0.525649 0.878104 0.041104 -0.262248
N16   N     N_2   0.620766 0.028254 0.459395 -0.297945
O1    O     O_3   0.500000 0.000000 0.750000 -0.575751
O2    O     O_R   0.536370 0.000000 0.162610 -0.584596
O3    O     O_R   1.000000 0.536370 0.837390 -0.572523
O4    O     O_R   1.000000 0.463630 0.162610 -0.634319
O5    O     O_R   0.036370 0.500000 0.337390 -0.617194
O6    O     O_R   0.963630 0.500000 0.662610 -0.615664
O7    O     O_R   0.500000 0.963630 0.337390 -0.620316
O8    O     O_R   0.500000 0.036370 0.662610 -0.585138
O9    O     O_R   0.963630 0.500000 0.337390 -0.595951
O10   O     O_R   0.036370 0.500000 0.662610 -0.611343
O11   O     O_R   0.500000 0.036370 0.337390 -0.580482
O12   O     O_3   0.500000 0.000000 0.250000 -0.576846
O13   O     O_R   0.500000 0.963630 0.662610 -0.621733
O14   O     O_R   0.412550 0.948890 0.772870 -0.597176
O15   O     O_R   0.587450 0.051110 0.227130 -0.595516
O16   O     O_R   0.948890 0.587450 0.772870 -0.595538
O17   O     O_R   0.051110 0.412550 0.227130 -0.592983
O18   O     O_R   0.587450 0.051110 0.772870 -0.597522
O19   O     O_R   0.412550 0.948890 0.227130 -0.593648
O20   O     O_R   0.051110 0.412550 0.772870 -0.593462
O21   O     O_R   0.948890 0.587450 0.227130 -0.580906
O22   O     O_R   0.412550 0.051110 0.227130 -0.597045
O23   O     O_3   1.000000 0.500000 0.750000 -0.572212
O24   O     O_R   0.587450 0.948890 0.772870 -0.581488
O25   O     O_R   0.948890 0.412550 0.227130 -0.599058
O26   O     O_R   0.051110 0.587450 0.772870 -0.592907
O27   O     O_R   0.587450 0.948890 0.227130 -0.588030
O28   O     O_R   0.412550 0.051110 0.772870 -0.604326
O29   O     O_R   0.051110 0.587450 0.227130 -0.601507
O30   O     O_R   0.948890 0.412550 0.772870 -0.604242
O31   O     O_R   0.912550 0.448890 0.272870 -0.586973
O32   O     O_R   0.087450 0.551110 0.727130 -0.591959
O33   O     O_R   0.448890 0.087450 0.272870 -0.602462
O34   O     O_3   1.000000 0.500000 0.250000 -0.574958
O35   O     O_R   0.551110 0.912550 0.727130 -0.619549
O36   O     O_R   0.087450 0.551110 0.272870 -0.588125
O37   O     O_R   0.912550 0.448890 0.727130 -0.587786
O38   O     O_R   0.551110 0.912550 0.272870 -0.611027
O39   O     O_R   0.448890 0.087450 0.727130 -0.596610
O40   O     O_R   0.912550 0.551110 0.727130 -0.604926
O41   O     O_R   0.087450 0.448890 0.272870 -0.603952
O42   O     O_R   0.448890 0.912550 0.727130 -0.590282
O43   O     O_R   0.551110 0.087450 0.272870 -0.591510
O44   O     O_R   0.087450 0.448890 0.727130 -0.612160
O45   O     O_R   0.536370 0.000000 0.837390 -0.590544
O46   O     O_R   0.912550 0.551110 0.272870 -0.591386
O47   O     O_R   0.551110 0.087450 0.727130 -0.584057
O48   O     O_R   0.448890 0.912550 0.272870 -0.586162
O49   O     O_R   0.463630 0.000000 0.162610 -0.614818
O50   O     O_R   1.000000 0.463630 0.837390 -0.637461
O51   O     O_R   0.000000 0.536370 0.162610 -0.577408
O52   O     O_R   0.463630 0.000000 0.837390 -0.614426
Zn1   Zn    Zn3+2 0.500000 0.948100 0.717210 1.102046
Zn2   Zn    Zn3+2 1.000000 0.551900 0.782790 1.140295
Zn3   Zn    Zn3+2 0.448100 0.000000 0.217210 1.112177
Zn4   Zn    Zn3+2 0.551900 0.000000 0.782790 1.130935
Zn5   Zn    Zn3+2 1.000000 0.551900 0.217210 1.134645
Zn6   Zn    Zn3+2 1.000000 0.448100 0.782790 1.101630
Zn7   Zn    Zn3+2 0.551900 0.000000 0.217210 1.133697
Zn8   Zn    Zn3+2 0.448100 0.000000 0.782790 1.109910
Zn9   Zn    Zn3+2 0.500000 0.051900 0.282790 1.130998
Zn10  Zn    Zn3+2 0.948100 0.500000 0.717210 1.109232
Zn11  Zn    Zn3+2 0.051900 0.500000 0.282790 1.109037
Zn12  Zn    Zn3+2 0.500000 0.051900 0.717210 1.133069
Zn13  Zn    Zn3+2 0.500000 0.948100 0.282790 1.102701
Zn14  Zn    Zn3+2 0.051900 0.500000 0.717210 1.111020
Zn15  Zn    Zn3+2 0.948100 0.500000 0.282790 1.120912
Zn16  Zn    Zn3+2 1.000000 0.448100 0.217210 1.099782

loop_
_geom_bond_atom_site_label_1
_geom_bond_atom_site_label_2
_ccdc_geom_bond_type
C109  Cl106 S    
C72   C231  A    
C51   C123  S    
C218  O36   A    
C206  O41   A    
C166  H60   S    
C165  N7    S    
O15   Zn7   S    
C185  C190  A    
C191  N14   S    
C55   C119  S    
C24   C140  A    
C163  H47   S    
C188  C191  A    
C13   C139  A    
C21   C233  A    
C195  N2    S    
C67   C246  A    
C151  H63   S    
O5    Zn11  S    
C44   C130  S    
C215  O38   A    
C4    Cl35  S    
C157  C179  A    
C7    C42   A    
C247  Cl32  S    
C32   C52   A    
C68   C149  A    
C233  Cl18  S    
C22   C234  A    
C52   C122  S    
C223  Cl47  S    
O12   Zn13  S    
C34   C246  A    
C205  O10   A    
C133  Cl111 S    
C221  Cl25  S    
C245  Cl30  S    
C25   C60   A    
C97   C115  A    
C26   C59   A    
C154  H13   S    
C195  C198  A    
C167  C180  A    
C90   C177  A    
C41   C43   A    
C63   C222  A    
C96   C114  A    
C143  Cl10  S    
C42   C44   A    
C17   C52   A    
C104  C105  A    
C84   C126  A    
C134  C146  A    
O6    Zn10  S    
C2    C138  A    
C47   C128  S    
C162  N4    S    
C135  C177  A    
C14   C225  A    
C18   C230  A    
O23   Zn6   S    
C11   C223  A    
C90   C186  A    
C67   C226  A    
C193  C199  A    
C113  C188  A    
C214  O26   A    
C5    C64   A    
C76   C237  A    
C241  Cl26  S    
C13   C134  A    
C153  N11   S    
C7    C62   A    
C75   C241  A    
C154  N12   S    
C81   C129  A    
C89   C120  A    
C75   C219  S    
C194  O9    A    
C202  O42   A    
O45   Zn4   S    
C79   C137  A    
C16   Cl48  S    
C78   Cl75  S    
C159  H30   S    
C71   C245  A    
C1    O52   A    
C189  N12   S    
H14   N13   S    
C16   C228  A    
C170  C184  A    
O34   Zn16  S    
H44   N5    S    
C193  N16   S    
C22   C58   A    
C87   C122  A    
C154  H10   S    
C159  N16   S    
C209  O20   A    
C71   C214  S    
C83   C91   A    
C106  Cl103 S    
C105  C125  A    
C31   Cl63  S    
O52   Zn8   S    
C43   C131  S    
C107  C127  A    
O28   Zn8   S    
C152  H3    S    
C48   C127  S    
C26   C237  A    
C234  Cl19  S    
H64   N10   S    
C95   Cl92  S    
C66   C225  A    
O29   Zn5   S    
C244  Cl29  S    
C2    C183  S    
O9    Zn15  S    
C74   C240  A    
C246  Cl31  S    
C211  O33   A    
C162  H41   S    
C169  C182  A    
C10   C222  A    
C8    Cl40  S    
H18   N14   S    
C72   C215  S    
H58   N8    S    
C29   C58   A    
O32   Zn14  S    
C168  C181  A    
C133  C135  A    
C96   C116  A    
C108  C126  A    
C62   C206  S    
C65   C224  A    
C102  C119  A    
C110  C128  A    
C172  C238  S    
C156  H20   S    
O47   Zn12  S    
C24   C112  S    
C16   C51   A    
C174  C182  A    
C178  C179  A    
C101  C139  A    
C10   Cl42  S    
C23   C59   A    
C49   C126  S    
C30   C54   A    
C4    C63   A    
C150  H23   S    
H1    N1    S    
C105  Cl101 S    
O26   Zn2   S    
C6    C61   A    
C22   Cl54  S    
C242  Cl27  S    
C217  O28   A    
C35   C145  A    
C62   C221  A    
O1    Zn4   S    
C141  C171  A    
C124  C132  A    
C204  O16   A    
O34   Zn5   S    
C160  H32   S    
C92   C118  A    
C33   Cl65  S    
C101  C178  A    
C69   C247  A    
O51   Zn5   S    
C46   C227  S    
C237  Cl22  S    
C212  O35   A    
C172  O50   A    
C66   C210  S    
C138  Cl5   S    
C166  N8    S    
C77   C212  S    
C88   Cl85  S    
C39   C45   A    
C23   C235  A    
C24   C136  A    
C114  Cl109 S    
C225  Cl69  S    
O23   Zn14  S    
C155  H16   S    
C32   C244  A    
C14   Cl45  S    
C219  O37   A    
C28   Cl60  S    
C207  O47   A    
C93   C117  A    
C85   Cl82  S    
C10   C45   A    
C150  H12   S    
C90   C138  A    
C98   C118  A    
C142  C173  A    
C110  Cl107 S    
C81   Cl77  S    
C17   Cl49  S    
C100  C108  A    
C83   Cl79  S    
C72   C242  A    
C139  Cl6   S    
C222  Cl36  S    
C42   Cl74  S    
O14   Zn8   S    
C32   Cl64  S    
C58   C117  S    
C37   C48   A    
C84   Cl81  S    
C135  C190  A    
C161  H38   S    
C99   C117  A    
C158  H25   S    
C150  H34   S    
O17   Zn16  S    
C74   C218  S    
C201  N8    S    
H45   N9    S    
C148  C169  A    
C102  C107  A    
C140  Cl7   S    
C190  N13   S    
C82   C128  A    
C187  C192  A    
O22   Zn3   S    
H53   N7    S    
C19   C54   A    
C111  C131  A    
C65   C248  A    
C35   C141  A    
C186  N9    S    
C112  O2    A    
C198  N5    S    
C91   C119  A    
C146  C191  A    
C57   C148  A    
C150  N1    S    
O23   Zn10  S    
C137  Cl4   S    
C35   C216  S    
C85   C88   A    
C141  Cl8   S    
C79   C176  A    
C218  O29   A    
C96   Cl93  S    
C83   C127  A    
C216  O7    A    
C124  C176  A    
O39   Zn12  S    
C12   Cl44  S    
C89   Cl86  S    
C57   C194  S    
C159  H29   S    
O34   Zn11  S    
O35   Zn1   S    
C70   C229  A    
C204  O40   A    
C109  C129  A    
C103  C122  A    
C205  O6    A    
C236  Cl21  S    
C100  Cl97  S    
C68   C144  A    
C219  O30   A    
C5    Cl37  S    
C213  O31   A    
C93   Cl89  S    
C182  C184  A    
C208  O19   A    
C7    Cl39  S    
O38   Zn13  S    
C30   C242  A    
C200  N7    S    
C36   C247  A    
C41   Cl73  S    
C196  C201  A    
C101  C187  A    
O12   Zn3   S    
C170  C197  A    
C229  Cl102 S    
O41   Zn11  S    
C69   C228  A    
C15   Cl46  S    
C45   C129  S    
C98   C110  A    
C173  C199  A    
C114  C130  A    
C11   C47   A    
C8    C43   A    
C12   C48   A    
C27   C239  A    
C46   C142  A    
C38   C49   A    
O11   Zn9   S    
C25   Cl56  S    
C208  O48   A    
C31   C243  A    
O33   Zn9   S    
C171  C198  A    
C185  N1    S    
C27   C60   A    
C61   C204  S    
O18   Zn4   S    
C97   C111  A    
C153  H7    S    
C99   C109  A    
C82   C92   A    
C232  Cl17  S    
C75   C234  A    
C167  C193  A    
H31   N2    S    
O4    Zn16  S    
C144  Cl11  S    
C12   C224  A    
C18   C53   A    
O13   Zn1   S    
C3    Cl34  S    
O1    Zn1   S    
C25   C236  A    
C59   C116  S    
C197  N4    S    
O10   Zn14  S    
C33   C245  A    
C159  H28   S    
C151  H62   S    
C39   Cl71  S    
O19   Zn3   S    
C40   Cl72  S    
C226  Cl80  S    
C151  H56   S    
C227  O13   A    
C11   Cl43  S    
C231  Cl13  S    
C173  C181  A    
O42   Zn1   S    
C63   C207  S    
C220  Cl1   S    
O31   Zn15  S    
O24   Zn4   S    
C29   Cl61  S    
C166  H59   S    
C94   Cl90  S    
O1    Zn8   S    
C210  O46   A    
C37   Cl68  S    
C163  H48   S    
O12   Zn7   S    
C2    C133  A    
C34   Cl66  S    
C17   C229  A    
C86   C87   A    
C104  Cl100 S    
C215  O27   A    
C77   C236  A    
C142  Cl9   S    
C161  N3    S    
C217  O39   A    
C197  C200  A    
C152  H4    S    
C166  H61   S    
H27   N16   S    
C46   C147  A    
C199  N6    S    
C78   C95   A    
C165  H55   S    
C203  O43   A    
C160  H33   S    
C74   C233  A    
C162  H42   S    
C164  H52   S    
C92   Cl88  S    
C18   Cl50  S    
C214  O32   A    
C3    C66   A    
H5    N11   S    
C80   C94   A    
C112  O49   A    
O3    Zn2   S    
C180  C181  A    
C145  C167  A    
C94   C116  A    
C154  H11   S    
C70   C213  S    
C56   C118  S    
C86   Cl83  S    
C210  O21   A    
C164  H51   S    
C88   C121  A    
C21   C56   A    
O20   Zn6   S    
C209  O44   A    
C158  N15   S    
C228  Cl91  S    
C174  C200  A    
O8    Zn12  S    
O30   Zn6   S    
C183  O4    A    
C186  C189  A    
O49   Zn3   S    
C157  C192  A    
C53   C121  S    
C28   C240  A    
C188  N11   S    
C28   C56   A    
C111  Cl108 S    
C27   Cl59  S    
C211  O22   A    
C196  N3    S    
C147  C168  A    
C194  O5    A    
C9    C221  A    
C64   C223  A    
C5    C40   A    
C77   C239  A    
C156  N14   S    
C143  C174  A    
C31   C55   A    
C124  C189  A    
C192  N15   S    
C213  O25   A    
C175  C184  A    
C152  N10   S    
C40   C47   A    
C20   C232  A    
C163  H46   S    
C155  H15   S    
O12   Zn9   S    
O34   Zn15  S    
C85   C125  A    
C61   C220  A    
C64   C208  S    
C216  O11   A    
C146  C178  A    
C37   C248  A    
C6    Cl38  S    
C134  Cl112 S    
O2    Zn7   S    
C14   C49   A    
O37   Zn10  S    
C163  N5    S    
C160  H35   S    
O7    Zn13  S    
C15   C50   A    
C137  C238  A    
C162  H43   S    
C132  C238  A    
O23   Zn2   S    
C70   C244  A    
C158  H26   S    
C248  Cl33  S    
C3    C38   A    
C95   C115  A    
C6    C41   A    
C106  C123  A    
C155  N13   S    
C136  Cl3   S    
C82   Cl78  S    
C100  C120  A    
C103  C106  A    
C212  O24   A    
C149  Cl16  S    
C65   C209  S    
C207  O18   A    
C161  H37   S    
C155  H17   S    
C156  H19   S    
C145  Cl12  S    
H22   N15   S    
C20   C55   A    
O21   Zn5   S    
C169  C196  A    
O44   Zn14  S    
C33   C53   A    
C34   C50   A    
C80   C130  A    
C57   C143  A    
C15   C226  A    
C149  C170  A    
O27   Zn7   S    
C152  H2    S    
C175  C201  A    
C165  H57   S    
C107  Cl104 S    
C99   Cl96  S    
C158  H24   S    
C104  C121  A    
C153  H8    S    
H49   N6    S    
C187  N10   S    
C183  O51   A    
C38   Cl70  S    
C132  Cl110 S    
C91   Cl87  S    
C78   C131  A    
C8    C220  A    
C203  O15   A    
O43   Zn9   S    
C81   C93   A    
C73   C243  A    
C4    C39   A    
C36   Cl67  S    
C113  C140  A    
C73   C217  S    
C147  Cl14  S    
C30   Cl62  S    
C36   C51   A    
O50   Zn6   S    
O1    Zn12  S    
C136  C157  A    
C76   C211  S    
O40   Zn10  S    
C176  C177  A    
O36   Zn11  S    
C69   C203  S    
H36   N3    S    
C80   Cl76  S    
C171  C180  A    
C151  N9    S    
C1    C13   S    
C84   C89   A    
C172  O3    A    
O46   Zn15  S    
C68   C205  S    
C50   C125  S    
C235  Cl20  S    
C54   C120  S    
C9    C44   A    
C29   C241  A    
C79   C185  A    
C113  C179  A    
C103  Cl99  S    
C98   Cl95  S    
C164  N6    S    
C165  H54   S    
H40   N4    S    
C206  O17   A    
C239  Cl23  S    
C240  Cl24  S    
C160  N2    S    
C164  H50   S    
C67   C202  S    
C161  H39   S    
C9    Cl41  S    
C153  H6    S    
C144  C175  A    
C20   Cl52  S    
C71   C230  A    
C19   Cl51  S    
C76   C235  A    
C21   Cl53  S    
C97   Cl94  S    
C148  Cl15  S    
C227  O8    A    
O16   Zn2   S    
C1    O45   A    
C23   Cl55  S    
C108  Cl105 S    
O25   Zn16  S    
C87   Cl84  S    
H9    N12   S    
C156  H21   S    
C26   Cl57  S    
C86   C123  A    
C102  Cl98  S    
C60   C115  S    
O48   Zn13  S    
C224  Cl58  S    
C230  Cl2   S    
C19   C231  A    
C243  Cl28  S    
C73   C232  A    
C202  O14   A    
C168  C195  A    
