data_mof_unit_30040.cif
_audit_creation_date              2012-12-10T17:48:54-0500
_audit_creation_method            fapswitch 2.2
_symmetry_space_group_name_H-M    P1
_symmetry_Int_Tables_number       1
_space_group_crystal_system       triclinic
_cell_length_a                    10.733053
_cell_length_b                    14.696509
_cell_length_c                    14.821261
_cell_angle_alpha                 64.169641
_cell_angle_beta                  104.261664
_cell_angle_gamma                 102.889882
_cell_volume                      2021.41661808

loop_
_atom_site_label
_atom_site_type_symbol
_atom_type_description
_atom_site_fract_x
_atom_site_fract_y
_atom_site_fract_z
_atom_type_partial_charge
C1    C     C_R   0.473834 0.120342 0.312187 0.812440
C2    C     C_R   0.416526 0.363986 0.081999 0.050976
C3    C     C_R   0.346700 0.326011 0.007919 0.085157
C4    C     C_R   0.260671 0.998926 0.502510 0.769084
C5    C     C_R   0.439857 0.470919 0.056630 0.089854
C6    C     C_R   0.409234 0.539567 0.953652 0.104337
C7    C     C_R   0.334457 0.499844 0.882904 -0.230625
C8    C     C_R   0.302379 0.395509 0.909993 -0.203452
C9    C     C_R   0.492552 0.511510 0.130912 -0.248256
C10   C     C_R   0.531160 0.615276 0.103393 -0.165791
C11   C     C_R   0.520557 0.681974 0.001097 0.030297
C12   C     C_3   0.878904 0.998946 0.503190 0.104720
C13   C     C_R   0.456931 0.645208 0.925019 0.017115
C14   C     C_R   0.575038 0.784744 0.973655 0.595370
C15   C     C_R   0.574077 0.849626 0.871557 -0.262836
C16   C     C_R   0.517124 0.880159 0.687705 0.837613
C17   C     C_R   0.451564 0.714174 0.822565 -0.279552
C18   C     C_R   0.752865 0.305243 0.629126 0.492012
C19   C     C_R   0.701805 0.213359 0.620146 -0.015083
C20   C     C_R   0.512339 0.282902 0.512011 -0.036272
C21   C     C_R   0.557701 0.378332 0.518992 -0.091506
C22   C     C_R   0.682494 0.388722 0.577115 0.032741
C23   C     C_3   0.919246 0.891200 0.571106 -0.395156
C24   C     C_R   0.485528 0.463629 0.470115 0.104631
C25   C     C_R   0.536628 0.554581 0.486746 0.095423
C26   C     C_R   0.667722 0.565615 0.531773 -0.247424
C27   C     C_R   0.737807 0.483384 0.579144 -0.154136
C28   C     C_R   0.740229 0.999038 0.501490 0.767098
C29   C     C_R   0.366232 0.462739 0.403581 -0.235995
C30   C     C_R   0.299750 0.547600 0.356337 -0.172572
C31   C     C_R   0.343372 0.632647 0.380489 0.122151
C32   C     C_R   0.457650 0.634239 0.451986 -0.052814
C33   C     C_R   0.272394 0.715470 0.335180 -0.308548
C34   C     C_3   0.965732 0.076236 0.546019 -0.366389
C35   C     C_R   0.312390 0.797793 0.363270 0.022450
C36   C     C_R   0.483844 0.713941 0.487754 0.392852
C37   C     C_3   0.046280 0.030368 0.394796 -0.459207
C38   C     C_3   0.902150 0.030236 0.393870 -0.380654
C39   C     C_3   0.062605 0.890545 0.570286 -0.355983
C40   C     C_3   0.110137 0.077013 0.546888 0.151789
C41   C     C_3   0.123546 0.998896 0.505018 0.121456
C42   C     C_3   0.187538 0.077797 0.989214 -0.657674
C43   C     C_3   0.535708 0.616903 0.673000 -0.671731
C44   C     C_3   0.151465 0.004749 0.741703 -0.687556
C45   C     C_R   0.438341 0.189336 0.205160 -0.112144
C46   C     C_R   0.515310 0.813750 0.795648 -0.143194
C47   C     C_R   0.321190 0.219377 0.033386 0.264999
C48   C     C_R   0.367088 0.152082 0.132838 -0.219603
C49   C     C_R   0.465474 0.294176 0.178439 -0.259129
Cu1   Cu    Cu3+1 0.465900 0.918260 0.475680 0.942649
Cu2   Cu    Cu3+1 0.534100 0.081740 0.524320 0.932124
F1    F     F_    0.634415 0.821339 0.045623 -0.680946
F2    F     F_    0.872013 0.313308 0.685816 -0.683033
H1    H     H_    0.053736 0.976749 0.362194 0.188211
H2    H     H_    0.527348 0.319850 0.234347 0.163577
H3    H     H_    0.087786 0.107703 0.345045 0.156293
H4    H     H_    0.296254 0.547679 0.806077 0.142263
H5    H     H_    0.503663 0.464921 0.211497 0.149462
H6    H     H_    0.836460 0.494521 0.617138 0.195817
H7    H     H_    0.259265 0.862774 0.326388 0.135714
H8    H     H_    0.210975 0.545267 0.302813 0.145477
H9    H     H_    0.757997 0.150163 0.656750 0.147230
H10   H     H_    0.421288 0.269804 0.466067 0.136552
H11   H     H_    0.874070 0.107514 0.343862 0.161173
H12   H     H_    0.944601 0.058254 0.621931 0.180991
H13   H     H_    0.718320 0.638096 0.530485 0.146142
H14   H     H_    0.324039 0.398860 0.383570 0.129300
H15   H     H_    0.186704 0.716767 0.277990 0.152458
H16   H     H_    0.840834 0.976212 0.361383 0.189768
H17   H     H_    0.067181 0.836005 0.537898 0.174086
H18   H     H_    0.858266 0.834655 0.542048 0.164164
H19   H     H_    0.143047 0.154237 0.490842 0.090183
H20   H     H_    0.939764 0.154418 0.496915 0.153215
H21   H     H_    0.292948 0.208049 0.894110 0.250986
H22   H     H_    0.119293 0.068429 0.923253 0.234492
H23   H     H_    0.118237 0.861904 0.648828 0.169110
H24   H     H_    0.130726 0.059353 0.049774 0.236075
H25   H     H_    0.260314 0.024302 0.016287 0.218226
H26   H     H_    0.660857 0.738899 0.581027 0.236663
H27   H     H_    0.582998 0.633891 0.740398 0.233143
H28   H     H_    0.572467 0.548327 0.682113 0.233149
H29   H     H_    0.429170 0.599776 0.670900 0.220748
H30   H     H_    0.261179 0.127143 0.643993 0.262828
H31   H     H_    0.236512 0.979335 0.802110 0.235992
H32   H     H_    0.083110 0.936317 0.741715 0.228201
H33   H     H_    0.104243 0.052814 0.760391 0.222322
H34   H     H_    0.903720 0.866954 0.650252 0.149999
H35   H     H_    0.244156 0.370034 0.852365 0.179897
H36   H     H_    0.402317 0.691571 0.761677 0.170831
H37   H     H_    0.621015 0.927495 0.852062 0.183294
H38   H     H_    0.574148 0.642562 0.162832 0.201356
H39   H     H_    0.347472 0.070509 0.154690 0.164587
N1    N     N_R   0.585360 0.204570 0.560800 -0.212348
N2    N     N_R   0.414550 0.795430 0.439160 -0.190633
N3    N     N_2   0.251029 0.182004 0.958031 -0.427354
N4    N     N_2   0.566622 0.703951 0.581745 -0.403080
N5    N     N_2   0.195205 0.063950 0.644792 -0.406471
O1    O     O_R   0.455060 0.022100 0.338110 -0.584786
O2    O     O_R   0.512640 0.160150 0.379180 -0.581365
O3    O     O_R   0.288900 0.930980 0.479450 -0.598044
O4    O     O_R   0.346480 0.069030 0.520520 -0.583717
O5    O     O_R   0.487360 0.839850 0.620820 -0.549479
O6    O     O_R   0.544940 0.977900 0.661890 -0.579453
O7    O     O_R   0.653520 0.930970 0.479480 -0.585707
O8    O     O_R   0.711100 0.069020 0.520550 -0.593614

loop_
_geom_bond_atom_site_label_1
_geom_bond_atom_site_label_2
_ccdc_geom_bond_type
C20   N1    A    
Cu1   O7    S    
C1    O2    A    
C7    C8    A    
C39   C41   S    
C12   C23   S    
C42   H22   S    
C29   C30   A    
C12   C28   S    
C34   C40   S    
C32   C36   A    
C18   C19   A    
C30   C31   A    
C11   C14   A    
C45   C48   A    
C4    C41   S    
C19   H9    S    
Cu2   O6    S    
C9    H5    S    
C36   N4    S    
C24   C29   A    
C18   F2    S    
C29   H14   S    
C37   H3    S    
C14   F1    S    
C47   C48   A    
C31   C33   A    
C9    C10   A    
C19   N1    A    
C25   C32   A    
C38   H16   S    
C23   H34   S    
C21   C22   A    
C12   C38   S    
C44   H33   S    
C34   H12   S    
Cu1   Cu2   S    
C38   H11   S    
Cu2   O2    S    
Cu1   O1    S    
C42   N3    S    
C26   H13   S    
C23   H18   S    
C17   H36   S    
C24   C25   A    
C3    C8    A    
C16   C46   S    
C40   N5    S    
Cu1   N2    S    
C43   H27   S    
C49   H2    S    
C35   H7    S    
C8    H35   S    
C5    C9    A    
C37   C38   S    
C2    C49   A    
C44   N5    S    
C28   O7    A    
C16   O6    A    
C31   C32   A    
C45   C49   A    
C28   O8    A    
Cu2   O8    S    
C4    O4    A    
C43   N4    S    
C26   C27   A    
C39   H23   S    
C17   C46   A    
Cu2   N1    S    
C37   H1    S    
C16   O5    A    
C40   C41   S    
C10   H38   S    
C42   H25   S    
C22   C27   A    
C4    O3    A    
H30   N5    S    
C43   H28   S    
C21   C24   A    
C2    C5    A    
C12   C34   S    
C44   H32   S    
C35   N2    A    
C40   H19   S    
C18   C22   A    
H21   N3    S    
C44   H31   S    
C1    O1    A    
Cu1   O5    S    
C6    C7    A    
Cu2   O4    S    
Cu1   O3    S    
C13   C17   A    
C20   H10   S    
C2    C3    A    
C25   C26   A    
H26   N4    S    
C27   H6    S    
C15   H37   S    
C11   C13   A    
C1    C45   S    
C5    C6    A    
C23   C39   S    
C3    C47   A    
C33   C35   A    
C39   H17   S    
C37   C41   S    
C10   C11   A    
C34   H20   S    
C36   N2    A    
C20   C21   A    
C42   H24   S    
C48   H39   S    
C30   H8    S    
C43   H29   S    
C47   N3    S    
C14   C15   A    
C15   C46   A    
C7    H4    S    
C33   H15   S    
C6    C13   A    
