data_mof_unit_36715.cif
_audit_creation_date              2012-12-10T20:51:42-0500
_audit_creation_method            fapswitch 2.2
_symmetry_space_group_name_H-M    P1
_symmetry_Int_Tables_number       1
_space_group_crystal_system       triclinic
_cell_length_a                    8.096938
_cell_length_b                    8.911822
_cell_length_c                    16.763843
_cell_angle_alpha                 89.531859
_cell_angle_beta                  93.392976
_cell_angle_gamma                 90.156761
_cell_volume                      1207.48947286

loop_
_atom_site_label
_atom_site_type_symbol
_atom_type_description
_atom_site_fract_x
_atom_site_fract_y
_atom_site_fract_z
_atom_type_partial_charge
C1    C     C_R   0.499833 0.217989 0.500017 0.935055
C2    C     C_R   0.500169 0.782010 0.500001 0.941486
C3    C     C_R   0.519712 0.492848 0.653956 0.908799
C4    C     C_R   0.480463 0.500367 0.346239 0.907424
C5    C     C_R   0.528574 0.457148 0.738859 -0.157854
C6    C     C_R   0.473665 0.486697 0.260353 -0.117533
C7    C     C_R   0.383643 0.417517 0.775702 -0.301226
C8    C     C_R   0.596826 0.404455 0.225837 -0.332684
C9    C     C_R   0.391152 0.369489 0.854610 0.479916
C10   C     C_R   0.595772 0.388791 0.143481 0.433785
C11   C     C_R   0.544723 0.370523 0.898749 0.098464
C12   C     C_R   0.473137 0.465361 0.094678 0.182112
C13   C     C_R   0.691416 0.406663 0.861895 0.147051
C14   C     C_R   0.351562 0.551238 0.129980 0.176562
C15   C     C_R   0.682273 0.448166 0.781490 -0.243444
C16   C     C_R   0.349339 0.557247 0.212971 -0.301248
C17   C     C_1   0.499782 0.065231 0.500020 -0.198406
C18   C     C_1   0.500223 0.934777 0.500014 -0.199414
H1    H     H_    0.694501 0.351578 0.263013 0.177081
H2    H     H_    0.263960 0.421883 0.743241 0.188051
H3    H     H_    0.795200 0.474899 0.752737 0.183733
H4    H     H_    0.255415 0.622550 0.240310 0.168575
N1    N     N_1   0.073640 0.500030 0.499990 -0.036367
N2    N     N_1   0.926360 0.499970 0.500010 -0.036492
N3    N     N_2   0.548889 0.359275 0.982099 -0.147100
N4    N     N_2   0.469501 0.463357 0.010405 -0.119669
O1    O     O_R   0.636850 0.285340 0.500000 -0.617482
O2    O     O_R   0.363150 0.714660 0.500000 -0.614416
O3    O     O_R   0.363100 0.285350 0.500000 -0.615868
O4    O     O_R   0.636900 0.714650 0.500000 -0.613879
O5    O     O_R   0.652140 0.498630 0.616140 -0.624000
O6    O     O_R   0.347860 0.501370 0.383860 -0.618216
O7    O     O_R   0.378390 0.498650 0.616130 -0.623954
O8    O     O_R   0.621610 0.501350 0.383870 -0.620608
Zn1   Zn    Zn3+2 0.682780 0.499990 0.500010 0.980225
Zn2   Zn    Zn3+2 0.317220 0.500010 0.499990 0.981428
O9    O     O_3   0.723259 0.311159 0.110816 -0.636118
C19   C     C_3   0.702653 0.155624 0.124752 0.092041
H5    H     H_    0.572869 0.119036 0.108976 0.129455
H6    H     H_    0.735032 0.128127 0.188628 0.141865
C20   C     C_3   0.817670 0.068410 0.072888 -0.335197
H7    H     H_    0.783685 0.091782 0.008810 0.215105
H8    H     H_    0.947508 0.105580 0.086069 0.224700
C21   C     C_3   0.805787 0.899692 0.087974 -0.973745
H9    H     H_    0.843309 0.872608 0.151234 0.271388
H10   H     H_    0.889514 0.840069 0.048948 0.260752
H11   H     H_    0.677405 0.859522 0.074202 0.268590
O10   O     O_3   0.245131 0.341625 0.891102 -0.629079
C22   C     C_3   0.225473 0.185651 0.904061 0.092855
H12   H     H_    0.344708 0.125071 0.917040 0.118740
H13   H     H_    0.153063 0.171246 0.957896 0.165158
C23   C     C_3   0.128396 0.114992 0.832573 -0.357814
H14   H     H_    0.012028 0.178654 0.819248 0.245867
H15   H     H_    0.203345 0.120950 0.779207 0.215005
C24   C     C_3   0.085496 0.951265 0.849159 -0.971749
H16   H     H_    0.200020 0.884870 0.862093 0.273558
H17   H     H_    0.017133 0.903162 0.795932 0.272293
H18   H     H_    0.005755 0.942917 0.900724 0.260936
N5    N     N_2   0.847305 0.408366 0.905989 -0.288969
H19   H     H_    0.854232 0.341580 0.956538 0.259239
C25   C     C_3   0.915910 0.556479 0.920135 -0.673814
H20   H     H_    0.038822 0.546538 0.952494 0.283587
H21   H     H_    0.833273 0.622695 0.956981 0.226441
H22   H     H_    0.932734 0.616243 0.862794 0.235159
N6    N     N_2   0.230512 0.631553 0.081822 -0.287212
H23   H     H_    0.118958 0.642941 0.107888 0.235666
C26   C     C_3   0.288656 0.772876 0.050755 -0.813458
H24   H     H_    0.187982 0.826727 0.013102 0.237716
H25   H     H_    0.395166 0.755045 0.013172 0.257976
H26   H     H_    0.325940 0.849637 0.100612 0.233180

loop_
_geom_bond_atom_site_label_1
_geom_bond_atom_site_label_2
_ccdc_geom_bond_type
C25   H22   S    
C3    O5    A    
C24   H16   S    
C21   H11   S    
O9    C19   S    
C13   N5    S    
C14   C16   A    
C2    C18   S    
C11   C13   A    
C20   H7    S    
C1    C17   S    
C23   C24   S    
C2    O4    A    
N1    N2    T    
C26   H26   S    
C1    O1    A    
O1    Zn1   S    
C22   H12   S    
C1    O3    A    
C17   C18   T    
N5    H19   S    
C24   H17   S    
C21   H9    S    
C19   H6    S    
C20   H8    S    
O3    Zn2   S    
C9    C11   A    
C16   H4    S    
C4    O6    A    
C10   C12   A    
O4    Zn1   S    
C9    O10   S    
C10   O9    S    
O6    Zn2   S    
C8    C10   A    
O10   C22   S    
C14   N6    S    
C23   H15   S    
N1    Zn2   S    
C4    O8    A    
C13   C15   A    
C25   H20   S    
O8    Zn1   S    
C20   C21   S    
O5    Zn1   S    
N5    C25   S    
N2    Zn1   S    
C5    C15   A    
C3    O7    A    
C26   H25   S    
C6    C16   A    
C26   H24   S    
C8    H1    S    
C15   H3    S    
O7    Zn2   S    
C19   H5    S    
C23   H14   S    
O2    Zn2   S    
C19   C20   S    
C7    C9    A    
N6    H23   S    
C24   H18   S    
C12   N4    S    
C5    C7    A    
C11   N3    S    
C2    O2    A    
C6    C8    A    
C21   H10   S    
C3    C5    S    
N3    N4    D    
C4    C6    S    
C7    H2    S    
C25   H21   S    
N6    C26   S    
C22   C23   S    
C12   C14   A    
C22   H13   S    
