data_mof_unit_33051.cif
_audit_creation_date              2013-03-05T16:05:09-0500
_audit_creation_method            fapswitch 2.2
_symmetry_space_group_name_H-M    P1
_symmetry_Int_Tables_number       1
_space_group_crystal_system       triclinic
_cell_length_a                    10.861321
_cell_length_b                    9.514574
_cell_length_c                    10.79165
_cell_angle_alpha                 89.9391
_cell_angle_beta                  90.575433
_cell_angle_gamma                 89.170414
_cell_volume                      1115.04425414

loop_
_atom_site_label
_atom_site_type_symbol
_atom_site_description
_atom_site_fract_x
_atom_site_fract_y
_atom_site_fract_z
_atom_type_partial_charge
O1    O     O_R   0.319660 0.618740 0.499990 -0.566812
O2    O     O_R   0.319660 0.381260 0.499990 -0.562733
C1    C     C_R   0.262152 0.501534 0.509680 0.891509
O3    O     O_R   0.499990 0.618790 0.317690 -0.530043
O4    O     O_R   0.499990 0.381210 0.317690 -0.546687
C2    C     C_R   0.492962 0.500604 0.259659 0.874955
Cu1   Cu    Cu3+1 0.500020 0.640660 0.500000 1.040617
Cu2   Cu    Cu3+1 0.500020 0.359340 0.500000 1.032817
O5    O     O_R   0.680370 0.618830 0.500010 -0.595324
O6    O     O_R   0.680370 0.381170 0.500010 -0.597133
O7    O     O_R   0.500030 0.618780 0.682310 -0.594551
O8    O     O_R   0.500030 0.381220 0.682310 -0.574316
C3    C     C_R   0.737612 0.499054 0.499368 0.799442
C4    C     C_R   0.498879 0.500266 0.740004 0.813197
C5    C     C_3   0.452451 0.657194 0.067180 0.497891
C6    C     C_3   0.387735 0.392232 0.066709 0.499497
C7    C     C_3   0.472679 0.654145 0.924432 -0.413892
C8    C     C_3   0.386410 0.409778 0.922022 -0.383187
H1    H     H_    0.396142 0.705917 0.872112 0.222002
H2    H     H_    0.299846 0.461220 0.888246 0.220403
H3    H     H_    0.554313 0.717172 0.899151 0.213906
H4    H     H_    0.389192 0.305144 0.876279 0.244442
H5    H     H_    0.688808 0.527164 0.107154 0.231078
H6    H     H_    0.645109 0.353445 0.114663 0.235526
H7    H     H_    0.694894 0.510824 0.896079 0.185987
H8    H     H_    0.635349 0.336935 0.901755 0.226672
C9    C     C_3   0.615955 0.456021 0.074151 -0.393323
C10   C     C_3   0.485684 0.502479 0.120887 -0.240630
C11   C     C_3   0.494009 0.501865 0.877320 -0.078500
C12   C     C_3   0.617673 0.447087 0.931710 -0.354310
C13   C     C_R   0.063395 0.383223 0.559463 -0.016380
C14   C     C_R   0.058419 0.628887 0.489339 0.024898
C15   C     C_R   0.935875 0.379767 0.544846 -0.183748
C16   C     C_R   0.931989 0.621494 0.475597 -0.178127
H9    H     H_    0.886212 0.287281 0.573263 0.179721
H10   H     H_    0.880226 0.715148 0.448378 0.186349
C17   C     C_R   0.870835 0.498105 0.502699 -0.069658
C18   C     C_R   0.127249 0.505684 0.522532 -0.152670
C19   C     C_R   0.407985 0.075942 0.442427 0.075310
C20   C     C_R   0.409120 0.927412 0.440857 0.116941
H11   H     H_    0.333116 0.132869 0.397793 0.173145
H12   H     H_    0.337234 0.873140 0.392099 0.183009
N1    N     N_R   0.500030 0.852070 0.500030 -0.181493
N2    N     N_R   0.500030 0.147930 0.500030 -0.183420
C21   C     C_R   0.590855 0.924038 0.560099 0.003562
C22   C     C_R   0.591196 0.072890 0.559568 0.010791
H13   H     H_    0.663332 0.866908 0.608751 0.134687
H14   H     H_    0.664007 0.127643 0.607601 0.130195
N3    N     N_R   0.532431 0.768806 0.118763 0.137696
O9    O     O_R   0.483739 0.882589 0.165348 -0.247702
O10   O     O_R   0.650897 0.766442 0.101936 -0.362619
N4    N     N_R   0.422494 0.244604 0.097708 0.144203
O11   O     O_R   0.351345 0.170120 0.167496 -0.276641
O12   O     O_R   0.509336 0.178292 0.038255 -0.345049
N5    N     N_R   0.322183 0.694557 0.095557 0.146772
O13   O     O_R   0.237805 0.707333 0.009445 -0.310341
O14   O     O_R   0.289076 0.715423 0.209633 -0.297936
N6    N     N_R   0.262025 0.418764 0.114931 0.154086
O15   O     O_R   0.245301 0.430319 0.233684 -0.341272
O16   O     O_R   0.166126 0.388748 0.046904 -0.284359
C23   C     C_2   0.123098 0.263023 0.625729 0.867160
O17   O     O_2   0.208631 0.282863 0.697805 -0.591813
O18   O     O_R   0.075938 0.127981 0.612149 -0.756309
H15   H     H_    0.119596 0.057151 0.668002 0.377304
C24   C     C_2   0.110125 0.771146 0.478647 0.878419
O19   O     O_2   0.169627 0.819838 0.564793 -0.604694
O20   O     O_R   0.081605 0.853920 0.374820 -0.687626
H16   H     H_    0.117258 0.951610 0.380691 0.349107

loop_
_geom_bond_atom_site_label_1
_geom_bond_atom_site_label_2
_geom_bond_distance
_ccdc_geom_bond_type
C6    C10   1.610913 S    
O4    Cu2   1.978176 S    
N5    O13   1.302942 A    
H6    C9    1.109627 S    
N5    O14   1.300618 A    
C11   C12   1.543849 S    
C14   C18   1.424670 A    
C16   C17   1.389506 A    
C7    C11   1.551002 S    
C13   C23   1.485705 S    
C16   H10   1.085361 S    
C13   C18   1.423167 A    
Cu2   O8    1.978627 S    
Cu1   O5    1.966826 S    
Cu1   N1    2.011478 S    
C20   H12   1.075692 S    
O2    C1    1.300575 A    
O8    C4    1.293057 A    
C24   O19   1.222326 D    
Cu1   Cu2   2.676640 S    
C19   H11   1.079568 S    
C8    C11   1.551205 S    
C6    N6    1.484378 S    
C21   C22   1.416327 A    
C5    N5    1.488768 S    
C9    C12   1.539898 S    
Cu1   O7    1.978187 S    
N1    C21   1.367439 A    
Cu2   N2    2.011475 S    
C5    C10   1.616081 S    
C19   N2    1.365012 A    
C23   O18   1.397379 S    
O3    Cu1   1.978617 S    
O4    C2    1.297497 A    
O3    C2    1.290549 A    
C7    H1    1.109323 S    
N4    O12   1.301985 A    
H8    C12   1.111723 S    
C8    H2    1.111674 S    
H5    C9    1.105222 S    
C5    N3    1.486768 S    
C23   O17   1.222523 D    
C15   H9    1.084363 S    
O7    C4    1.287783 A    
C7    H3    1.113606 S    
Cu2   O6    1.972807 S    
C24   O20   1.398476 S    
C13   C15   1.393275 A    
C4    C11   1.483426 S    
N6    O16   1.303492 A    
O18   H15   1.013141 S    
C19   C20   1.413196 A    
C22   H14   1.081559 S    
C6    N4    1.486101 S    
C2    C10   1.498939 S    
H7    C12   1.113451 S    
N4    O11   1.301162 A    
C6    C8    1.570035 S    
N3    O9    1.301682 A    
C21   H13   1.081443 S    
O2    Cu2   1.967013 S    
C9    C10   1.564749 S    
C5    C7    1.558496 S    
O5    C3    1.290310 A    
O1    Cu1   1.973018 S    
O1    C1    1.290697 A    
N6    O15   1.300701 A    
C8    H4    1.111842 S    
C3    C17   1.446967 S    
C20   N1    1.364723 A    
C15   C17   1.393938 A    
O20   H16   1.013882 S    
C1    C18   1.473122 S    
N2    C22   1.367044 A    
C14   C24   1.477747 S    
N3    O10   1.301125 A    
O6    C3    1.290301 A    
C14   C16   1.382505 A    
