data_mof_unit_51330.cif
_audit_creation_date              2012-12-11T14:44:03-0500
_audit_creation_method            fapswitch 2.2
_symmetry_space_group_name_H-M    P1
_symmetry_Int_Tables_number       1
_space_group_crystal_system       triclinic
_cell_length_a                    19.038657
_cell_length_b                    10.957954
_cell_length_c                    18.809162
_cell_angle_alpha                 89.916602
_cell_angle_beta                  89.698432
_cell_angle_gamma                 90.303469
_cell_volume                      3923.94258722

loop_
_atom_site_label
_atom_site_type_symbol
_atom_type_description
_atom_site_fract_x
_atom_site_fract_y
_atom_site_fract_z
_atom_type_partial_charge
C1    C     C_R   0.730939 0.381773 0.147593 0.551797
C2    C     C_R   0.268854 0.378690 0.852827 0.556535
C3    C     C_R   0.230939 0.881773 0.147593 0.551797
C4    C     C_R   0.768854 0.878691 0.852827 0.556536
C5    C     C_R   0.484348 0.402320 0.940563 -0.008885
C6    C     C_R   0.449427 0.351093 0.082899 -0.002695
C7    C     C_R   0.984348 0.902320 0.940563 -0.008885
C8    C     C_R   0.949427 0.851093 0.082899 -0.002695
C9    C     C_R   0.963937 0.997336 0.987202 -0.048713
C10   C     C_R   0.947735 0.971152 0.058834 -0.038238
C11   C     C_R   0.463937 0.497336 0.987202 -0.048713
C12   C     C_R   0.447735 0.471152 0.058834 -0.038238
C13   C     C_R   0.703280 0.878423 0.038152 0.438213
C14   C     C_R   0.315009 0.023375 0.984584 0.342589
C15   C     C_R   0.203280 0.378423 0.038152 0.438213
C16   C     C_R   0.815009 0.523375 0.984584 0.342589
C17   C     C_R   0.709000 0.849288 0.966851 -0.031579
C18   C     C_R   0.306873 0.989128 0.055976 -0.047694
C19   C     C_R   0.209000 0.349288 0.966851 -0.031579
C20   C     C_R   0.806873 0.489128 0.055976 -0.047694
C21   C     C_R   0.744360 0.927894 0.919984 -0.025916
C22   C     C_R   0.245615 0.926081 0.075815 -0.020642
C23   C     C_R   0.244360 0.427894 0.919984 -0.025916
C24   C     C_R   0.745615 0.426081 0.075815 -0.020642
C25   C     C_R   0.769272 0.041241 0.943351 -0.055199
C26   C     C_R   0.190866 0.915856 0.026519 -0.085030
C27   C     C_R   0.269272 0.541241 0.943351 -0.055199
C28   C     C_R   0.690866 0.415856 0.026519 -0.085030
C29   C     C_R   0.768078 0.067142 0.015949 -0.128330
C30   C     C_R   0.209225 0.911193 0.955745 -0.085641
C31   C     C_R   0.268078 0.567142 0.015949 -0.128330
C32   C     C_R   0.709225 0.411193 0.955745 -0.085641
C33   C     C_R   0.733915 0.986598 0.064003 -0.004896
C34   C     C_R   0.266943 0.980577 0.933552 0.028479
C35   C     C_R   0.233915 0.486598 0.064003 -0.004896
C36   C     C_R   0.766943 0.480577 0.933552 0.028479
C37   C     C_R   0.461106 0.064107 0.449111 0.432092
C38   C     C_R   0.445113 0.059660 0.520705 0.377226
C39   C     C_R   0.961107 0.564107 0.449111 0.432092
C40   C     C_R   0.945113 0.559660 0.520705 0.377227
C41   C     C_R   0.458900 0.160234 0.564329 -0.041803
C42   C     C_R   0.495481 0.166832 0.420905 -0.008496
C43   C     C_R   0.958900 0.660234 0.564329 -0.041804
C44   C     C_R   0.995481 0.666832 0.420905 -0.008496
C45   C     C_R   0.534237 0.153106 0.145013 0.533345
C46   C     C_R   0.469657 0.157431 0.852530 0.635112
C47   C     C_R   0.034237 0.653106 0.145013 0.533345
C48   C     C_R   0.969657 0.657431 0.852530 0.635112
C49   C     C_R   0.490543 0.265137 0.535681 -0.124909
C50   C     C_R   0.508509 0.268695 0.464099 -0.140343
C51   C     C_R   0.990542 0.765137 0.535681 -0.124910
C52   C     C_R   0.008509 0.768695 0.464099 -0.140343
C53   C     C_R   0.813851 0.924047 0.456089 0.341701
C54   C     C_R   0.213137 0.025878 0.526464 0.328370
C55   C     C_R   0.313851 0.424046 0.456089 0.341701
C56   C     C_R   0.713137 0.525877 0.526464 0.328370
C57   C     C_R   0.819645 0.923788 0.528689 0.384566
C58   C     C_R   0.213828 0.012252 0.453980 0.385103
C59   C     C_R   0.319645 0.423787 0.528689 0.384567
C60   C     C_R   0.713828 0.512252 0.453980 0.385102
C61   C     C_R   0.759745 0.906453 0.572328 -0.095557
C62   C     C_R   0.250675 0.915883 0.423338 -0.106385
C63   C     C_R   0.259745 0.406453 0.572328 -0.095557
C64   C     C_R   0.750675 0.415883 0.423338 -0.106385
C65   C     C_R   0.692929 0.896738 0.541531 -0.054502
C66   C     C_R   0.292986 0.839456 0.466609 -0.089496
C67   C     C_R   0.192929 0.396738 0.541531 -0.054501
C68   C     C_R   0.792986 0.339457 0.466609 -0.089496
C69   C     C_R   0.686989 0.904627 0.468019 0.339003
C70   C     C_R   0.289077 0.849642 0.540153 0.340695
C71   C     C_R   0.186989 0.404628 0.468019 0.339003
C72   C     C_R   0.789077 0.349642 0.540153 0.340695
C73   C     C_R   0.747669 0.922326 0.425411 -0.025895
C74   C     C_R   0.250404 0.944053 0.570245 -0.036859
C75   C     C_R   0.247670 0.422326 0.425411 -0.025894
C76   C     C_R   0.750404 0.444053 0.570245 -0.036860
C77   C     C_R   0.728577 0.017235 0.139757 0.560341
C78   C     C_R   0.272367 0.018682 0.859757 0.583206
C79   C     C_R   0.228577 0.517235 0.139757 0.560341
C80   C     C_R   0.772367 0.518682 0.859757 0.583206
C81   C     C_R   0.730375 0.378461 0.352150 0.573911
C82   C     C_R   0.271605 0.376960 0.646597 0.566650
C83   C     C_R   0.230375 0.878461 0.352150 0.573912
C84   C     C_R   0.771606 0.876960 0.646597 0.566650
C85   C     C_R   0.530907 0.157153 0.352615 0.582004
C86   C     C_R   0.438742 0.153199 0.638893 0.568054
C87   C     C_R   0.030907 0.657153 0.352615 0.582004
C88   C     C_R   0.938742 0.653199 0.638893 0.568054
C89   C     C_R   0.740870 0.970057 0.354073 0.604714
C90   C     C_R   0.258889 0.974820 0.644504 0.607711
C91   C     C_R   0.240870 0.470057 0.354073 0.604714
C92   C     C_R   0.758889 0.474820 0.644504 0.607711
C93   C     C_R   0.503121 0.173951 0.922577 0.017098
C94   C     C_R   0.509385 0.154374 0.071070 -0.047562
C95   C     C_R   0.003121 0.673951 0.922577 0.017098
C96   C     C_R   0.009385 0.654374 0.071070 -0.047562
C97   C     C_R   0.489215 0.279475 0.966224 -0.045981
C98   C     C_R   0.481349 0.260666 0.040507 -0.050264
C99   C     C_R   0.989215 0.779475 0.966224 -0.045981
C100  C     C_R   0.981349 0.760666 0.040507 -0.050264
C101  C     C_R   0.531427 0.057791 0.026928 0.398191
C102  C     C_R   0.528614 0.067862 0.954165 0.422727
C103  C     C_R   0.031427 0.557791 0.026928 0.398191
C104  C     C_R   0.028614 0.567862 0.954165 0.422727
Cr1   Cr    Cr6+3 0.772000 0.169640 0.250110 1.106468
Cr2   Cr    Cr6+3 0.228000 0.169640 0.749890 1.120080
Cr3   Cr    Cr6+3 0.272000 0.669640 0.250110 1.106468
Cr4   Cr    Cr6+3 0.728000 0.669640 0.749890 1.120080
Cr5   Cr    Cr6+3 0.614960 0.323350 0.249260 1.109422
Cr6   Cr    Cr6+3 0.385040 0.323350 0.750740 1.122075
Cr7   Cr    Cr6+3 0.114960 0.823350 0.249260 1.109422
Cr8   Cr    Cr6+3 0.885040 0.823350 0.750740 1.122075
Cr9   Cr    Cr6+3 0.616670 0.010620 0.250840 1.225787
Cr10  Cr    Cr6+3 0.383330 0.010620 0.749160 1.197054
Cr11  Cr    Cr6+3 0.116670 0.510620 0.250840 1.225787
Cr12  Cr    Cr6+3 0.883330 0.510620 0.749160 1.197054
H1    H     H_    0.690040 0.760862 0.949421 0.165181
H2    H     H_    0.346386 0.012848 0.094875 0.159014
H3    H     H_    0.190040 0.260862 0.949421 0.165181
H4    H     H_    0.846386 0.512848 0.094875 0.159014
H5    H     H_    0.503577 0.342576 0.568876 0.231916
H6    H     H_    0.536326 0.347990 0.443761 0.208468
H7    H     H_    0.003577 0.842576 0.568875 0.231916
H8    H     H_    0.036325 0.847990 0.443761 0.208468
O1    O     O_R   0.787540 0.042690 0.170470 -0.503733
O2    O     O_R   0.212460 0.042690 0.829530 -0.506188
O3    O     O_R   0.287540 0.542690 0.170470 -0.503733
O4    O     O_R   0.712460 0.542690 0.829530 -0.506188
O5    O     O_R   0.556540 0.252920 0.323970 -0.509731
O6    O     O_R   0.443460 0.252920 0.676030 -0.488899
O7    O     O_R   0.056540 0.752920 0.323970 -0.509732
O8    O     O_R   0.943460 0.752920 0.676030 -0.488899
O9    O     O_R   0.545870 0.051100 0.330840 -0.396827
O10   O     O_R   0.454130 0.051100 0.669160 -0.431131
O11   O     O_R   0.045870 0.551100 0.330840 -0.396827
O12   O     O_R   0.954130 0.551100 0.669160 -0.431131
O13   O     O_R   0.681340 0.959300 0.325510 -0.429698
O14   O     O_R   0.318660 0.959300 0.674490 -0.429358
O15   O     O_R   0.181340 0.459300 0.325510 -0.429698
O16   O     O_R   0.818660 0.459300 0.674490 -0.429358
O17   O     O_3   0.667880 0.167870 0.250070 -0.349426
O18   O     O_3   0.332120 0.167870 0.749930 -0.354070
O19   O     O_3   0.167880 0.667870 0.250070 -0.349426
O20   O     O_3   0.832120 0.667870 0.749930 -0.354070
O21   O     O_R   0.765660 0.292160 0.175050 -0.493733
O22   O     O_R   0.234340 0.292160 0.824950 -0.510244
O23   O     O_R   0.265660 0.792160 0.175050 -0.493733
O24   O     O_R   0.734340 0.792160 0.824950 -0.510244
O25   O     O_R   0.670190 0.408980 0.168550 -0.488991
O26   O     O_R   0.329810 0.408980 0.831450 -0.503947
O27   O     O_R   0.170190 0.908980 0.168550 -0.488991
O28   O     O_R   0.829810 0.908980 0.831450 -0.503947
O29   O     O_R   0.556580 0.251450 0.175160 -0.518502
O30   O     O_R   0.443420 0.251450 0.824840 -0.512719
O31   O     O_R   0.056580 0.751450 0.175160 -0.518502
O32   O     O_R   0.943420 0.751450 0.824840 -0.512719
O33   O     O_R   0.545920 0.049510 0.170320 -0.429877
O34   O     O_R   0.454080 0.049510 0.829680 -0.415629
O35   O     O_R   0.045920 0.549510 0.170320 -0.429877
O36   O     O_R   0.954080 0.549510 0.829680 -0.415629
O37   O     O_R   0.681390 0.957840 0.176710 -0.398780
O38   O     O_R   0.318610 0.957840 0.823290 -0.456219
O39   O     O_R   0.181390 0.457840 0.176710 -0.398780
O40   O     O_R   0.818610 0.457840 0.823290 -0.456219
O41   O     O_R   0.787500 0.044280 0.330990 -0.465426
O42   O     O_R   0.212500 0.044280 0.669010 -0.446566
O43   O     O_R   0.287500 0.544280 0.330990 -0.465426
O44   O     O_R   0.712500 0.544280 0.669010 -0.446566
O45   O     O_R   0.765610 0.293630 0.323860 -0.524357
O46   O     O_R   0.234390 0.293630 0.676140 -0.488138
O47   O     O_R   0.265610 0.793630 0.323860 -0.524357
O48   O     O_R   0.734390 0.793630 0.676140 -0.488138
O49   O     O_R   0.670140 0.410570 0.329080 -0.427839
O50   O     O_R   0.329860 0.410570 0.670920 -0.416713
O51   O     O_R   0.170140 0.910570 0.329080 -0.427839
O52   O     O_R   0.829860 0.910570 0.670920 -0.416713
F1    F     F_    0.555778 0.951224 0.053866 -0.537524
F2    F     F_    0.548836 0.970790 0.914198 -0.568820
F3    F     F_    0.055778 0.451224 0.053866 -0.537524
F4    F     F_    0.048836 0.470790 0.914198 -0.568820
F5    F     F_    0.873098 0.932987 0.415735 -0.561706
F6    F     F_    0.176482 0.121480 0.553162 -0.564292
F7    F     F_    0.373098 0.432986 0.415735 -0.561705
F8    F     F_    0.676481 0.621479 0.553162 -0.564291
F9    F     F_    0.884738 0.941260 0.555788 -0.555168
F10   F     F_    0.176888 0.092432 0.413755 -0.524944
F11   F     F_    0.384738 0.441259 0.555788 -0.555168
F12   F     F_    0.676887 0.592431 0.413755 -0.524944
C105  C     C_1   0.629831 0.884698 0.584227 0.385285
N1    N     N_1   0.579323 0.875011 0.618312 -0.140871
C106  C     C_1   0.344386 0.756194 0.437846 0.433076
N2    N     N_1   0.386625 0.691274 0.415160 -0.048017
C107  C     C_1   0.129831 0.384698 0.584227 0.385285
N3    N     N_1   0.079323 0.375012 0.618312 -0.140872
C108  C     C_1   0.844386 0.256194 0.437846 0.433076
N4    N     N_1   0.886625 0.191274 0.415160 -0.048016
F13   F     F_    0.621704 0.901392 0.439020 -0.536245
F14   F     F_    0.325981 0.771906 0.582153 -0.538262
F15   F     F_    0.121704 0.401393 0.439020 -0.536246
F16   F     F_    0.825981 0.271906 0.582153 -0.538262
C109  C     C_1   0.513798 0.438058 0.872215 0.249164
N5    N     N_1   0.537118 0.467735 0.817865 -0.218934
C110  C     C_1   0.415742 0.320654 0.150270 0.238489
N6    N     N_1   0.388745 0.296576 0.203802 -0.218921
C111  C     C_1   0.013798 0.938058 0.872215 0.249164
N7    N     N_1   0.037118 0.967735 0.817865 -0.218934
C112  C     C_1   0.915742 0.820654 0.150270 0.238489
N8    N     N_1   0.888745 0.796576 0.203802 -0.218922
C113  C     C_1   0.965979 0.123382 0.963092 0.249978
N9    N     N_1   0.968123 0.223677 0.943780 -0.118352
C114  C     C_1   0.944871 0.066665 0.112127 0.282867
N10   N     N_1   0.943983 0.141312 0.155628 -0.172980
C115  C     C_1   0.465979 0.623382 0.963092 0.249978
N11   N     N_1   0.468123 0.723677 0.943780 -0.118352
C116  C     C_1   0.444872 0.566665 0.112127 0.282867
N12   N     N_1   0.443983 0.641312 0.155628 -0.172980
F17   F     F_    0.672553 0.795699 0.082353 -0.552046
F18   F     F_    0.368539 0.097432 0.965472 -0.680022
F19   F     F_    0.172553 0.295699 0.082353 -0.552046
F20   F     F_    0.868539 0.597432 0.965472 -0.680022
C117  C     C_1   0.799854 0.127771 0.893158 0.249889
N13   N     N_1   0.824298 0.195955 0.852934 -0.211485
C118  C     C_1   0.134334 0.998733 0.040955 0.256193
N14   N     N_1   0.092424 0.070857 0.054396 -0.188593
C119  C     C_1   0.299854 0.627771 0.893158 0.249889
N15   N     N_1   0.324298 0.695955 0.852934 -0.211485
C120  C     C_1   0.634334 0.498733 0.040955 0.256193
N16   N     N_1   0.592424 0.570857 0.054396 -0.188593
C121  C     C_1   0.811376 0.166535 0.039758 0.201866
N17   N     N_1   0.849056 0.244087 0.056350 -0.247082
C122  C     C_1   0.171143 0.833106 0.907562 0.227521
N18   N     N_1   0.142533 0.769165 0.868195 -0.279412
C123  C     C_1   0.311376 0.666535 0.039758 0.201866
N19   N     N_1   0.349056 0.744087 0.056350 -0.247082
C124  C     C_1   0.671143 0.333106 0.907562 0.227521
N20   N     N_1   0.642533 0.269165 0.868195 -0.279412
F21   F     F_    0.447114 0.964731 0.408428 -0.559083
F22   F     F_    0.420096 0.954027 0.548341 -0.548211
F23   F     F_    0.947114 0.464731 0.408428 -0.559083
F24   F     F_    0.920096 0.454027 0.548341 -0.548210

loop_
_geom_bond_atom_site_label_1
_geom_bond_atom_site_label_2
_ccdc_geom_bond_type
C58   C62   A    
C71   C75   A    
C110  N6    T    
C82   O46   A    
C3    O23   A    
C101  C102  A    
C56   C76   A    
C48   C95   S    
C83   O51   A    
C58   F10   S    
C51   H7    S    
C109  N5    T    
C14   C18   A    
C1    O21   A    
C118  N14   T    
C50   H6    S    
Cr3   O43   S    
C20   H4    S    
C7    C111  S    
C43   C51   A    
C39   F23   S    
C97   C98   A    
C47   O35   A    
C115  N11   T    
C15   C19   A    
C41   C86   S    
C31   C123  S    
C121  N17   T    
C57   C61   A    
C7    C99   A    
C2    O26   A    
Cr7   O51   S    
C43   C88   S    
C64   C68   A    
C91   O43   A    
Cr12  O36   S    
C55   C59   A    
Cr1   O17   S    
Cr5   O49   S    
Cr10  O38   S    
C103  F3    S    
C72   F16   S    
C94   C98   A    
C95   C99   A    
C46   O34   A    
C29   C33   A    
C87   O7    A    
C37   C42   A    
Cr6   O18   S    
C120  N16   T    
C53   C73   A    
C80   O40   A    
C79   O3    A    
C103  C104  A    
C85   O5    A    
C4    O24   A    
C54   C74   A    
C86   O10   A    
C40   C43   A    
Cr10  O34   S    
C82   O50   A    
C94   C101  A    
C9    C113  S    
C83   O47   A    
C70   C74   A    
C124  N20   T    
Cr8   O28   S    
C25   C117  S    
C23   C27   A    
C65   C105  S    
C44   C87   S    
Cr5   O29   S    
C9    C10   A    
C18   H2    S    
C57   F9    S    
C2    O22   A    
C17   H1    S    
Cr1   O21   S    
C55   C75   A    
C44   C52   A    
Cr10  O18   S    
Cr4   O44   S    
Cr7   O31   S    
C19   H3    S    
C70   F14   S    
Cr12  O20   S    
C90   O42   A    
C69   F13   S    
Cr2   O46   S    
C46   O30   A    
C45   C94   S    
C28   C120  S    
C41   C49   A    
C90   O14   A    
C113  N9    T    
Cr11  O19   S    
Cr6   O50   S    
C25   C29   A    
C4    O28   A    
C63   C67   A    
Cr7   O19   S    
C30   C34   A    
C63   C82   S    
C27   C31   A    
C112  N8    T    
C20   C24   A    
C28   C32   A    
C45   O33   A    
C88   O12   A    
C38   C41   A    
C36   C80   S    
C47   C96   S    
C79   O39   A    
C39   C40   A    
C62   C66   A    
C86   O6    A    
Cr3   O47   S    
C59   F11   S    
C80   O4    A    
Cr6   O26   S    
C111  N7    T    
C17   C21   A    
C51   C52   A    
Cr11  O35   S    
C68   C72   A    
C62   C83   S    
C81   O49   A    
C30   C122  S    
C8    C112  S    
C19   C23   A    
C116  N12   T    
C73   C89   S    
C13   C33   A    
C37   C38   A    
Cr6   O30   S    
C53   F5    S    
C38   F22   S    
C117  N13   T    
Cr3   O23   S    
C92   O44   A    
C93   C97   A    
C37   F21   S    
C114  N10   T    
Cr9   O33   S    
Cr5   O25   S    
C16   C20   A    
C49   H5    S    
C66   C106  S    
C2    C23   S    
C54   F6    S    
C119  N15   T    
Cr10  O10   S    
C72   C76   A    
C11   C115  S    
C42   C85   S    
Cr8   O20   S    
Cr8   O8    S    
C69   C73   A    
C89   O41   A    
Cr1   O45   S    
C76   C92   S    
C91   O15   A    
Cr10  O14   S    
Cr7   O7    S    
Cr8   O32   S    
C122  N18   T    
C5    C97   A    
C26   C30   A    
C81   O45   A    
Cr4   O48   S    
C5    C11   A    
Cr5   O5    S    
C102  F2    S    
C49   C50   A    
C31   C35   A    
C59   C63   A    
C45   O29   A    
C88   O8    A    
C15   F19   S    
C78   O2    A    
C6    C12   A    
C6    C98   A    
Cr4   O20   S    
C77   O1    A    
C95   C104  A    
C78   O38   A    
C123  N19   T    
C106  N2    T    
C7    C9    A    
C21   C25   A    
Cr2   O18   S    
C53   C57   A    
C42   C50   A    
Cr8   O52   S    
C18   C22   A    
C3    O27   A    
Cr12  O40   S    
C8    C10   A    
C27   C119  S    
C24   C28   A    
Cr11  O15   S    
C1    O25   A    
C84   O48   A    
C61   C84   S    
Cr7   O27   S    
C93   C102  A    
C14   C34   A    
Cr5   O17   S    
C11   C12   A    
C32   C36   A    
C71   F15   S    
C39   C44   A    
Cr12  O12   S    
C75   C91   S    
C87   O11   A    
C56   F8    S    
Cr2   O2    S    
Cr6   O6    S    
C89   O13   A    
Cr2   O22   S    
C99   C100  A    
C13   C17   A    
C60   C64   A    
Cr9   O13   S    
C13   F17   S    
C48   O36   A    
C8    C100  A    
Cr1   O1    S    
C29   C121  S    
C6    C110  S    
C40   F24   S    
Cr11  O39   S    
C84   O52   A    
C34   C78   S    
C5    C109  S    
C4    C21   S    
C52   H8    S    
C33   C77   S    
C104  F4    S    
C46   C93   S    
Cr11  O11   S    
Cr2   O42   S    
C65   C69   A    
C74   C90   S    
C96   C100  A    
C35   C79   S    
C47   O31   A    
C77   O37   A    
Cr1   O41   S    
C16   F20   S    
C68   C108  S    
C67   C71   A    
Cr9   O17   S    
C61   C65   A    
C48   O32   A    
C105  N1    T    
C64   C81   S    
C15   C35   A    
C101  F1    S    
Cr9   O37   S    
C108  N4    T    
C56   C60   A    
C10   C114  S    
C54   C58   A    
C66   C70   A    
C1    C24   S    
C60   F12   S    
C107  N3    T    
C22   C26   A    
C96   C103  A    
C26   C118  S    
C55   F7    S    
C14   F18   S    
C3    C22   S    
Cr9   O9    S    
Cr3   O3    S    
C12   C116  S    
Cr12  O16   S    
C67   C107  S    
Cr3   O19   S    
C16   C36   A    
Cr4   O4    S    
C85   O9    A    
Cr4   O24   S    
C32   C124  S    
C92   O16   A    
