data_mof_unit_39257.cif
_audit_creation_date              2012-12-10T16:50:02-0500
_audit_creation_method            fapswitch 2.2
_symmetry_space_group_name_H-M    P1
_symmetry_Int_Tables_number       1
_space_group_crystal_system       triclinic
_cell_length_a                    7.761034
_cell_length_b                    8.624784
_cell_length_c                    10.636588
_cell_angle_alpha                 89.884203
_cell_angle_beta                  87.587123
_cell_angle_gamma                 92.687383
_cell_volume                      710.564592626

loop_
_atom_site_label
_atom_site_type_symbol
_atom_type_description
_atom_site_fract_x
_atom_site_fract_y
_atom_site_fract_z
_atom_type_partial_charge
C1    C     C_R   0.544141 0.794333 0.497025 0.923419
C2    C     C_R   0.455787 0.205888 0.504870 0.934188
C3    C     C_R   0.494957 0.508445 0.259499 0.883275
C4    C     C_R   0.241282 0.302223 0.886888 -0.140359
C5    C     C_R   0.083856 0.266962 0.951079 -0.131704
C6    C     C_R   0.042818 0.345207 0.062001 -0.176458
C7    C     C_R   0.165746 0.446727 0.114552 0.163241
C8    C     C_R   0.337212 0.455704 0.063621 0.056022
C9    C     C_R   0.364753 0.405257 0.940254 0.057147
C10   C     C_R   0.509617 0.469392 0.871433 -0.089702
C11   C     C_R   0.642364 0.551663 0.929708 -0.184733
C12   C     C_R   0.629591 0.573549 0.057075 -0.200736
C13   C     C_R   0.481331 0.521215 0.125445 -0.097847
C14   C     C_2   0.564573 0.954776 0.516564 0.135048
C15   C     C_2   0.433800 0.045254 0.488931 -0.128110
C16   C     C_R   0.502650 0.486557 0.739049 0.873222
Cl1   Cl    Cl    0.747675 0.014974 0.602892 -0.590615
H1    H     H_    0.752797 0.603245 0.876443 0.182277
H2    H     H_    0.986434 0.618372 0.591606 0.218305
H3    H     H_    0.265293 0.250921 0.795328 0.158248
H4    H     H_    0.988111 0.190303 0.909087 0.183473
H5    H     H_    0.911449 0.337168 0.100771 0.174397
H6    H     H_    0.733204 0.635175 0.102356 0.196835
H7    H     H_    0.013329 0.380208 0.409573 0.220708
I1    I     I_    0.063065 0.644419 0.201566 -0.314422
I2    I     I_    0.204954 0.983417 0.390182 -0.230921
N1    N     N_2   0.950330 0.457950 0.466250 -0.138600
N2    N     N_2   0.049670 0.542050 0.533750 -0.142689
O1    O     O_R   0.389250 0.738570 0.508280 -0.600317
O2    O     O_R   0.678390 0.711630 0.486650 -0.581167
O3    O     O_R   0.355400 0.513470 0.694050 -0.617756
O4    O     O_R   0.644540 0.486530 0.672420 -0.621212
O5    O     O_R   0.321610 0.288370 0.513350 -0.620355
O6    O     O_R   0.610750 0.261430 0.491720 -0.566750
O7    O     O_R   0.355460 0.513470 0.327580 -0.605236
O8    O     O_R   0.644600 0.486530 0.305950 -0.614860
Zn1   Zn    Zn3+2 0.306930 0.517990 0.514440 1.010100
Zn2   Zn    Zn3+2 0.693070 0.482010 0.485560 1.024645

loop_
_geom_bond_atom_site_label_1
_geom_bond_atom_site_label_2
_ccdc_geom_bond_type
C11   C12   A    
C11   H1    S    
C6    C7    A    
H2    N2    S    
O4    Zn2   S    
C16   O4    A    
C9    C10   A    
C14   Cl1   S    
H7    N1    S    
C3    O7    A    
C2    O6    A    
C6    H5    S    
O8    Zn2   S    
C7    C8    A    
C10   C16   S    
C7    I1    S    
C16   O3    A    
C2    C15   S    
C12   H6    S    
C8    C13   A    
C3    O8    A    
N2    Zn1   S    
C2    O5    A    
C1    O1    A    
C1    O2    A    
O7    Zn1   S    
C5    C6    A    
C10   C11   A    
N1    Zn2   S    
C4    H3    S    
C5    H4    S    
C12   C13   A    
O2    Zn2   S    
O1    Zn1   S    
N1    N2    D    
C14   C15   D    
C8    C9    A    
C15   I2    S    
C1    C14   S    
C4    C9    A    
O6    Zn2   S    
O5    Zn1   S    
O3    Zn1   S    
C4    C5    A    
C3    C13   S    
