data_mof_unit_21937.cif
_audit_creation_date              2013-03-05T15:50:08-0500
_audit_creation_method            fapswitch 2.2
_symmetry_space_group_name_H-M    P1
_symmetry_Int_Tables_number       1
_space_group_crystal_system       triclinic
_cell_length_a                    19.839792
_cell_length_b                    19.925
_cell_length_c                    19.865355
_cell_angle_alpha                 110.980383
_cell_angle_beta                  107.091364
_cell_angle_gamma                 110.681272
_cell_volume                      6013.36989701

loop_
_atom_site_label
_atom_site_type_symbol
_atom_site_description
_atom_site_fract_x
_atom_site_fract_y
_atom_site_fract_z
_atom_type_partial_charge
C1    C     C_R   0.667211 0.930876 0.970787 -0.128266
C2    C     C_R   0.340620 0.070297 0.068577 -0.120726
H1    H     H_    0.653339 0.867066 0.944249 0.106400
H2    H     H_    0.362934 0.134395 0.113068 0.101595
N1    N     N_R   0.613530 0.956740 0.956480 -0.048012
N2    N     N_R   0.386470 0.043260 0.043520 -0.045143
C3    C     C_R   0.544469 0.071625 0.236455 -0.182008
C4    C     C_R   0.499279 0.928769 0.770706 -0.212484
H3    H     H_    0.584865 0.136554 0.284928 0.135761
H4    H     H_    0.480560 0.864764 0.729828 0.128729
N3    N     N_R   0.499750 0.043260 0.156770 -0.061681
N4    N     N_R   0.500250 0.956740 0.843230 -0.061336
C5    C     C_R   0.728875 0.229382 0.159253 -0.103202
C6    C     C_R   0.263708 0.807684 0.833925 -0.103227
H5    H     H_    0.769670 0.252710 0.136646 0.145197
H6    H     H_    0.214881 0.799366 0.849674 0.106422
N5    N     N_R   0.656790 0.157020 0.113500 -0.048203
N6    N     N_R   0.343210 0.842980 0.886500 -0.042264
C7    C     C_R   0.435709 0.773698 0.004689 0.554473
C8    C     C_R   0.566898 0.228479 0.999026 0.544930
N7    N     N_R   0.456490 0.842980 0.999750 -0.097073
N8    N     N_R   0.543510 0.157020 0.000250 -0.091700
C9    C     C_R   0.659172 0.229579 0.228905 -0.136865
C10   C     C_R   0.333767 0.807607 0.763723 -0.126555
H7    H     H_    0.636530 0.253166 0.269718 0.102977
H8    H     H_    0.349229 0.799012 0.714711 0.110314
N9    N     N_R   0.613500 0.157010 0.156770 -0.046544
N10   N     N_R   0.386500 0.842990 0.843230 -0.045952
C11   C     C_R   0.510531 0.777736 0.939593 -0.195699
C12   C     C_R   0.497991 0.227397 0.069939 -0.211542
H9    H     H_    0.538499 0.759036 0.902983 0.129755
H10   H     H_    0.478828 0.248700 0.115084 0.133777
N11   N     N_R   0.499770 0.842990 0.956480 -0.071319
N12   N     N_R   0.500230 0.157010 0.043520 -0.071615
C13   C     C_R   0.470344 0.931914 0.168114 0.341537
C14   C     C_R   0.574067 0.067806 0.841941 0.331989
N13   N     N_R   0.456470 0.956710 0.113500 -0.090869
N14   N     N_R   0.543530 0.043290 0.886500 -0.094927
C15   C     C_R   0.736725 0.071093 0.042134 -0.031410
C16   C     C_R   0.271124 0.930593 0.000234 -0.098194
H11   H     H_    0.785493 0.135900 0.082189 0.117676
H12   H     H_    0.230227 0.867381 0.983191 0.131199
N15   N     N_R   0.656800 0.043290 0.999750 -0.038310
N16   N     N_R   0.343200 0.956710 0.000250 -0.048776
C17   C     C_R   0.743900 0.001455 0.026203 0.048087
C18   C     C_R   0.268116 0.000550 0.041843 0.075236
C19   C     C_R   0.528593 0.002682 0.244480 -0.076070
C20   C     C_R   0.543814 0.997211 0.767924 -0.064786
C21   C     C_R   0.731837 0.275048 0.231946 0.079506
C22   C     C_R   0.257069 0.787124 0.757186 0.074301
C23   C     C_R   0.474749 0.735590 0.972272 -0.102215
C24   C     C_R   0.540791 0.274239 0.044612 -0.090333
Ni1   Ni    Ni4+2 0.500010 0.900760 0.900750 0.200556
Ni2   Ni    Ni4+2 0.499990 0.099240 0.099250 0.198327
Ni3   Ni    Ni4+2 0.599260 0.099260 0.000000 0.299606
Ni4   Ni    Ni4+2 0.400740 0.900740 0.000000 0.283306
C25   C     C_3   0.599029 0.584215 0.153704 -0.313735
C26   C     C_3   0.536928 0.521699 0.989351 -0.341027
C27   C     C_3   0.640681 0.626917 0.113034 -0.345616
C28   C     C_3   0.495473 0.480713 0.029808 -0.379429
H13   H     H_    0.698068 0.688726 0.146992 0.153329
H14   H     H_    0.436144 0.420766 0.996639 0.154334
H15   H     H_    0.623396 0.607604 0.220475 0.162247
H16   H     H_    0.511855 0.497068 0.922288 0.150719
C29   C     C_1   0.505589 0.691368 0.000032 -0.049125
C30   C     C_1   0.565371 0.359278 0.074223 -0.017869
C31   C     C_3   0.515717 0.565922 0.094351 0.664492
C32   C     C_3   0.620429 0.540614 0.048096 0.678906
C33   C     C_3   0.556012 0.606794 0.054074 0.053943
C34   C     C_3   0.579635 0.499125 0.088002 0.038576
C35   C     C_1   0.531695 0.655744 0.026222 0.039647
C36   C     C_1   0.578718 0.427429 0.089460 0.006901
C37   C     C_3   0.669172 0.017124 0.570974 -0.270995
C38   C     C_3   0.519337 0.983073 0.472927 -0.275091
C39   C     C_3   0.609094 0.943748 0.481165 0.455315
C40   C     C_3   0.578755 0.056205 0.561300 0.447593
H17   H     H_    0.729872 0.029374 0.610949 0.170066
H18   H     H_    0.458256 0.970512 0.433371 0.176786
H19   H     H_    0.488990 0.859282 0.479282 0.168658
H20   H     H_    0.698834 0.140866 0.563208 0.170674
C41   C     C_1   0.559219 0.004994 0.319470 0.072731
C42   C     C_1   0.569259 0.994179 0.708110 0.089160
C43   C     C_3   0.652225 0.077395 0.544801 -0.287171
C44   C     C_3   0.535769 0.922874 0.498106 -0.292932
C45   C     C_3   0.592964 0.002757 0.456004 -0.001922
C46   C     C_3   0.594969 0.997413 0.587152 -0.002484
C47   C     C_1   0.579735 0.004880 0.381946 0.110375
C48   C     C_1   0.585715 0.994394 0.655253 0.086270
C49   C     C_3   0.968676 0.587708 0.412817 -0.337553
C50   C     C_3   0.987573 0.566697 0.543168 -0.344031
C51   C     C_3   0.970295 0.643383 0.492034 0.684094
C52   C     C_3   0.986918 0.512424 0.465366 0.684581
H21   H     H_    0.958760 0.594811 0.358416 0.154758
H22   H     H_    0.996698 0.557934 0.596635 0.154666
H23   H     H_    0.856936 0.556091 0.498159 0.154779
H24   H     H_    0.099667 0.598923 0.458632 0.152166
C53   C     C_1   0.183362 0.747611 0.683470 -0.053066
C54   C     C_1   0.791057 0.360259 0.291238 -0.022496
C55   C     C_3   0.044530 0.588781 0.466617 -0.352413
C56   C     C_3   0.912026 0.565863 0.490130 -0.356766
C57   C     C_3   0.044880 0.644308 0.544636 0.051587
C58   C     C_3   0.912062 0.510676 0.412367 0.029614
C59   C     C_1   0.120460 0.706962 0.620469 0.027525
C60   C     C_1   0.843605 0.430453 0.343807 0.044975
C61   C     C_3   0.023263 0.938901 0.102737 0.690482
C62   C     C_3   0.020345 0.063087 0.085421 0.691019
C63   C     C_3   0.022757 0.011689 0.166230 -0.349251
C64   C     C_3   0.019698 0.990195 0.022270 -0.377249
H25   H     H_    0.021565 0.019331 0.223926 0.152959
H26   H     H_    0.019630 0.979784 0.963476 0.155057
H27   H     H_    0.144816 0.135286 0.209425 0.153635
H28   H     H_    0.898769 0.866414 0.979181 0.157807
C65   C     C_1   0.817763 0.001950 0.058408 -0.025893
C66   C     C_1   0.209183 0.000817 0.067813 -0.034612
C67   C     C_3   0.954564 0.927145 0.030211 -0.349295
C68   C     C_3   0.088838 0.074922 0.158123 -0.325979
C69   C     C_3   0.955283 0.001042 0.093116 0.032495
C70   C     C_3   0.087787 0.000989 0.094994 0.045851
C71   C     C_1   0.880301 0.001734 0.079706 0.042687
C72   C     C_1   0.156605 0.000770 0.085036 0.035501
O1    O     O_3   0.672694 0.518777 0.022182 -0.686122
C73   C     C_3   0.728381 0.583478 0.018419 0.175829
H29   H     H_    0.777836 0.570369 0.015878 0.145655
H30   H     H_    0.759656 0.645854 0.074724 0.090649
C74   C     C_3   0.687208 0.585252 0.940989 -0.320528
H31   H     H_    0.655154 0.521733 0.885839 0.218833
H32   H     H_    0.641410 0.604126 0.944384 0.193380
C75   C     C_3   0.750187 0.647672 0.932098 -0.999790
H33   H     H_    0.780873 0.711959 0.985505 0.254054
H34   H     H_    0.718773 0.646913 0.875213 0.275602
H35   H     H_    0.797165 0.630832 0.928000 0.270423
O2    O     O_3   0.461123 0.585131 0.117433 -0.669485
C76   C     C_3   0.428299 0.535132 0.147837 0.165967
H36   H     H_    0.478202 0.544403 0.200828 0.109889
H37   H     H_    0.390497 0.467762 0.098473 0.096597
C77   C     C_3   0.373310 0.560509 0.177017 -0.208465
H38   H     H_    0.410150 0.627888 0.225947 0.235300
H39   H     H_    0.323172 0.551648 0.124774 0.194653
C78   C     C_3   0.335661 0.508536 0.210824 -1.019994
H40   H     H_    0.297406 0.441056 0.162462 0.270879
H41   H     H_    0.296067 0.528435 0.231337 0.279283
H42   H     H_    0.384736 0.517720 0.264196 0.273721
N17   N     N_R   0.625844 0.881280 0.436531 0.236659
O3    O     O_R   0.638614 0.834407 0.464168 -0.404643
O4    O     O_R   0.627659 0.871608 0.368907 -0.379695
N18   N     N_R   0.560959 0.119322 0.602872 0.238362
O5    O     O_R   0.549163 0.164650 0.572510 -0.399598
O6    O     O_R   0.555457 0.130113 0.669133 -0.390978
O7    O     O_3   0.965793 0.716412 0.509923 -0.662468
C79   C     C_3   0.889103 0.696707 0.452451 0.180953
H43   H     H_    0.862765 0.725830 0.487540 0.140394
H44   H     H_    0.842388 0.628323 0.412334 0.081418
C80   C     C_3   0.901656 0.733534 0.398465 -0.289691
H45   H     H_    0.942135 0.802775 0.437779 0.217171
H46   H     H_    0.932074 0.708535 0.366224 0.197716
C81   C     C_3   0.819807 0.711772 0.334542 -0.976231
H47   H     H_    0.779773 0.642809 0.292372 0.265887
H48   H     H_    0.830744 0.740823 0.297575 0.276400
H49   H     H_    0.787838 0.735750 0.365189 0.282054
O8    O     O_3   0.990911 0.439111 0.447653 -0.664827
C82   C     C_3   0.068049 0.458425 0.503571 0.171355
H50   H     H_    0.056554 0.416115 0.528406 0.134179
H51   H     H_    0.106449 0.523767 0.557734 0.082431
C83   C     C_3   0.115928 0.442086 0.458046 -0.271955
H52   H     H_    0.079723 0.375445 0.407427 0.216757
H53   H     H_    0.125721 0.482115 0.430646 0.195789
C84   C     C_3   0.199220 0.460828 0.515756 -1.005107
H54   H     H_    0.237186 0.527725 0.565822 0.266294
H55   H     H_    0.232166 0.447961 0.480799 0.275286
H56   H     H_    0.190951 0.420577 0.543026 0.269440
O9    O     O_3   0.030429 0.873867 0.110753 -0.657950
C85   C     C_3   0.966080 0.827805 0.121790 0.163790
H57   H     H_    0.937916 0.760286 0.076897 0.139546
H58   H     H_    0.915537 0.841921 0.110330 0.074532
C86   C     C_3   0.001461 0.842754 0.208779 -0.244488
H59   H     H_    0.051046 0.827651 0.219723 0.220618
H60   H     H_    0.028480 0.909808 0.254276 0.192712
C87   C     C_3   0.935534 0.788747 0.221503 -1.043670
H61   H     H_    0.885017 0.802465 0.210664 0.266151
H62   H     H_    0.963010 0.802447 0.285645 0.281799
H63   H     H_    0.910135 0.721274 0.178921 0.267407
O10   O     O_3   0.015019 0.130726 0.081493 -0.667092
C88   C     C_3   0.055012 0.157191 0.039749 0.206635
H64   H     H_    0.035219 0.198481 0.025862 0.150921
H65   H     H_    0.035134 0.104291 0.979152 0.084879
C89   C     C_3   0.148976 0.207943 0.092879 -0.341882
H66   H     H_    0.166667 0.258701 0.153852 0.220014
H67   H     H_    0.171565 0.166747 0.102355 0.194463
C90   C     C_3   0.190542 0.246526 0.051900 -0.998869
H68   H     H_    0.174275 0.196638 0.991149 0.271004
H69   H     H_    0.258295 0.282045 0.091280 0.266717
H70   H     H_    0.171235 0.290158 0.043362 0.269586
O11   O     O_3   0.361602 0.733494 0.003624 -0.644339
C91   C     C_3   0.347175 0.662184 0.010679 0.304496
H71   H     H_    0.307637 0.656056 0.040373 0.161405
H72   H     H_    0.403658 0.669362 0.053001 0.137933
C92   C     C_3   0.299564 0.582397 0.925507 -0.388867
H73   H     H_    0.238745 0.573593 0.890929 0.219464
H74   H     H_    0.332781 0.587905 0.889765 0.211686
C93   C     C_3   0.286491 0.505367 0.932230 -0.956423
H75   H     H_    0.346436 0.510549 0.961991 0.288829
H76   H     H_    0.248722 0.448455 0.869773 0.268476
H77   H     H_    0.254008 0.498507 0.968474 0.262639
O12   O     O_3   0.626683 0.258615 0.977854 -0.631134
C94   C     C_3   0.608401 0.295809 0.931456 0.238350
H78   H     H_    0.658069 0.314751 0.915051 0.187388
H79   H     H_    0.611824 0.354696 0.968468 0.132047
C95   C     C_3   0.526019 0.235911 0.850956 -0.410723
H80   H     H_    0.524246 0.177600 0.814322 0.249095
H81   H     H_    0.474113 0.219069 0.864690 0.180501
C96   C     C_3   0.514296 0.276620 0.799808 -0.814131
H82   H     H_    0.514915 0.334747 0.834995 0.240328
H83   H     H_    0.454309 0.232549 0.742515 0.268558
H84   H     H_    0.563953 0.292186 0.782857 0.287774
N19   N     N_R   0.413438 0.855103 0.156285 0.236671
O13   O     O_R   0.438873 0.823792 0.198428 -0.407832
O14   O     O_R   0.335057 0.826403 0.117003 -0.382763
N20   N     N_R   0.650995 0.142897 0.878455 0.246448
O15   O     O_R   0.706283 0.175472 0.953551 -0.394170
O16   O     O_R   0.670738 0.172162 0.833836 -0.373517

loop_
_geom_bond_atom_site_label_1
_geom_bond_atom_site_label_2
_geom_bond_distance
_ccdc_geom_bond_type
C91   H72   1.109044 S    
O9    C85   1.414674 S    
C49   C58   1.544045 S    
C92   C93   1.525391 S    
C63   H25   1.109454 S    
C6    N6    1.339953 A    
C31   O2    1.410317 S    
C88   H64   1.110941 S    
C13   C19   1.382707 A    
C75   H33   1.110555 S    
C69   C71   1.438181 S    
C82   H50   1.110977 S    
N9    Ni2   1.848456 S    
C15   H11   1.079767 S    
C94   H78   1.110773 S    
C2    C18   1.375853 A    
C16   C18   1.375652 A    
C61   C63   1.549878 S    
C95   H80   1.109670 S    
C74   H31   1.111543 S    
C38   C40   1.527524 S    
C49   C55   1.556595 S    
C1    N1    1.339866 A    
C64   C67   1.545341 S    
N1    Ni1   1.848770 S    
C83   H52   1.111678 S    
C13   N13   1.342124 A    
N2    Ni2   1.848770 S    
C51   C57   1.529706 S    
N19   O14   1.301229 A    
H19   C44   1.110267 S    
C78   H42   1.110872 S    
C46   C48   1.436655 S    
C39   C44   1.537268 S    
C9    C21   1.374719 A    
C91   C92   1.534947 S    
N7    N11   1.382036 A    
C92   H73   1.111562 S    
C26   C28   1.540572 S    
N17   O3    1.300157 A    
H24   C55   1.109717 S    
C11   N11   1.332075 A    
C63   C69   1.543549 S    
C86   H60   1.110810 S    
C28   H14   1.110765 S    
C23   C29   1.408998 S    
N3    N13   1.381605 A    
O10   C88   1.414102 S    
C62   O10   1.415847 S    
C3    N3    1.338665 A    
C21   C54   1.412764 S    
C65   C71   1.189547 T    
N13   Ni4   1.847440 S    
N20   O16   1.300741 A    
C39   C45   1.525520 S    
C30   C36   1.187544 T    
N14   Ni3   1.847442 S    
C96   H82   1.111445 S    
C28   C31   1.531194 S    
C68   C70   1.543766 S    
C93   H75   1.109450 S    
C67   C69   1.544931 S    
C79   C80   1.530377 S    
C74   C75   1.525990 S    
C50   H22   1.110624 S    
H27   C68   1.110007 S    
C9    N9    1.338964 A    
C25   C34   1.544487 S    
C80   H46   1.110669 S    
N5    Ni3   1.847242 S    
N4    Ni1   1.860628 S    
C42   C48   1.188652 T    
C85   C86   1.529173 S    
N6    Ni4   1.847244 S    
C15   C17   1.377391 A    
C16   H12   1.081971 S    
C91   H71   1.110915 S    
N1    N15   1.381606 A    
C40   N18   1.459296 S    
C93   H77   1.110588 S    
C57   C59   1.442085 S    
N2    N16   1.381604 A    
C10   C22   1.380634 A    
C37   C39   1.546759 S    
C73   H30   1.110230 S    
C2    N2    1.336312 A    
C25   C31   1.541522 S    
H20   C43   1.110063 S    
C83   C84   1.525950 S    
C40   C43   1.534796 S    
C50   C56   1.548724 S    
C82   H51   1.116952 S    
C85   H58   1.116852 S    
C25   H15   1.109778 S    
C86   C87   1.525663 S    
N18   O6    1.299689 A    
C73   H29   1.110930 S    
C45   C47   1.435460 S    
N11   Ni1   1.860756 S    
N8    N12   1.382033 A    
C78   H40   1.110145 S    
C27   H13   1.109633 S    
N4    N14   1.381605 A    
C33   C35   1.432496 S    
C18   C66   1.410756 S    
N5    N9    1.382194 A    
C64   C70   1.543833 S    
N6    N10   1.382194 A    
C8    O12   1.383950 S    
C84   H55   1.110362 S    
C88   C89   1.536055 S    
C14   N20   1.432924 S    
C84   H54   1.111042 S    
C51   O7    1.411311 S    
C12   N12   1.332259 A    
H23   C56   1.110097 S    
O2    C76   1.408985 S    
C19   C41   1.410522 S    
C15   N15   1.338277 A    
C26   H16   1.110395 S    
C29   C35   1.186810 T    
C62   C68   1.537612 S    
C1    H1    1.075990 S    
C77   C78   1.525717 S    
C90   H70   1.110822 S    
C2    H2    1.081933 S    
N19   O13   1.301078 A    
C4    C20   1.369330 A    
C50   C57   1.546352 S    
C7    C23   1.396282 A    
C27   C32   1.549631 S    
C76   C77   1.527547 S    
C88   H65   1.111002 S    
N16   Ni4   1.856210 S    
C50   C52   1.529624 S    
C86   H59   1.111675 S    
C28   C34   1.545366 S    
C4    N4    1.337061 A    
C96   H83   1.110328 S    
C3    H3    1.079440 S    
C56   C58   1.542820 S    
C41   C47   1.188167 T    
C92   H74   1.109164 S    
C58   C60   1.440464 S    
C80   C81   1.527651 S    
O1    C73   1.414112 S    
C53   C59   1.192427 T    
N3    Ni2   1.860623 S    
C39   N17   1.456339 S    
C27   C33   1.544626 S    
C5    C21   1.374098 A    
C84   H56   1.110864 S    
C93   H76   1.110231 S    
C55   C57   1.544832 S    
C8    N8    1.344587 A    
N12   Ni2   1.860761 S    
C5    H5    1.081777 S    
C62   C69   1.530356 S    
C76   H36   1.114204 S    
C51   C56   1.547537 S    
C79   H44   1.116650 S    
C61   C70   1.525200 S    
C49   C51   1.550188 S    
C89   H67   1.109484 S    
C14   N14   1.343517 A    
C75   H35   1.110784 S    
C40   C46   1.529479 S    
C82   C83   1.529306 S    
C24   C30   1.410256 S    
C85   H57   1.111034 S    
C77   H39   1.111611 S    
C76   H37   1.113534 S    
N18   O5    1.300248 A    
C11   C23   1.367766 A    
C94   C95   1.540212 S    
C26   C32   1.534933 S    
N17   O4    1.300392 A    
C12   C24   1.368531 A    
C81   H47   1.111050 S    
C22   C53   1.416049 S    
C61   O9    1.410421 S    
C43   C45   1.540441 S    
C61   C67   1.538473 S    
C81   H49   1.110808 S    
C10   N10   1.340349 A    
C38   C44   1.550864 S    
C77   H38   1.111856 S    
C75   H34   1.110300 S    
C32   O1    1.414767 S    
N7    Ni4   1.856386 S    
C87   H62   1.110320 S    
N10   Ni1   1.848456 S    
C64   H26   1.110186 S    
C26   C33   1.539669 S    
C7    O11   1.393377 S    
N8    Ni3   1.856386 S    
N15   Ni3   1.856209 S    
C52   C58   1.527551 S    
C8    C24   1.392023 A    
C5    N5    1.338402 A    
C52   O8    1.412081 S    
O8    C82   1.415203 S    
C89   C90   1.526006 S    
C83   H53   1.110718 S    
C89   H66   1.111446 S    
C11   H9    1.079279 S    
C95   H81   1.110927 S    
O7    C79   1.417261 S    
C12   H10   1.082053 S    
C78   H41   1.110311 S    
C10   H8    1.079207 S    
C1    C17   1.378417 A    
N20   O15   1.300723 A    
C6    C22   1.380500 A    
C62   C64   1.534917 S    
C73   C74   1.534684 S    
C95   C96   1.526086 S    
C54   C60   1.190711 T    
C81   H48   1.109415 S    
C20   C42   1.411761 S    
C14   C20   1.380097 A    
C6    H6    1.079641 S    
C9    H7    1.081826 S    
C38   C45   1.542401 S    
C49   H21   1.109451 S    
C90   H68   1.110910 S    
C70   C72   1.437238 S    
C63   C68   1.560387 S    
C87   H63   1.110609 S    
C25   C27   1.564491 S    
C31   C33   1.524869 S    
C17   C65   1.411051 S    
C16   N16   1.337756 A    
C96   H84   1.110911 S    
O12   C94   1.418754 S    
C4    H4    1.081834 S    
O11   C91   1.413958 S    
C38   H18   1.110797 S    
C74   H32   1.109405 S    
C32   C34   1.529916 S    
C37   H17   1.109921 S    
C79   H43   1.110981 S    
C44   C46   1.542643 S    
C34   C36   1.432986 S    
C37   C46   1.544334 S    
C90   H69   1.110515 S    
C80   H45   1.111499 S    
C94   H79   1.103857 S    
C13   N19   1.427668 S    
C37   C43   1.566864 S    
H28   C67   1.110463 S    
C66   C72   1.189334 T    
C52   C55   1.532862 S    
C3    C19   1.375633 A    
C87   H61   1.111012 S    
C7    N7    1.343134 A    
