data_mof_unit_31298.cif
_audit_creation_date              2013-03-05T15:39:27-0500
_audit_creation_method            fapswitch 2.2
_symmetry_space_group_name_H-M    P1
_symmetry_Int_Tables_number       1
_space_group_crystal_system       triclinic
_cell_length_a                    16.884714
_cell_length_b                    16.912863
_cell_length_c                    16.972867
_cell_angle_alpha                 66.732561
_cell_angle_beta                  66.822896
_cell_angle_gamma                 67.593907
_cell_volume                      3944.47587565

loop_
_atom_site_label
_atom_site_type_symbol
_atom_site_description
_atom_site_fract_x
_atom_site_fract_y
_atom_site_fract_z
_atom_type_partial_charge
O1    O     O_R   0.124540 0.978640 0.385460 -0.532786
O2    O     O_R   0.875460 0.021360 0.614540 -0.533665
O3    O     O_R   0.978640 0.385460 0.124540 -0.531562
O4    O     O_R   0.021360 0.614540 0.875460 -0.538814
O5    O     O_R   0.385460 0.124540 0.978640 -0.529790
O6    O     O_R   0.614540 0.875460 0.021360 -0.522917
O7    O     O_R   0.614540 0.021360 0.875460 -0.544820
O8    O     O_R   0.385460 0.978640 0.124540 -0.531973
O9    O     O_R   0.875460 0.614540 0.021360 -0.528290
O10   O     O_R   0.124540 0.385460 0.978640 -0.520594
O11   O     O_R   0.021360 0.875460 0.614540 -0.541344
O12   O     O_R   0.978640 0.124540 0.385460 -0.525836
C1    C     C_R   0.591513 0.031466 0.598733 0.171781
C2    C     C_R   0.395997 0.992091 0.399129 0.168823
C3    C     C_R   0.018960 0.601429 0.596693 0.174546
C4    C     C_R   0.979560 0.404503 0.398431 0.167216
C5    C     C_R   0.593094 0.593997 0.032233 0.204821
C6    C     C_R   0.400256 0.399484 0.989680 0.201603
Cu1   Cu    Cu3+1 0.995180 0.995180 0.424630 1.133061
Cu2   Cu    Cu3+1 0.004820 0.004820 0.575370 1.116509
Cu3   Cu    Cu3+1 0.995180 0.424630 0.995180 1.099760
Cu4   Cu    Cu3+1 0.004820 0.575370 0.004820 1.105886
Cu5   Cu    Cu3+1 0.424630 0.995180 0.995180 1.114462
Cu6   Cu    Cu3+1 0.575370 0.004820 0.004820 1.101642
C7    C     C_R   0.030276 0.829160 0.564228 0.780938
C8    C     C_R   0.979970 0.169512 0.431552 0.812439
C9    C     C_R   0.830346 0.567430 0.020456 0.787185
C10   C     C_R   0.170469 0.433587 0.976333 0.815769
C11   C     C_R   0.564314 0.030935 0.828923 0.793614
C12   C     C_R   0.431243 0.980611 0.169319 0.820371
C13   C     C_R   0.433645 0.170486 0.976145 0.787118
C14   C     C_R   0.567374 0.830327 0.020785 0.816557
C15   C     C_R   0.969586 0.435516 0.171100 0.821209
C16   C     C_R   0.019904 0.568617 0.830471 0.790804
C17   C     C_R   0.170944 0.970464 0.435594 0.787401
C18   C     C_R   0.830213 0.020540 0.568244 0.805624
O13   O     O_R   0.013780 0.867370 0.487190 -0.563203
O14   O     O_R   0.986220 0.132630 0.512810 -0.561135
O15   O     O_R   0.867370 0.487190 0.013780 -0.598593
O16   O     O_R   0.132630 0.512810 0.986220 -0.582886
O17   O     O_R   0.487190 0.013780 0.867370 -0.557592
O18   O     O_R   0.512810 0.986220 0.132630 -0.560859
O19   O     O_R   0.512810 0.132630 0.986220 -0.596098
O20   O     O_R   0.487190 0.867370 0.013780 -0.580570
O21   O     O_R   0.986220 0.512810 0.132630 -0.558433
O22   O     O_R   0.013780 0.487190 0.867370 -0.569145
O23   O     O_R   0.132630 0.986220 0.512810 -0.566247
O24   O     O_R   0.867370 0.013780 0.487190 -0.560339
C19   C     C_R   0.538506 0.027283 0.546216 -0.175302
C20   C     C_R   0.444443 0.009289 0.447432 -0.168464
C21   C     C_R   0.007383 0.551279 0.546226 -0.177912
C22   C     C_R   0.989452 0.455442 0.449279 -0.168894
C23   C     C_R   0.541896 0.544220 0.023756 -0.216585
C24   C     C_R   0.449377 0.448851 0.001773 -0.215119
C25   C     C_R   0.576228 0.033765 0.453374 0.230992
C26   C     C_R   0.399814 0.024576 0.532858 0.219697
C27   C     C_R   0.010519 0.458817 0.583063 0.226451
C28   C     C_R   0.001973 0.542956 0.407275 0.225015
C29   C     C_R   0.510643 0.576727 0.947750 0.222009
C30   C     C_R   0.480622 0.416043 0.077882 0.229500
C31   C     C_R   0.536332 0.009194 0.410550 0.237144
C32   C     C_R   0.449960 0.016838 0.586537 0.223615
C33   C     C_R   0.464674 0.529342 0.936746 0.229113
C34   C     C_R   0.526890 0.463560 0.088869 0.223814
C35   C     C_R   0.985767 0.417671 0.541647 0.231071
C36   C     C_R   0.993895 0.594377 0.459725 0.215358
C37   C     C_R   0.550051 0.053988 0.680074 -0.181113
C38   C     C_R   0.425396 0.007121 0.305608 -0.152080
C39   C     C_R   0.045969 0.681232 0.552451 -0.189870
C40   C     C_R   0.998161 0.310479 0.427492 -0.155438
C41   C     C_R   0.682911 0.554973 0.031705 -0.177972
C42   C     C_R   0.312220 0.439949 0.984725 -0.154946
C43   C     C_R   0.317783 0.962135 0.445276 -0.189460
C44   C     C_R   0.685989 0.010233 0.569439 -0.165791
C45   C     C_R   0.440836 0.311894 0.983966 -0.175266
C46   C     C_R   0.554318 0.683259 0.033186 -0.169004
C47   C     C_R   0.953608 0.447853 0.318774 -0.177289
C48   C     C_R   0.000924 0.571923 0.690763 -0.174629
H1    H     H_    0.478803 0.074827 0.706342 0.211808
H2    H     H_    0.475551 0.042464 0.263797 0.221745
H3    H     H_    0.064779 0.707189 0.480827 0.210236
H4    H     H_    0.031238 0.271406 0.478936 0.222568
H5    H     H_    0.712412 0.485252 0.033695 0.193008
H6    H     H_    0.279251 0.505827 0.994097 0.196712
H7    H     H_    0.292055 0.945601 0.516922 0.212205
H8    H     H_    0.723317 0.979956 0.515802 0.218193
H9    H     H_    0.507511 0.279293 0.991604 0.197724
H10   H     H_    0.483986 0.712477 0.037290 0.192855
H11   H     H_    0.934896 0.519262 0.292810 0.218671
H12   H     H_    0.967781 0.519730 0.730712 0.211816
C49   C     C_R   0.601013 0.047989 0.731357 -0.198802
C50   C     C_R   0.389514 0.977356 0.263836 -0.182293
C51   C     C_R   0.045795 0.731729 0.601070 -0.196166
C52   C     C_R   0.974142 0.265014 0.390336 -0.181297
C53   C     C_R   0.735592 0.606954 0.023622 -0.175060
C54   C     C_R   0.266395 0.395256 0.969820 -0.182448
C55   C     C_R   0.268336 0.956971 0.398469 -0.196211
C56   C     C_R   0.733973 0.028449 0.608869 -0.184448
C57   C     C_R   0.395527 0.266278 0.969548 -0.174960
C58   C     C_R   0.606800 0.735685 0.024267 -0.175140
C59   C     C_R   0.954159 0.398578 0.268610 -0.197889
C60   C     C_R   0.025374 0.609855 0.735180 -0.185906
C61   C     C_R   0.689952 0.050248 0.689771 0.417609
C62   C     C_R   0.310801 0.950221 0.311434 0.442732
C63   C     C_R   0.050261 0.689829 0.688967 0.424038
C64   C     C_R   0.949514 0.310448 0.310893 0.425889
C65   C     C_R   0.698993 0.699018 0.011732 0.439976
C66   C     C_R   0.311069 0.311053 0.955090 0.436137
N1    N     N_R   0.411721 0.992572 0.681809 0.141111
O25   O     O_R   0.341086 0.046411 0.719654 -0.282945
O26   O     O_R   0.449538 0.917322 0.731367 -0.265584
N2    N     N_R   0.591555 0.980304 0.332434 0.143690
O27   O     O_R   0.626528 0.035598 0.259104 -0.250113
O28   O     O_R   0.606185 0.898358 0.334337 -0.308766
N3    N     N_R   0.965797 0.690005 0.426673 0.147833
O29   O     O_R   0.014087 0.733115 0.352791 -0.284091
O30   O     O_R   0.893617 0.734685 0.473276 -0.306801
N4    N     N_R   0.952623 0.340527 0.595630 0.139643
O31   O     O_R   0.002998 0.267525 0.635322 -0.257450
O32   O     O_R   0.872365 0.342372 0.602791 -0.349442
N5    N     N_R   0.554123 0.432535 0.168606 0.155748
O33   O     O_R   0.530091 0.485557 0.217212 -0.333026
O34   O     O_R   0.608677 0.353879 0.189041 -0.270563
N6    N     N_R   0.438396 0.560327 0.856446 0.154550
O35   O     O_R   0.382384 0.638152 0.836668 -0.288731
O36   O     O_R   0.466166 0.508544 0.805718 -0.340294
N7    N     N_R   0.303897 0.053837 0.563399 0.148236
O37   O     O_R   0.259203 0.008940 0.638886 -0.271466
O38   O     O_R   0.260565 0.123161 0.512761 -0.303506
N8    N     N_R   0.652030 0.069590 0.400642 0.148820
O39   O     O_R   0.725039 0.023152 0.356643 -0.262089
O40   O     O_R   0.649239 0.147980 0.399518 -0.321660
N9    N     N_R   0.460147 0.337556 0.147011 0.159737
O41   O     O_R   0.523374 0.264020 0.160012 -0.273356
O42   O     O_R   0.377243 0.336121 0.188535 -0.311131
N10   N     N_R   0.531086 0.654972 0.878182 0.164546
O43   O     O_R   0.613850 0.655218 0.833938 -0.328147
O44   O     O_R   0.468172 0.728988 0.866412 -0.247287
N11   N     N_R   0.029077 0.578326 0.311584 0.138801
O45   O     O_R   0.979255 0.651036 0.270872 -0.272271
O46   O     O_R   0.102169 0.535160 0.264460 -0.314434
N12   N     N_R   0.042894 0.404562 0.659573 0.148365
O47   O     O_R   0.991532 0.364619 0.733120 -0.283132
O48   O     O_R   0.123561 0.397160 0.656523 -0.329634
O49   O     O_3   0.735461 0.066620 0.731563 -0.553588
C67   C     C_3   0.717082 0.159900 0.712086 -0.150092
H13   H     H_    0.739102 0.192115 0.638683 0.148877
H14   H     H_    0.755117 0.173393 0.743642 0.216458
H15   H     H_    0.644835 0.190466 0.740253 0.128458
O50   O     O_3   0.271536 0.925163 0.270352 -0.537822
C68   C     C_3   0.290539 0.831193 0.298895 -0.201671
H16   H     H_    0.261291 0.810759 0.264185 0.209879
H17   H     H_    0.259826 0.805909 0.372155 0.128763
H18   H     H_    0.363935 0.799617 0.280929 0.145029
O51   O     O_3   0.071287 0.730574 0.731847 -0.551277
C69   C     C_3   0.165155 0.712210 0.707346 -0.162587
H19   H     H_    0.182374 0.742804 0.743361 0.218304
H20   H     H_    0.193029 0.741970 0.634328 0.125982
H21   H     H_    0.197054 0.639020 0.727098 0.144765
O52   O     O_3   0.928562 0.266787 0.270862 -0.550039
C70   C     C_3   0.834660 0.288202 0.292320 -0.125276
H22   H     H_    0.803710 0.266889 0.366026 0.144059
H23   H     H_    0.817501 0.251603 0.262241 0.230732
H24   H     H_    0.805746 0.360843 0.264058 0.138441
O53   O     O_3   0.753847 0.753710 0.986169 -0.542108
C71   C     C_3   0.782975 0.783105 0.891664 -0.139461
H25   H     H_    0.822799 0.726079 0.862918 0.126188
H26   H     H_    0.826928 0.826857 0.871040 0.206119
H27   H     H_    0.725745 0.823142 0.863019 0.139756
O54   O     O_3   0.269823 0.270115 0.931981 -0.543734
C72   C     C_3   0.293631 0.293708 0.837777 -0.155427
H28   H     H_    0.270166 0.367165 0.808365 0.143044
H29   H     H_    0.260630 0.261194 0.818838 0.225598
H30   H     H_    0.367108 0.269632 0.808727 0.123874

loop_
_geom_bond_atom_site_label_1
_geom_bond_atom_site_label_2
_geom_bond_distance
_ccdc_geom_bond_type
C28   N11   1.435684 S    
C38   H2    1.075072 S    
O6    C14   1.300932 A    
C72   H28   1.113606 S    
C65   O53   1.386161 S    
C8    C52   1.465704 S    
C6    C45   1.400293 A    
O7    C11   1.300306 A    
C66   O54   1.383989 S    
C48   C60   1.406884 A    
C15   O21   1.294353 A    
C9    C53   1.467924 S    
Cu1   Cu2   2.697504 S    
C17   O23   1.297789 A    
N2    O28   1.301078 A    
C33   N6    1.436503 S    
C23   C29   1.413950 A    
C44   C56   1.406828 A    
C24   C30   1.414885 A    
C48   H12   1.075721 S    
C7    C51   1.469960 S    
C57   C66   1.404519 A    
C72   H29   1.109278 S    
C61   O49   1.384446 S    
O53   C71   1.413272 S    
C13   O19   1.291081 A    
C27   N12   1.436006 S    
C15   C59   1.471426 S    
C69   H19   1.109242 S    
C40   C52   1.405558 A    
C67   H13   1.113897 S    
C39   C51   1.401196 A    
N1    O26   1.300957 A    
C23   C34   1.413699 A    
O9    Cu4   1.962044 S    
C68   H18   1.113842 S    
C3    C48   1.412327 A    
C41   C53   1.409867 A    
C24   C33   1.412341 A    
O3    C15   1.303607 A    
O10   C10   1.302930 A    
C34   N5    1.436387 S    
C29   N10   1.434401 S    
O8    Cu5   1.961921 S    
Cu6   O18   1.957313 S    
C60   C63   1.398914 A    
C4    C47   1.412712 A    
C26   N7    1.437825 S    
C62   O50   1.384523 S    
N4    O31   1.301950 A    
Cu1   O13   1.957127 S    
C51   C63   1.395021 A    
C47   C59   1.402834 A    
C28   C36   1.411762 A    
C9    O15   1.290083 A    
N3    O30   1.301281 A    
O5    Cu5   1.964869 S    
C56   C61   1.400562 A    
C5    C46   1.401955 A    
Cu5   Cu6   2.682655 S    
N8    O40   1.301306 A    
C16   O22   1.294474 A    
C3    C21   1.524301 S    
C46   H10   1.083507 S    
C41   H5    1.083390 S    
C7    O13   1.298757 A    
C54   C66   1.404817 A    
O6    Cu6   1.964869 S    
Cu3   Cu4   2.686969 S    
C53   C65   1.401230 A    
C71   H26   1.109236 S    
C45   C57   1.409538 A    
N2    O27   1.302011 A    
C70   H23   1.109308 S    
O49   C67   1.410671 S    
C67   H14   1.109237 S    
O10   Cu3   1.962044 S    
C6    C42   1.400855 A    
C3    C39   1.411555 A    
C72   H30   1.113591 S    
O4    C16   1.298006 A    
O11   Cu2   1.959047 S    
O1    Cu1   1.956810 S    
C36   N3    1.436422 S    
C2    C20   1.524300 S    
O2    Cu2   1.956810 S    
Cu2   O23   1.956068 S    
C2    C43   1.413001 A    
C37   H1    1.071893 S    
N10   O44   1.300432 A    
C49   C61   1.393868 A    
O1    C17   1.306265 A    
C6    C24   1.491466 S    
Cu1   O24   1.956068 S    
C8    O14   1.298873 A    
C19   C25   1.423923 A    
C20   C26   1.422883 A    
Cu5   O20   1.967430 S    
C14   C58   1.467211 S    
O12   C8    1.299238 A    
C21   C36   1.424742 A    
C43   C55   1.402974 A    
N7    O38   1.301368 A    
C67   H15   1.113269 S    
O4    Cu4   1.961327 S    
Cu3   O15   1.965512 S    
C68   H16   1.109225 S    
C25   N8    1.437833 S    
Cu4   O16   1.965511 S    
C37   C49   1.400571 A    
C14   O20   1.288746 A    
C4    C40   1.411470 A    
C16   C60   1.466683 S    
C44   H8    1.076504 S    
C43   H7    1.074144 S    
N5    O33   1.301158 A    
C42   H6    1.083545 S    
C22   C28   1.424759 A    
C1    C19   1.525330 S    
C45   H9    1.083244 S    
C63   O51   1.384483 S    
C5    C41   1.402310 A    
C35   N4    1.436508 S    
C13   C57   1.473114 S    
C71   H25   1.113327 S    
C26   C32   1.411616 A    
O3    Cu3   1.961326 S    
N7    O37   1.301841 A    
C5    C23   1.491705 S    
C11   C49   1.469896 S    
C70   H24   1.113250 S    
O9    C9    1.302631 A    
N6    O36   1.301193 A    
Cu3   O22   1.956448 S    
C1    C37   1.411591 A    
O2    C18   1.300201 A    
C59   C64   1.393772 A    
C20   C31   1.426008 A    
C52   C64   1.400242 A    
C58   C65   1.400235 A    
C2    C38   1.409884 A    
C19   C32   1.426617 A    
C11   O17   1.294352 A    
N12   O47   1.301913 A    
C69   H21   1.113895 S    
C4    C22   1.524959 S    
C27   C35   1.411569 A    
N10   O43   1.301049 A    
N11   O45   1.301919 A    
C47   H11   1.072785 S    
C46   C58   1.407729 A    
C29   C33   1.409315 A    
Cu5   O17   1.957315 S    
C10   C54   1.473450 S    
C30   C34   1.415159 A    
O8    C12   1.295573 A    
O52   C70   1.410513 S    
C69   H20   1.113284 S    
N8    O39   1.301854 A    
C70   H22   1.113903 S    
N1    O25   1.302048 A    
N11   O46   1.301265 A    
N3    O29   1.301910 A    
N9    O41   1.300631 A    
C32   N1    1.433877 S    
C64   O52   1.384491 S    
C25   C31   1.411469 A    
O12   Cu1   1.959047 S    
C38   C50   1.405626 A    
C18   O24   1.299797 A    
Cu2   O14   1.957125 S    
N12   O48   1.301204 A    
C68   H17   1.113245 S    
C40   H4    1.075945 S    
N4    O32   1.301235 A    
N5    O34   1.300501 A    
C55   C62   1.395155 A    
C39   H3    1.073394 S    
C50   C62   1.398766 A    
C42   C54   1.408925 A    
O11   C7    1.304726 A    
C21   C27   1.424660 A    
Cu4   O21   1.956447 S    
C1    C44   1.414525 A    
C71   H27   1.113351 S    
O54   C72   1.410544 S    
O51   C69   1.410438 S    
N9    O42   1.301006 A    
Cu6   O19   1.967430 S    
C10   O16   1.293172 A    
O50   C68   1.410263 S    
C12   O18   1.292818 A    
C18   C56   1.469399 S    
C17   C55   1.471449 S    
C31   N2    1.434365 S    
C30   N9    1.434680 S    
C22   C35   1.425520 A    
O7    Cu6   1.961923 S    
N6    O35   1.300566 A    
O5    C13   1.302463 A    
C12   C50   1.463911 S    
