data_mof_unit_48821.cif
_audit_creation_date              2012-12-11T14:38:21-0500
_audit_creation_method            fapswitch 2.2
_symmetry_space_group_name_H-M    P1
_symmetry_Int_Tables_number       1
_space_group_crystal_system       triclinic
_cell_length_a                    19.42161
_cell_length_b                    11.128724
_cell_length_c                    19.648687
_cell_angle_alpha                 89.881175
_cell_angle_beta                  96.817796
_cell_angle_gamma                 89.942349
_cell_volume                      4216.77970177

loop_
_atom_site_label
_atom_site_type_symbol
_atom_type_description
_atom_site_fract_x
_atom_site_fract_y
_atom_site_fract_z
_atom_type_partial_charge
C1    C     C_R   0.725420 0.951574 0.359722 0.540251
C2    C     C_3   0.181817 0.467228 0.471370 -0.220933
C3    C     C_3   0.316665 0.966422 0.527801 -0.221363
C4    C     C_3   0.683472 0.968144 0.472161 -0.222038
C5    C     C_3   0.765399 0.276064 0.562033 -0.253059
C6    C     C_3   0.236337 0.276945 0.438518 -0.254777
C7    C     C_3   0.263989 0.775983 0.562174 -0.252603
C8    C     C_3   0.734828 0.775972 0.438347 -0.254364
C9    C     C_3   0.759349 0.412977 0.569187 0.061709
C10   C     C_3   0.240305 0.413873 0.430750 0.066508
C11   C     C_3   0.259081 0.912892 0.569270 0.062633
C12   C     C_R   0.274547 0.951670 0.640266 0.549678
C13   C     C_3   0.740664 0.912857 0.430773 0.066113
C14   C     C_3   0.737618 0.356808 0.439991 0.053698
C15   C     C_3   0.261348 0.360096 0.560190 0.050897
C16   C     C_3   0.237416 0.857285 0.440000 0.052748
C17   C     C_3   0.762332 0.857088 0.560080 0.050364
C18   C     C_3   0.791533 0.459632 0.450487 -0.232771
C19   C     C_3   0.205010 0.458897 0.548769 -0.231547
C20   C     C_3   0.292103 0.958856 0.450757 -0.231244
C21   C     C_3   0.708215 0.959797 0.549255 -0.231737
C22   C     C_3   0.767776 0.250075 0.485325 -0.248498
C23   C     C_R   0.225358 0.451726 0.359691 0.540342
C24   C     C_3   0.234083 0.251537 0.515192 -0.246961
C25   C     C_3   0.266256 0.749871 0.485492 -0.248924
C26   C     C_3   0.732335 0.750257 0.515098 -0.247597
C27   C     C_3   0.500776 0.308512 0.960366 0.121210
C28   C     C_3   0.509923 0.309405 0.037447 0.120647
C29   C     C_3   0.000822 0.808504 0.960356 0.121737
C30   C     C_3   0.009968 0.809405 0.037438 0.120532
C31   C     C_3   0.428369 0.118747 0.968001 -0.267500
C32   C     C_3   0.573814 0.110306 0.031859 -0.264538
C33   C     C_3   0.928366 0.618796 0.968000 -0.266501
C34   C     C_R   0.774625 0.451763 0.640206 0.554520
C35   C     C_3   0.073809 0.610255 0.031856 -0.264330
C36   C     C_3   0.554892 0.101533 0.953512 -0.240314
C37   C     C_3   0.446456 0.111131 0.046137 -0.241136
C38   C     C_3   0.054884 0.601482 0.953508 -0.240947
C39   C     C_3   0.946451 0.611181 0.046136 -0.241472
C40   C     C_R   0.535102 0.180216 0.337808 0.532342
C41   C     C_R   0.440873 0.183032 0.652521 0.529575
C42   C     C_R   0.036029 0.680259 0.338562 0.532584
C43   C     C_R   0.963972 0.680348 0.661445 0.538868
C44   C     C_3   0.488877 0.176426 0.933339 0.033775
C45   C     C_3   0.668908 0.399625 0.465108 -0.239094
C46   C     C_3   0.515396 0.177056 0.065685 0.031788
C47   C     C_3   0.988887 0.676423 0.933335 0.036022
C48   C     C_3   0.015408 0.677056 0.065681 0.031567
C49   C     C_1   0.778941 0.470851 0.913936 0.013499
C50   C     C_1   0.242750 0.413156 0.099357 0.024142
C51   C     C_1   0.278941 0.970850 0.913936 0.013009
C52   C     C_1   0.742753 0.913150 0.099359 0.024149
C53   C     C_1   0.757131 0.433032 0.040982 -0.007716
C54   C     C_1   0.264706 0.362892 0.973487 -0.001485
C55   C     C_1   0.257131 0.933031 0.040982 -0.007632
C56   C     C_3   0.329103 0.408790 0.535964 -0.239315
C57   C     C_1   0.764709 0.862887 0.973488 -0.001275
C58   C     C_1   0.768219 0.454365 0.972368 0.004487
C59   C     C_1   0.254673 0.387754 0.042206 0.016461
C60   C     C_1   0.268219 0.954363 0.972368 0.004459
C61   C     C_1   0.754677 0.887748 0.042208 0.016433
C62   C     C_1   0.748021 0.406994 0.098758 0.002755
C63   C     C_1   0.271142 0.341680 0.914331 -0.006013
C64   C     C_1   0.248020 0.906994 0.098758 0.002743
C65   C     C_1   0.771143 0.841678 0.914332 -0.005309
C66   C     C_R   0.726404 0.317144 0.368011 0.547490
C67   C     C_3   0.168975 0.902062 0.464774 -0.239044
C68   C     C_R   0.272949 0.319511 0.631954 0.538110
C69   C     C_R   0.226428 0.817427 0.368031 0.547078
C70   C     C_R   0.773597 0.817360 0.632076 0.550384
C71   C     C_R   0.722844 0.952617 0.163843 0.543222
C72   C     C_R   0.294010 0.994939 0.845552 0.531544
C73   C     C_R   0.222842 0.452622 0.163842 0.543280
C74   C     C_R   0.794010 0.494939 0.845552 0.531429
C75   C     C_R   0.534632 0.180074 0.139865 0.563083
C76   C     C_R   0.467547 0.179644 0.859300 0.563551
C77   C     C_R   0.034639 0.680075 0.139862 0.563446
C78   C     C_3   0.830974 0.899999 0.534929 -0.239843
C79   C     C_R   0.967551 0.679643 0.859299 0.556237
C80   C     C_R   0.736801 0.360848 0.164645 0.548642
C81   C     C_R   0.277430 0.311785 0.844164 0.529421
C82   C     C_R   0.236801 0.860848 0.164645 0.548653
C83   C     C_R   0.777431 0.811784 0.844164 0.528633
C84   C     C_1   0.462942 0.174839 0.585758 -0.033776
C85   C     C_1   0.508083 0.172279 0.402245 -0.026930
C86   C     C_1   0.985513 0.672757 0.594376 -0.027454
C87   C     C_1   0.014513 0.672472 0.405648 -0.029697
C88   C     C_1   0.492054 0.169446 0.459498 -0.066040
C89   C     C_3   0.816434 0.467982 0.527514 -0.223258
C90   C     C_1   0.477003 0.170496 0.527805 -0.068645
C91   C     C_1   0.004281 0.669202 0.464887 -0.070905
C92   C     C_1   0.995757 0.669346 0.535150 -0.070321
C93   C     C_3   0.683611 0.445212 0.539117 -0.238210
C94   C     C_3   0.315286 0.449053 0.461053 -0.236248
C95   C     C_3   0.183738 0.946977 0.538921 -0.237554
C96   C     C_3   0.816330 0.945183 0.460762 -0.237619
Cl1   Cl    Cl    0.573548 0.380079 0.927518 -0.611238
Cl2   Cl    Cl    0.440421 0.393563 0.068797 -0.625471
Cl3   Cl    Cl    0.073612 0.880000 0.927502 -0.614151
Cl4   Cl    Cl    0.940482 0.893624 0.068779 -0.625417
Cr1   Cr    Cr6+3 0.765780 0.160710 0.267420 1.035839
Cr2   Cr    Cr6+3 0.383970 0.323720 0.751490 1.051165
Cr3   Cr    Cr6+3 0.116030 0.823720 0.248510 1.050328
Cr4   Cr    Cr6+3 0.883970 0.823720 0.751490 1.051107
Cr5   Cr    Cr6+3 0.234220 0.160710 0.732580 1.034145
Cr6   Cr    Cr6+3 0.265780 0.660710 0.267420 1.035719
Cr7   Cr    Cr6+3 0.734220 0.660710 0.732580 1.040668
Cr8   Cr    Cr6+3 0.612200 0.009560 0.248850 1.021790
Cr9   Cr    Cr6+3 0.387800 0.009560 0.751150 1.024343
Cr10  Cr    Cr6+3 0.112200 0.509560 0.248850 1.021781
Cr11  Cr    Cr6+3 0.887800 0.509560 0.751150 1.022026
Cr12  Cr    Cr6+3 0.616030 0.323720 0.248510 1.050176
H1    H     H_    0.673445 0.542137 0.540840 0.124478
H2    H     H_    0.134438 0.410699 0.460419 0.138836
H3    H     H_    0.364304 0.910088 0.538007 0.139074
H4    H     H_    0.635495 0.912852 0.462180 0.138668
H5    H     H_    0.837235 0.444001 0.422461 0.147101
H6    H     H_    0.158982 0.438739 0.575538 0.149232
H7    H     H_    0.337861 0.942086 0.422996 0.147699
H8    H     H_    0.662473 0.943993 0.577203 0.151850
H9    H     H_    0.454729 0.365328 0.943194 0.209622
H10   H     H_    0.558640 0.359054 0.054727 0.204764
H11   H     H_    0.954793 0.865358 0.943184 0.210062
H12   H     H_    0.325155 0.545498 0.456792 0.126245
H13   H     H_    0.058698 0.859019 0.054719 0.204841
H14   H     H_    0.380203 0.172540 0.955783 0.103129
H15   H     H_    0.623793 0.159338 0.043287 0.132587
H16   H     H_    0.880212 0.672620 0.955780 0.103195
H17   H     H_    0.123800 0.659250 0.043282 0.132593
H18   H     H_    0.404088 0.151123 0.072166 0.171512
H19   H     H_    0.598657 0.133920 0.926714 0.183533
H20   H     H_    0.904093 0.651212 0.072163 0.171500
H21   H     H_    0.098657 0.633828 0.926708 0.182255
H22   H     H_    0.545465 0.006015 0.938538 0.140306
H23   H     H_    0.174646 0.044069 0.540776 0.125111
H24   H     H_    0.451510 0.015325 0.062404 0.136242
H25   H     H_    0.045431 0.505967 0.938537 0.139914
H26   H     H_    0.951481 0.515374 0.062406 0.136201
H27   H     H_    0.581903 0.017871 0.053036 0.155222
H28   H     H_    0.417810 0.026261 0.948215 0.142416
H29   H     H_    0.081875 0.517817 0.053036 0.155180
H30   H     H_    0.917786 0.526313 0.948217 0.142584
H31   H     H_    0.646119 0.402983 0.570601 0.129802
H32   H     H_    0.353652 0.405141 0.431246 0.124454
H33   H     H_    0.145681 0.905776 0.570149 0.127398
H34   H     H_    0.826391 0.042084 0.458612 0.125475
H35   H     H_    0.853920 0.902719 0.429507 0.124242
H36   H     H_    0.631418 0.323743 0.462765 0.123214
H37   H     H_    0.369049 0.337413 0.540655 0.119476
H38   H     H_    0.130796 0.827320 0.462125 0.125341
H39   H     H_    0.868567 0.824207 0.537587 0.123844
H40   H     H_    0.644736 0.473448 0.432185 0.140105
H41   H     H_    0.349669 0.486167 0.567935 0.138391
H42   H     H_    0.145702 0.976614 0.431862 0.139302
H43   H     H_    0.854939 0.973979 0.567609 0.140485
H44   H     H_    0.338602 0.054012 0.544531 0.090305
H45   H     H_    0.822744 0.235446 0.476645 0.130676
H46   H     H_    0.661860 0.056454 0.455171 0.098856
H47   H     H_    0.838157 0.556155 0.544145 0.098381
H48   H     H_    0.159989 0.555362 0.454324 0.100715
H49   H     H_    0.268250 0.043647 0.431187 0.122595
H50   H     H_    0.732763 0.043675 0.568789 0.124820
H51   H     H_    0.766739 0.543495 0.430847 0.122517
H52   H     H_    0.226822 0.544213 0.569235 0.123795
H53   H     H_    0.812895 0.239057 0.592128 0.140104
H54   H     H_    0.189426 0.238145 0.408472 0.136407
H55   H     H_    0.311134 0.737919 0.592367 0.139746
H56   H     H_    0.179277 0.234314 0.523400 0.130448
H57   H     H_    0.687449 0.738876 0.408278 0.137630
H58   H     H_    0.719677 0.233012 0.580875 0.119509
H59   H     H_    0.282689 0.234997 0.420195 0.114196
H60   H     H_    0.217880 0.734202 0.580949 0.117799
H61   H     H_    0.780706 0.732882 0.419811 0.113761
H62   H     H_    0.740791 0.169156 0.470548 0.110044
H63   H     H_    0.262720 0.172353 0.530790 0.106928
H64   H     H_    0.238294 0.669751 0.470739 0.110265
H65   H     H_    0.759259 0.669272 0.530322 0.109752
H66   H     H_    0.321182 0.734355 0.477097 0.130223
H67   H     H_    0.677338 0.735856 0.523712 0.130904
H68   H     H_    0.864433 0.412522 0.537549 0.138657
O1    O     O_R   0.783100 0.287550 0.345460 -0.527263
O2    O     O_R   0.454350 0.284910 0.836260 -0.479784
O3    O     O_R   0.045650 0.784910 0.163740 -0.469535
O4    O     O_R   0.954350 0.784910 0.836260 -0.483094
O5    O     O_R   0.677950 0.374280 0.185410 -0.491845
O6    O     O_R   0.322050 0.374280 0.814590 -0.473451
O7    O     O_R   0.177950 0.874280 0.185410 -0.491844
O8    O     O_R   0.822050 0.874280 0.814590 -0.473251
O9    O     O_3   0.664670 0.164660 0.254930 -0.283783
O10   O     O_3   0.335330 0.164660 0.745070 -0.336076
O11   O     O_3   0.164670 0.664660 0.254930 -0.284018
O12   O     O_R   0.216900 0.287550 0.654540 -0.517475
O13   O     O_3   0.835330 0.664660 0.745070 -0.324473
O14   O     O_R   0.760020 0.037400 0.337700 -0.522981
O15   O     O_R   0.239980 0.037400 0.662300 -0.518071
O16   O     O_R   0.260020 0.537400 0.337700 -0.523454
O17   O     O_R   0.739980 0.537400 0.662300 -0.516974
O18   O     O_R   0.666600 0.921990 0.332020 -0.521609
O19   O     O_R   0.333400 0.921990 0.667980 -0.519827
O20   O     O_R   0.166600 0.421990 0.332020 -0.522064
O21   O     O_R   0.833400 0.421990 0.667980 -0.515789
O22   O     O_R   0.557260 0.082670 0.312540 -0.497613
O23   O     O_R   0.283100 0.787550 0.345460 -0.527297
O24   O     O_R   0.442740 0.082670 0.687460 -0.483819
O25   O     O_R   0.057260 0.582670 0.312540 -0.497329
O26   O     O_R   0.942740 0.582670 0.687460 -0.495037
O27   O     O_R   0.548410 0.285740 0.316480 -0.510809
O28   O     O_R   0.451590 0.285740 0.683520 -0.495379
O29   O     O_R   0.048410 0.785740 0.316480 -0.510320
O30   O     O_R   0.951590 0.785740 0.683520 -0.507045
O31   O     O_R   0.680500 0.375040 0.327000 -0.503863
O32   O     O_R   0.319500 0.375040 0.673000 -0.501644
O33   O     O_R   0.180500 0.875040 0.327000 -0.503934
O34   O     O_R   0.716900 0.787550 0.654540 -0.518715
O35   O     O_R   0.819500 0.875040 0.673000 -0.493766
O36   O     O_R   0.780350 0.286720 0.192720 -0.497516
O37   O     O_R   0.219650 0.286720 0.807280 -0.488042
O38   O     O_R   0.280350 0.786720 0.192720 -0.497480
O39   O     O_R   0.719650 0.786720 0.807280 -0.487671
O40   O     O_R   0.757470 0.036630 0.196110 -0.478374
O41   O     O_R   0.242530 0.036630 0.803890 -0.474211
O42   O     O_R   0.257470 0.536630 0.196110 -0.478302
O43   O     O_R   0.742530 0.536630 0.803890 -0.474395
O44   O     O_R   0.663840 0.921160 0.179280 -0.514064
O45   O     O_R   0.554710 0.081900 0.170950 -0.511711
O46   O     O_R   0.336160 0.921160 0.820720 -0.489734
O47   O     O_R   0.163840 0.421160 0.179280 -0.514056
O48   O     O_R   0.836160 0.421160 0.820720 -0.489523
O49   O     O_R   0.445290 0.081900 0.829050 -0.521802
O50   O     O_R   0.054710 0.581900 0.170950 -0.511467
O51   O     O_R   0.945290 0.581900 0.829050 -0.525872
O52   O     O_R   0.545650 0.284910 0.163740 -0.469776

loop_
_geom_bond_atom_site_label_1
_geom_bond_atom_site_label_2
_ccdc_geom_bond_type
C40   C85   S    
C6    H54   S    
C8    C13   S    
C87   C91   T    
C45   H36   S    
C8    C26   S    
C14   C18   S    
C1    O18   A    
C95   H33   S    
Cr4   O30   S    
C45   C93   S    
Cr11  O21   S    
C27   H9    S    
C80   O36   A    
C26   H67   S    
C37   H18   S    
C15   C19   S    
C28   C46   S    
C77   O50   A    
C33   C39   S    
C73   O42   A    
C63   C81   S    
C67   H42   S    
Cr3   O3    S    
C17   C26   S    
C32   C36   S    
C32   H15   S    
C30   C48   S    
C24   H56   S    
C21   H8    S    
Cr1   O9    S    
C52   C61   T    
C43   O26   A    
Cr8   O44   S    
C28   H10   S    
C78   H43   S    
C65   C83   S    
C39   H20   S    
C10   C94   S    
C34   O21   A    
C11   C95   S    
C30   Cl4   S    
Cr10  O11   S    
Cr11  O51   S    
C79   O4    A    
C42   O25   A    
C18   H51   S    
C89   H68   S    
C4    C13   S    
C44   C76   S    
C43   O30   A    
C3    H44   S    
C74   O48   A    
Cr10  O50   S    
C77   O3    A    
Cr6   O23   S    
Cr9   O49   S    
C27   C44   S    
C38   H25   S    
C4    H46   S    
C5    C22   S    
C19   H6    S    
C78   C96   S    
C45   H40   S    
C82   O38   A    
C23   O16   A    
C64   C82   S    
Cr8   O22   S    
Cr4   O13   S    
C31   H28   S    
C71   O44   A    
C47   C79   S    
C35   H17   S    
C93   H31   S    
C36   C44   S    
C16   C20   S    
C54   C59   S    
Cr12  O9    S    
C30   H13   S    
C81   O37   A    
C17   C70   S    
C72   O46   A    
C7    H60   S    
C67   H38   S    
C67   C95   S    
C18   C89   S    
Cr5   O12   S    
Cr3   O29   S    
C84   C90   T    
Cr6   O11   S    
C76   O2    A    
C35   C48   S    
C46   C75   S    
C22   H62   S    
C78   H39   S    
C89   H47   S    
C14   C45   S    
Cr7   O43   S    
C6    H59   S    
Cr8   O45   S    
Cr4   O8    S    
C31   C44   S    
C29   Cl3   S    
C13   C96   S    
Cr10  O20   S    
Cr2   O2    S    
Cr12  O31   S    
C75   O45   A    
C35   C38   S    
Cr3   O7    S    
Cr4   O35   S    
C32   H27   S    
C50   C73   S    
C9    C89   S    
C91   C92   S    
C73   O47   A    
C34   O17   A    
C8    H61   S    
Cr6   O16   S    
C41   C84   S    
C74   O43   A    
C23   O20   A    
C33   H16   S    
C17   C21   S    
C71   O40   A    
C31   C37   S    
C15   C68   S    
Cr1   O14   S    
C70   O34   A    
C48   C77   S    
C56   C94   S    
C5    C9    S    
C29   C30   S    
C83   O39   A    
C53   C62   T    
C7    C11   S    
C18   H5    S    
Cr9   O10   S    
C5    H58   S    
C6    C24   S    
C55   C64   T    
C95   H23   S    
C14   C66   S    
C37   H24   S    
C69   O33   A    
C3    C20   S    
C16   C67   S    
Cr2   O6    S    
C7    C25   S    
C41   O24   A    
Cr11  O26   S    
C79   O51   A    
C38   C47   S    
C42   O29   A    
Cr11  O13   S    
C70   O35   A    
C15   C24   S    
Cr4   O4    S    
C66   O1    A    
C29   C47   S    
C62   C80   S    
C5    H53   S    
C9    C34   S    
C33   C47   S    
C12   O15   A    
Cr7   O39   S    
Cr8   O9    S    
C36   H19   S    
C1    C13   S    
C51   C72   S    
C50   C59   T    
Cr1   O36   S    
C2    C10   S    
C9    C93   S    
C81   O6    A    
Cr12  O5    S    
Cr1   O1    S    
C8    H57   S    
C85   C88   T    
Cr7   O17   S    
C26   H65   S    
C28   Cl2   S    
C16   C25   S    
Cr5   O15   S    
C96   H35   S    
Cr3   O33   S    
C27   Cl1   S    
C88   C90   S    
C21   H50   S    
Cr7   O13   S    
Cr6   O38   S    
C2    C19   S    
C25   H66   S    
C43   C86   S    
C32   C46   S    
Cr5   O10   S    
C4    H4    S    
Cr9   O24   S    
Cr11  O48   S    
C16   C69   S    
Cr12  O27   S    
C40   O22   A    
C56   H41   S    
C36   H22   S    
C6    C10   S    
C53   C58   S    
C57   C61   S    
C51   C60   T    
C22   H45   S    
C10   C23   S    
C96   H34   S    
Cr5   O37   S    
Cr12  O52   S    
Cr9   O19   S    
C82   O7    A    
Cr10  O47   S    
C80   O5    A    
C94   H32   S    
C15   C56   S    
C14   C22   S    
C41   O28   A    
C1    O14   A    
C37   C46   S    
C52   C71   S    
C86   C92   T    
C33   H30   S    
C4    C21   S    
C2    H2    S    
C25   H64   S    
Cr2   O32   S    
Cr6   O42   S    
Cr7   O34   S    
Cr5   O41   S    
C72   O41   A    
C29   H11   S    
C17   C78   S    
Cr2   O10   S    
C12   O19   A    
C93   H1    S    
Cr10  O25   S    
C19   H52   S    
Cr8   O18   S    
C75   O52   A    
C83   O8    A    
C39   H26   S    
C3    C11   S    
C49   C58   T    
C20   H49   S    
Cr1   O40   S    
C35   H29   S    
Cr9   O46   S    
Cr3   O11   S    
C7    H55   S    
C69   O23   A    
C2    H48   S    
C54   C63   T    
C56   H37   S    
C27   C28   S    
C68   O12   A    
C49   C74   S    
C40   O27   A    
C3    H3    S    
C42   C87   S    
C76   O49   A    
C31   H14   S    
C66   O31   A    
C55   C60   S    
C24   H63   S    
Cr2   O28   S    
C38   H21   S    
C20   H7    S    
C11   C12   S    
C94   H12   S    
C39   C48   S    
C57   C65   T    
C68   O32   A    
