data_mof_unit_61284.cif
_audit_creation_date              2012-12-10T16:47:16-0500
_audit_creation_method            fapswitch 2.2
_symmetry_space_group_name_H-M    P1
_symmetry_Int_Tables_number       1
_space_group_crystal_system       triclinic
_cell_length_a                    21.996119
_cell_length_b                    21.931513
_cell_length_c                    22.01391
_cell_angle_alpha                 119.334358
_cell_angle_beta                  118.810834
_cell_angle_gamma                 89.856136
_cell_volume                      7723.41246023

loop_
_atom_site_label
_atom_site_type_symbol
_atom_type_description
_atom_site_fract_x
_atom_site_fract_y
_atom_site_fract_z
_atom_type_partial_charge
C1    C     C_R   0.001507 0.383779 0.502495 0.843764
C2    C     C_R   0.998503 0.616235 0.497538 0.843669
C3    C     C_3   0.300959 0.830857 0.046733 -0.428992
C4    C     C_3   0.679926 0.185878 0.953989 -0.431284
C5    C     C_3   0.251598 0.783032 0.950045 -0.381358
C6    C     C_3   0.730490 0.231543 0.050714 -0.375035
C7    C     C_1   0.334601 0.838329 0.175144 -0.093961
C8    C     C_1   0.665466 0.161400 0.824813 -0.096532
C9    C     C_1   0.159450 0.662069 0.824983 -0.104500
C10   C     C_1   0.840350 0.338160 0.174961 -0.112142
C11   C     C_1   0.122576 0.624648 0.749608 -0.181975
C12   C     C_1   0.877390 0.375401 0.250357 -0.180456
C13   C     C_2   0.992479 0.243667 0.554699 -0.159795
C14   C     C_2   0.007538 0.756407 0.445433 -0.155414
C15   C     C_2   0.991305 0.181433 0.495186 -0.321705
C16   C     C_2   0.008482 0.818569 0.504807 -0.318836
C17   C     C_2   0.982391 0.306346 0.546500 -0.159932
C18   C     C_2   0.017644 0.693737 0.453637 -0.160682
C19   C     C_2   0.006643 0.320228 0.507826 -0.315727
C20   C     C_2   0.993359 0.679803 0.492249 -0.315347
C21   C     C_R   0.613840 0.996831 0.493869 0.853842
C22   C     C_R   0.386649 0.003271 0.507307 0.849948
C23   C     C_R   0.079257 0.579934 0.659898 0.825294
C24   C     C_R   0.920740 0.420036 0.340092 0.825468
C25   C     C_R   0.419710 0.920350 0.340045 0.827511
C26   C     C_R   0.580281 0.079644 0.659946 0.826698
C27   C     C_R   0.883455 0.997618 0.501604 0.829069
C28   C     C_R   0.116949 0.002442 0.498053 0.812219
C29   C     C_R   0.997642 0.117321 0.499262 0.849999
C30   C     C_R   0.002313 0.882683 0.500739 0.842062
C31   C     C_2   0.774198 0.029414 0.479618 -0.191503
C32   C     C_2   0.243636 0.060229 0.554865 -0.192609
C33   C     C_2   0.820679 0.995325 0.507727 -0.019302
C34   C     C_2   0.178555 0.008777 0.489002 -0.056934
C35   C     C_2   0.713018 0.040264 0.489900 -0.173300
C36   C     C_2   0.306901 0.066236 0.548551 -0.171442
C37   C     C_2   0.669474 0.986107 0.475610 -0.330068
C38   C     C_2   0.328928 0.007068 0.522649 -0.326562
C39   C     C_3   0.253980 0.666455 0.953094 -0.030290
C40   C     C_3   0.764821 0.340356 0.045949 -0.025621
C41   C     C_3   0.156126 0.724899 0.952116 -0.460938
C42   C     C_3   0.840302 0.254308 0.048381 -0.457924
C43   C     C_3   0.203620 0.774840 0.050172 -0.039090
C44   C     C_3   0.791962 0.200144 0.950928 -0.041423
C45   C     C_1   0.373737 0.876148 0.250424 -0.185706
C46   C     C_1   0.626284 0.123795 0.749544 -0.185412
C47   C     C_3   0.205239 0.707650 0.917234 0.295727
C48   C     C_3   0.794206 0.292861 0.082622 0.284144
C49   C     C_3   0.306651 0.718722 0.049645 -0.393432
C50   C     C_3   0.717128 0.289957 0.948452 -0.376870
C51   C     C_3   0.286969 0.791289 0.083018 0.272718
C52   C     C_3   0.713226 0.208330 0.916943 0.271777
Cu1   Cu    Cu3+1 0.061030 0.500010 0.499990 0.941431
Cu2   Cu    Cu3+1 0.938970 0.499990 0.500010 0.941961
Cu3   Cu    Cu3+1 0.499800 0.938990 0.500010 0.939324
Cu4   Cu    Cu3+1 0.500200 0.061010 0.499990 0.938554
Cu5   Cu    Cu3+1 0.041320 0.041320 0.582630 0.925031
Cu6   Cu    Cu3+1 0.958680 0.958680 0.417370 0.932187
H1    H     H_    0.304477 0.690427 0.079160 0.136613
H2    H     H_    0.740093 0.309109 0.923376 0.133903
H3    H     H_    0.364115 0.731827 0.068177 0.172149
H4    H     H_    0.660952 0.293711 0.922157 0.164140
H5    H     H_    0.290133 0.884703 0.070855 0.164545
H6    H     H_    0.671745 0.126415 0.929081 0.164107
H7    H     H_    0.996998 0.247430 0.607872 0.158722
H8    H     H_    0.003256 0.752722 0.392397 0.157208
H9    H     H_    0.978666 0.174630 0.437636 0.150939
H10   H     H_    0.020855 0.825352 0.562263 0.151264
H11   H     H_    0.958721 0.343625 0.576684 0.159025
H12   H     H_    0.041377 0.656506 0.423508 0.159091
H13   H     H_    0.037547 0.287758 0.485853 0.151614
H14   H     H_    0.962401 0.712218 0.514174 0.153059
H15   H     H_    0.785755 0.057104 0.454996 0.134903
H16   H     H_    0.250878 0.098588 0.614653 0.156066
H17   H     H_    0.704253 0.093694 0.509696 0.171284
H18   H     H_    0.334986 0.118174 0.565720 0.164119
H19   H     H_    0.216273 0.622818 0.942044 0.120606
H20   H     H_    0.814067 0.375719 0.062947 0.115072
H21   H     H_    0.674388 0.931256 0.449322 0.154272
H22   H     H_    0.303891 0.958297 0.513980 0.157568
H23   H     H_    0.119231 0.753396 0.927894 0.161726
H24   H     H_    0.866108 0.223201 0.076385 0.161798
H25   H     H_    0.119902 0.672308 0.927636 0.155853
H26   H     H_    0.885848 0.297123 0.069107 0.158082
H27   H     H_    0.191509 0.828179 0.067805 0.146443
H28   H     H_    0.786815 0.143754 0.937714 0.148444
H29   H     H_    0.285122 0.776906 0.924020 0.159525
H30   H     H_    0.699341 0.254559 0.079476 0.170452
H31   H     H_    0.214562 0.812838 0.928785 0.163458
H32   H     H_    0.752917 0.194360 0.070607 0.163336
H33   H     H_    0.359134 0.842588 0.067155 0.171558
H34   H     H_    0.625308 0.194040 0.934692 0.169814
O1    O     O_R   0.051550 0.410990 0.500010 -0.589163
O2    O     O_R   0.948450 0.589010 0.499990 -0.588747
O3    O     O_R   0.876060 0.965100 0.430240 -0.587893
O4    O     O_R   0.123940 0.034900 0.569760 -0.589093
O5    O     O_R   0.034880 0.123910 0.569760 -0.581847
O6    O     O_R   0.965120 0.876090 0.430240 -0.580685
O7    O     O_R   0.965100 0.054130 0.430200 -0.590877
O8    O     O_R   0.034900 0.945870 0.569800 -0.594258
O9    O     O_R   0.948470 0.410970 0.500030 -0.580781
O10   O     O_R   0.051530 0.589030 0.499970 -0.580904
O11   O     O_R   0.111820 0.560290 0.620550 -0.580928
O12   O     O_R   0.888180 0.439710 0.379450 -0.580819
O13   O     O_R   0.008740 0.560280 0.620570 -0.585178
O14   O     O_R   0.991260 0.439720 0.379430 -0.585403
O15   O     O_R   0.588860 0.948460 0.499990 -0.591223
O16   O     O_R   0.411140 0.051540 0.500010 -0.582461
O17   O     O_R   0.588880 0.051510 0.499970 -0.584274
O18   O     O_R   0.411120 0.948490 0.500030 -0.590733
O19   O     O_R   0.439520 0.888190 0.379450 -0.581586
O20   O     O_R   0.560480 0.111810 0.620550 -0.584293
O21   O     O_R   0.439550 0.991240 0.379430 -0.583004
O22   O     O_R   0.560450 0.008760 0.620570 -0.584603
O23   O     O_R   0.945840 0.034880 0.569800 -0.600964
O24   O     O_R   0.054160 0.965120 0.430200 -0.596242
C53   C     C_3   0.292279 0.622517 0.909799 -0.405272
C54   C     C_3   0.341726 0.666103 0.904277 -0.317056
C55   C     C_3   0.390174 0.623392 0.880874 -0.863946
H35   H     H_    0.427241 0.614276 0.929959 0.250862
H36   H     H_    0.356296 0.569495 0.820219 0.257564
H37   H     H_    0.423742 0.655185 0.874944 0.241522
H38   H     H_    0.307491 0.675710 0.854781 0.220341
H39   H     H_    0.377187 0.719637 0.964761 0.215993
H40   H     H_    0.324898 0.598311 0.944209 0.198238
H41   H     H_    0.250191 0.575404 0.845490 0.193909
C56   C     C_3   0.730546 0.397043 0.085760 -0.388690
C57   C     C_3   0.648717 0.369562 0.048901 -0.331149
C58   C     C_3   0.628609 0.421406 0.109106 -0.861001
H42   H     H_    0.657779 0.422887 0.167614 0.256719
H43   H     H_    0.642997 0.477766 0.124325 0.254674
H44   H     H_    0.569060 0.401797 0.079783 0.239781
H45   H     H_    0.615753 0.367364 0.990206 0.204678
H46   H     H_    0.632706 0.314107 0.034250 0.221307
H47   H     H_    0.762272 0.422157 0.154090 0.211351
H48   H     H_    0.738035 0.443030 0.078989 0.177861
C59   C     C_3   0.815567 0.964010 0.554649 -0.425149
C60   C     C_3   0.886765 0.956215 0.611509 -0.333261
C61   C     C_3   0.874500 0.921533 0.651810 -0.879044
H49   H     H_    0.853934 0.955928 0.690323 0.254947
H50   H     H_    0.834597 0.865615 0.603091 0.257488
H51   H     H_    0.926799 0.917030 0.692768 0.244534
H52   H     H_    0.908126 0.920746 0.574524 0.218491
H53   H     H_    0.928007 0.011253 0.662116 0.239839
H54   H     H_    0.796860 0.999790 0.594733 0.223251
H55   H     H_    0.775281 0.908307 0.507761 0.200501
C62   C     C_3   0.161646 0.964519 0.399893 -0.362348
C63   C     C_3   0.151003 0.012839 0.365672 -0.307851
C64   C     C_3   0.137999 0.970575 0.278962 -0.886520
H56   H     H_    0.186640 0.953943 0.282200 0.256187
H57   H     H_    0.089658 0.920945 0.235070 0.256160
H58   H     H_    0.128222 0.006201 0.254886 0.242876
H59   H     H_    0.103427 0.032394 0.362060 0.215478
H60   H     H_    0.199923 0.061627 0.407896 0.228561
H61   H     H_    0.203589 0.938343 0.395590 0.197468
H62   H     H_    0.111375 0.917093 0.357064 0.197645
C65   C     C_3   0.181680 0.742655 0.088765 -0.396481
C66   C     C_3   0.179016 0.802067 0.162711 -0.368157
C67   C     C_3   0.161468 0.770050 0.202332 -0.851166
H63   H     H_    0.107899 0.726490 0.155617 0.250206
H64   H     H_    0.204429 0.746556 0.227226 0.256232
H65   H     H_    0.159021 0.814076 0.254676 0.240284
H66   H     H_    0.231882 0.846331 0.211299 0.226591
H67   H     H_    0.136246 0.826848 0.140364 0.215527
H68   H     H_    0.126470 0.701769 0.041680 0.197426
H69   H     H_    0.219581 0.713370 0.109221 0.206299
C68   C     C_3   0.829199 0.208460 0.909220 -0.401860
C69   C     C_3   0.820394 0.133917 0.837953 -0.365900
C70   C     C_3   0.853222 0.143870 0.794911 -0.844153
H70   H     H_    0.824340 0.173127 0.765815 0.254000
H71   H     H_    0.912035 0.175573 0.840577 0.251441
H72   H     H_    0.847599 0.089284 0.745307 0.241515
H73   H     H_    0.848382 0.102048 0.863617 0.211356
H74   H     H_    0.762060 0.101421 0.790579 0.229653
H75   H     H_    0.807413 0.242956 0.885131 0.206301
H76   H     H_    0.888737 0.236392 0.955703 0.198852

loop_
_geom_bond_atom_site_label_1
_geom_bond_atom_site_label_2
_ccdc_geom_bond_type
C18   H12   S    
Cu3   Cu4   S    
C17   H11   S    
C65   C66   S    
C26   O20   A    
C70   H71   S    
C70   H70   S    
C14   C18   S    
Cu2   O9    S    
C27   O3    A    
C62   C63   S    
Cu6   O6    S    
Cu5   O8    S    
C57   C58   S    
C64   H56   S    
Cu5   O23   S    
C13   H7    S    
Cu1   Cu2   S    
C27   C33   S    
C69   H74   S    
C5    C47   S    
C35   H17   S    
C63   H60   S    
C4    C52   S    
C39   H19   S    
Cu2   O12   S    
C35   C37   D    
C56   H47   S    
C25   O21   A    
C60   H52   S    
C64   H57   S    
C32   H16   S    
C61   H51   S    
C40   C50   S    
C31   H15   S    
C2    O10   A    
C25   C45   S    
C16   C30   S    
C41   H25   S    
C30   O8    A    
C6    H30   S    
C3    H33   S    
C54   C55   S    
Cu4   O16   S    
C28   O24   A    
C19   H13   S    
Cu1   O14   S    
C23   O11   A    
C33   C59   S    
C22   O18   A    
Cu5   O4    S    
C42   H24   S    
C50   C52   S    
Cu4   O21   S    
C67   H64   S    
C16   H10   S    
C62   H61   S    
C53   H41   S    
C8    C52   S    
C18   C20   D    
C66   H67   S    
C3    C5    S    
C58   H44   S    
C44   C52   S    
Cu5   O5    S    
Cu6   O24   S    
C41   C43   S    
C4    H6    S    
C42   C44   S    
C44   H28   S    
C10   C12   T    
C15   C29   S    
C55   H36   S    
C41   C47   S    
C69   H73   S    
C1    C19   S    
C49   H3    S    
C29   O7    A    
Cu1   O1    S    
C43   H27   S    
C59   H55   S    
C2    O2    A    
C42   H26   S    
C56   H48   S    
C4    C6    S    
C64   H58   S    
C65   H68   S    
C68   C69   S    
C3    C51   S    
C42   C48   S    
C49   C51   S    
C39   C53   S    
C40   C56   S    
C2    C20   S    
Cu3   O15   S    
C24   O12   A    
C44   C68   S    
C32   C34   D    
Cu6   O3    S    
C26   O22   A    
C15   H9    S    
C57   H46   S    
C37   H21   S    
C34   C62   S    
C67   H63   S    
Cu1   O10   S    
C61   H49   S    
C41   H23   S    
C31   C33   D    
C14   H8    S    
C67   H65   S    
C54   H39   S    
C63   C64   S    
C62   H62   S    
C9    C11   T    
C21   O15   A    
C6    C48   S    
C66   H66   S    
C69   C70   S    
C39   C49   S    
C9    C47   S    
C1    O9    A    
C13   C15   D    
Cu3   O18   S    
C10   C48   S    
C66   C67   S    
C50   H4    S    
C70   H72   S    
C14   C16   D    
C24   O14   A    
C63   H59   S    
C56   C57   S    
C7    C45   T    
Cu4   O17   S    
C39   C47   S    
C58   H42   S    
C55   H37   S    
C59   H54   S    
C40   C48   S    
C30   O6    A    
Cu2   O13   S    
Cu3   O19   S    
C6    H32   S    
Cu6   O7    S    
C43   C65   S    
C65   H69   S    
C21   O17   A    
C55   H35   S    
C32   C36   S    
Cu3   O22   S    
C3    H5    S    
C59   C60   S    
C12   C24   S    
C49   H1    S    
C29   O5    A    
C28   O4    A    
C50   H2    S    
C36   C38   D    
C7    C51   S    
C60   H53   S    
C57   H45   S    
C61   H50   S    
C43   C51   S    
Cu5   Cu6   S    
C38   H22   S    
Cu1   O11   S    
C22   O16   A    
C31   C35   S    
C11   C23   S    
C17   C19   D    
C68   H75   S    
C40   H20   S    
C54   H38   S    
C8    C46   T    
Cu2   O2    S    
C60   C61   S    
C25   O19   A    
C28   C34   S    
C13   C17   S    
C5    H29   S    
C36   H18   S    
C21   C37   S    
C1    O1    A    
C20   H14   S    
C58   H43   S    
C53   C54   S    
C26   C46   S    
C53   H40   S    
Cu4   O20   S    
C5    H31   S    
C27   O23   A    
C68   H76   S    
C4    H34   S    
C22   C38   S    
C23   O13   A    
