data_mof_unit_17333.cif
_audit_creation_date              2012-10-26T17:12:49-0400
_audit_creation_method            fapswitch 2.2
_symmetry_space_group_name_H-M    P1
_symmetry_Int_Tables_number       1
_space_group_crystal_system       triclinic
_cell_length_a                    27.929093
_cell_length_b                    18.645079
_cell_length_c                    16.819029
_cell_angle_alpha                 89.906928
_cell_angle_beta                  63.259637
_cell_angle_gamma                 90.130024
_cell_volume                      7821.62490368

loop_
_atom_site_label
_atom_site_type_symbol
_atom_type_description
_atom_site_fract_x
_atom_site_fract_y
_atom_site_fract_z
_atom_type_partial_charge
C1    C     C_R   0.296307 0.731692 0.328110 0.850364
C2    C     C_R   0.709280 0.279739 0.667004 0.832968
C3    C     C_R   0.703713 0.731924 0.671561 0.833718
C4    C     C_R   0.295772 0.268904 0.328402 0.846726
C5    C     C_R   0.796218 0.231525 0.328129 0.851924
C6    C     C_R   0.209394 0.779930 0.666925 0.835143
C7    C     C_R   0.204092 0.231241 0.671674 0.827896
C8    C     C_R   0.792374 0.776261 0.331030 0.863171
C9    C     C_R   0.414221 0.000111 0.452452 -0.063310
C10   C     C_R   0.596400 0.002322 0.517285 -0.070813
C11   C     C_R   0.915236 0.499666 0.447944 -0.061055
C12   C     C_R   0.100062 0.501187 0.505332 -0.065629
C13   C     C_R   0.625808 0.892610 0.434097 0.452071
C14   C     C_R   0.418576 0.130502 0.447952 0.442860
C15   C     C_R   0.429812 0.872901 0.412521 0.410442
C16   C     C_R   0.576516 0.125673 0.569875 0.439478
C17   C     C_R   0.127203 0.387762 0.426705 0.445080
C18   C     C_R   0.918726 0.630136 0.446963 0.440336
C19   C     C_R   0.930093 0.372230 0.408467 0.408274
C20   C     C_R   0.077715 0.622527 0.565505 0.439124
C21   C     C_R   0.225657 0.776388 0.946606 0.006596
C22   C     C_R   0.784184 0.240214 0.039809 0.007298
C23   C     C_R   0.783541 0.759289 0.042679 0.002791
C24   C     C_R   0.238211 0.203355 0.934754 0.014919
C25   C     C_R   0.724886 0.274981 0.947024 0.005999
C26   C     C_R   0.285085 0.741844 0.039259 0.012122
C27   C     C_R   0.296612 0.236774 0.029955 0.015462
C28   C     C_R   0.723658 0.727794 0.950060 0.019710
C29   C     C_R   0.279876 0.754923 0.899829 0.042777
C30   C     C_R   0.733252 0.272936 0.084004 0.041304
C31   C     C_R   0.731558 0.729854 0.086631 0.044087
C32   C     C_R   0.279368 0.255520 0.901982 0.055411
C33   C     C_R   0.779044 0.253205 0.900374 0.040448
C34   C     C_R   0.234277 0.774849 0.083432 0.030451
C35   C     C_R   0.255204 0.184931 0.063638 0.043535
C36   C     C_R   0.773242 0.764737 0.907153 0.052038
C37   C     C_R   0.306604 0.726675 0.947206 0.009379
C38   C     C_R   0.699905 0.278945 0.040808 0.008242
C39   C     C_R   0.705525 0.703775 0.038297 0.010330
C40   C     C_R   0.314109 0.262925 0.942416 0.003208
C41   C     C_R   0.805655 0.224892 0.947843 0.007899
C42   C     C_R   0.200817 0.780578 0.040393 -0.009780
C43   C     C_R   0.231305 0.160715 0.008883 -0.009988
C44   C     C_R   0.807122 0.770322 0.949852 -0.003535
C45   C     C_R   0.143828 0.820887 0.943877 -0.048301
C46   C     C_R   0.862245 0.185618 0.046053 -0.029516
C47   C     C_R   0.861108 0.814341 0.050383 -0.046308
C48   C     C_R   0.163855 0.140444 0.924550 -0.057829
C49   C     C_R   0.643277 0.320038 0.944068 -0.033881
C50   C     C_R   0.362817 0.686520 0.045804 -0.030338
C51   C     C_R   0.365853 0.308714 0.044637 -0.048155
C52   C     C_R   0.642417 0.678814 0.948989 -0.031096
C53   C     C_R   0.119707 0.853058 0.893645 -0.215281
C54   C     C_R   0.887513 0.159338 0.097528 -0.231888
C55   C     C_R   0.882379 0.849365 0.103293 -0.217253
C56   C     C_R   0.125655 0.137529 0.889698 -0.217096
C57   C     C_R   0.619355 0.352564 0.893774 -0.218178
C58   C     C_R   0.387795 0.659694 0.097465 -0.228402
C59   C     C_R   0.384463 0.345323 0.100108 -0.216086
C60   C     C_R   0.614052 0.657442 0.900649 -0.222775
C61   C     C_R   0.145069 0.845802 0.800156 0.397985
C62   C     C_R   0.869407 0.183973 0.185780 0.392932
C63   C     C_R   0.855914 0.841543 0.196609 0.379237
C64   C     C_R   0.135286 0.177142 0.812413 0.405938
C65   C     C_R   0.644727 0.345298 0.800282 0.392206
C66   C     C_R   0.369593 0.684090 0.185854 0.398267
C67   C     C_R   0.357741 0.334469 0.192736 0.385307
C68   C     C_R   0.631036 0.683879 0.813450 0.401380
C69   C     C_R   0.192105 0.805671 0.758607 -0.240403
C70   C     C_R   0.820914 0.222529 0.228829 -0.230712
C71   C     C_R   0.811544 0.795944 0.236527 -0.231707
C72   C     C_R   0.182573 0.217352 0.769227 -0.239243
C73   C     C_R   0.691811 0.305227 0.758761 -0.239771
C74   C     C_R   0.321244 0.723005 0.228740 -0.232768
C75   C     C_R   0.319344 0.279412 0.229865 -0.246872
C76   C     C_R   0.679611 0.722612 0.770040 -0.236942
C77   C     C_R   0.222566 0.793592 0.805066 0.004206
C78   C     C_R   0.794511 0.245995 0.177482 -0.002820
C79   C     C_R   0.784426 0.774300 0.186616 -0.010154
C80   C     C_R   0.212234 0.234617 0.817180 0.007752
C81   C     C_R   0.722114 0.292789 0.805374 0.000734
C82   C     C_R   0.295206 0.747150 0.177122 -0.003356
C83   C     C_R   0.300540 0.242503 0.173783 -0.006976
C84   C     C_R   0.707747 0.743902 0.819339 0.001638
C85   C     C_R   0.196451 0.631796 0.528311 0.841214
C86   C     C_R   0.804526 0.367709 0.468877 0.808958
C87   C     C_R   0.803413 0.631421 0.472805 0.809359
C88   C     C_R   0.200831 0.369293 0.513614 0.840491
C89   C     C_R   0.695967 0.132262 0.530401 0.838465
C90   C     C_R   0.304465 0.867810 0.469359 0.806165
C91   C     C_R   0.303365 0.131444 0.473011 0.794041
C92   C     C_R   0.699675 0.869554 0.517410 0.827787
C93   C     C_R   0.197108 0.796415 0.898710 0.067518
C94   C     C_R   0.813512 0.223232 0.088159 0.065408
C95   C     C_R   0.810179 0.781801 0.093052 0.059852
C96   C     C_R   0.204522 0.193088 0.892443 0.064836
C97   C     C_R   0.696509 0.295376 0.899011 0.067935
C98   C     C_R   0.314248 0.724492 0.087749 0.065323
C99   C     C_R   0.320791 0.262971 0.083234 0.060777
C100  C     C_R   0.691559 0.715984 0.905444 0.063713
C101  C     C_R   0.116879 0.811866 0.036847 -0.201138
C102  C     C_R   0.883845 0.174980 0.953440 -0.193993
C103  C     C_R   0.888414 0.810566 0.956651 -0.176834
C104  C     C_R   0.165356 0.089620 0.985682 -0.174631
C105  C     C_R   0.616112 0.310621 0.036961 -0.188968
C106  C     C_R   0.384594 0.676158 0.953142 -0.196200
C107  C     C_R   0.391771 0.313412 0.950889 -0.189595
C108  C     C_R   0.624143 0.662370 0.039622 -0.195232
C109  C     C_R   0.143956 0.789410 0.085776 0.079066
C110  C     C_R   0.853509 0.184092 0.907381 0.066458
C111  C     C_R   0.862798 0.786786 0.905897 0.136900
C112  C     C_R   0.201147 0.096388 0.023195 0.138709
C113  C     C_R   0.642981 0.287493 0.085967 0.080427
C114  C     C_R   0.354503 0.685875 0.906718 0.067308
C115  C     C_R   0.366520 0.291946 0.899169 0.127642
C116  C     C_R   0.658667 0.661040 0.077764 0.064520
C117  C     C_R   0.278450 0.785264 0.760845 -0.165432
C118  C     C_R   0.751544 0.295283 0.209424 -0.160488
C119  C     C_R   0.730135 0.752969 0.227287 -0.129096
C120  C     C_R   0.248564 0.292592 0.793810 -0.151742
C121  C     C_R   0.777984 0.284171 0.761333 -0.161342
C122  C     C_R   0.252730 0.797205 0.208741 -0.151523
C123  C     C_R   0.261141 0.187570 0.204171 -0.140246
C124  C     C_R   0.750237 0.794597 0.788168 -0.148471
C125  C     C_R   0.306722 0.768498 0.808071 -0.216939
C126  C     C_R   0.720498 0.306167 0.165275 -0.211063
C127  C     C_R   0.704051 0.735270 0.178331 -0.226493
C128  C     C_R   0.281172 0.303016 0.835784 -0.236990
C129  C     C_R   0.806062 0.266788 0.808648 -0.205701
C130  C     C_R   0.221985 0.808962 0.164156 -0.222867
C131  C     C_R   0.237577 0.162029 0.151970 -0.240592
C132  C     C_R   0.783073 0.803316 0.829878 -0.245400
C133  C     C_R   0.927255 0.901435 0.065471 0.823053
C134  C     C_R   0.076716 0.092345 0.930948 0.813360
C135  C     C_R   0.073223 0.902123 0.933940 0.798754
C136  C     C_R   0.928502 0.100566 0.064260 0.821435
C137  C     C_R   0.427295 0.401148 0.065219 0.826214
C138  C     C_R   0.571938 0.600075 0.935192 0.814121
C139  C     C_R   0.573094 0.401971 0.934020 0.816438
C140  C     C_R   0.428571 0.600649 0.064229 0.812416
C141  C     C_R   0.036537 0.625148 0.538893 0.012655
C142  C     C_R   0.982312 0.379441 0.403296 0.005677
C143  C     C_R   0.955205 0.628860 0.482947 0.009502
C144  C     C_R   0.079511 0.385050 0.417525 0.002054
C145  C     C_R   0.535646 0.127721 0.542227 0.013815
C146  C     C_R   0.481503 0.880343 0.409569 0.004678
C147  C     C_R   0.454852 0.130129 0.484530 0.004372
C148  C     C_R   0.578061 0.887672 0.425612 0.007205
C149  C     C_R   0.009493 0.689447 0.542042 -0.211538
C150  C     C_R   0.023357 0.329069 0.359194 -0.211200
C151  C     C_R   0.971090 0.691951 0.510223 -0.187863
C152  C     C_R   0.070684 0.330792 0.367913 -0.197992
C153  C     C_R   0.510783 0.192489 0.539230 -0.203973
C154  C     C_R   0.523437 0.831156 0.364796 -0.208468
C155  C     C_R   0.472289 0.194042 0.507529 -0.187331
C156  C     C_R   0.570773 0.834297 0.373587 -0.199617
C157  C     C_R   0.979282 0.563717 0.485136 0.005979
C158  C     C_R   0.042083 0.440873 0.451879 0.004164
C159  C     C_R   0.022946 0.562968 0.506032 0.005771
C160  C     C_R   0.994648 0.439336 0.440977 0.009700
C161  C     C_R   0.477586 0.064921 0.490830 0.005788
C162  C     C_R   0.539447 0.941837 0.461917 0.002816
C163  C     C_R   0.520697 0.064520 0.513308 0.005565
C164  C     C_R   0.492658 0.939969 0.449259 0.007959
C165  C     C_R   0.460842 0.001089 0.465864 -0.064327
C166  C     C_R   0.550937 0.002104 0.500917 -0.066442
C167  C     C_R   0.962652 0.500425 0.459058 -0.065463
C168  C     C_R   0.054212 0.501022 0.490177 -0.066465
C169  C     C_R   0.393613 0.933693 0.438766 -0.015404
C170  C     C_R   0.611654 0.065178 0.547293 -0.038316
C171  C     C_R   0.629806 0.941619 0.494481 -0.028758
C172  C     C_R   0.389282 0.066172 0.451656 -0.044243
C173  C     C_R   0.894147 0.433318 0.435206 -0.015889
C174  C     C_R   0.114100 0.563418 0.538702 -0.035912
C175  C     C_R   0.133603 0.440316 0.482248 -0.035276
C176  C     C_R   0.889772 0.565865 0.449263 -0.045942
C177  C     C_R   0.338871 0.933530 0.450381 -0.078014
C178  C     C_R   0.663489 0.066019 0.545849 -0.108663
C179  C     C_R   0.672008 0.937868 0.519246 -0.085530
C180  C     C_R   0.336863 0.065367 0.455999 -0.107975
C181  C     C_R   0.839033 0.433350 0.448859 -0.079120
C182  C     C_R   0.165359 0.564848 0.538802 -0.106970
C183  C     C_R   0.174854 0.437130 0.509652 -0.094355
C184  C     C_R   0.837027 0.565259 0.454972 -0.112727
C185  C     C_R   0.312931 0.999270 0.456362 -0.304424
C186  C     C_R   0.689167 0.001024 0.542576 -0.305051
C187  C     C_R   0.812979 0.499170 0.455638 -0.299403
C188  C     C_R   0.191611 0.500287 0.533739 -0.306673
Cu1   Cu    Cu3+1 0.209920 0.785290 0.495070 0.977804
Cu2   Cu    Cu3+1 0.790080 0.214710 0.504930 0.920942
Cu3   Cu    Cu3+1 0.790080 0.785290 0.504930 0.986112
Cu4   Cu    Cu3+1 0.209920 0.214710 0.495070 0.978509
Cu5   Cu    Cu3+1 0.709920 0.285290 0.495070 0.978858
Cu6   Cu    Cu3+1 0.290080 0.714710 0.504930 0.922959
Cu7   Cu    Cu3+1 0.290080 0.285290 0.504930 0.990815
Cu8   Cu    Cu3+1 0.709920 0.714710 0.495070 0.961205
Cu9   Cu    Cu3+1 0.495240 0.500000 0.924150 0.949773
Cu10  Cu    Cu3+1 0.504760 0.500000 0.075850 0.952964
Cu11  Cu    Cu3+1 0.995240 0.000000 0.924150 0.954716
Cu12  Cu    Cu3+1 0.004760 1.000000 0.075850 0.954058
H1    H     H_    0.601431 0.794543 0.340308 0.159269
H2    H     H_    0.455495 0.245175 0.502519 0.177822
H3    H     H_    0.521051 0.791625 0.319893 0.156224
H4    H     H_    0.523057 0.242721 0.556795 0.175159
H5    H     H_    0.100343 0.289512 0.335494 0.183928
H6    H     H_    0.952807 0.742900 0.509199 0.175968
H7    H     H_    0.020085 0.289210 0.315418 0.159066
H8    H     H_    0.019902 0.738727 0.564663 0.180390
H9    H     H_    0.272026 0.999000 0.465274 0.183999
H10   H     H_    0.725328 0.000503 0.551255 0.185902
H11   H     H_    0.771842 0.498949 0.465714 0.184887
H12   H     H_    0.227177 0.499875 0.544162 0.187603
H13   H     H_    0.073859 0.818351 0.071428 0.162415
H14   H     H_    0.924981 0.159884 0.913736 0.170589
H15   H     H_    0.930790 0.822316 0.921809 0.166256
H16   H     H_    0.142375 0.040644 0.998790 0.171919
H17   H     H_    0.573095 0.317302 0.071324 0.155658
H18   H     H_    0.425696 0.660742 0.913753 0.166753
H19   H     H_    0.433284 0.329269 0.915527 0.173738
H20   H     H_    0.582923 0.650795 0.084235 0.167153
H21   H     H_    0.301271 0.796150 0.690423 0.159116
H22   H     H_    0.742542 0.329854 0.265468 0.174932
H23   H     H_    0.703711 0.755490 0.296733 0.231835
H24   H     H_    0.250531 0.332659 0.745960 0.163152
H25   H     H_    0.800979 0.295299 0.691010 0.158920
H26   H     H_    0.244045 0.831611 0.264848 0.171323
H27   H     H_    0.247513 0.161781 0.267804 0.173949
H28   H     H_    0.757499 0.831345 0.734417 0.171025
H29   H     H_    0.349830 0.770850 0.773064 0.135755
H30   H     H_    0.689263 0.345774 0.191521 0.140681
H31   H     H_    0.661051 0.731096 0.212942 0.133399
H32   H     H_    0.306889 0.349932 0.817786 0.141795
H33   H     H_    0.849195 0.268747 0.773760 0.135131
H34   H     H_    0.191557 0.849954 0.189337 0.131434
H35   H     H_    0.203990 0.125627 0.183160 0.139832
H36   H     H_    0.814778 0.843088 0.803497 0.143153
O1    O     O_R   0.255040 0.869590 0.478480 -0.612667
O2    O     O_R   0.744960 0.130410 0.521520 -0.603272
O3    O     O_R   0.744960 0.869590 0.521520 -0.610886
O4    O     O_R   0.255040 0.130410 0.478480 -0.607715
O5    O     O_R   0.755040 0.369590 0.478480 -0.611792
O6    O     O_R   0.244960 0.630410 0.521520 -0.602640
O7    O     O_R   0.244960 0.369590 0.521520 -0.610409
O8    O     O_R   0.755040 0.630410 0.478480 -0.597884
O9    O     O_R   0.182050 0.796550 0.624440 -0.510936
O10   O     O_R   0.817950 0.203450 0.375560 -0.530289
O11   O     O_R   0.817950 0.796550 0.375560 -0.520112
O12   O     O_R   0.182050 0.203450 0.624440 -0.530559
O13   O     O_R   0.682050 0.296550 0.624440 -0.511204
O14   O     O_R   0.317950 0.703450 0.375560 -0.530595
O15   O     O_R   0.317950 0.296550 0.375560 -0.515942
O16   O     O_R   0.682050 0.703450 0.624440 -0.529125
O17   O     O_R   0.250530 0.763330 0.367210 -0.615969
O18   O     O_R   0.749470 0.236670 0.632790 -0.613520
O19   O     O_R   0.749470 0.763330 0.632790 -0.612643
O20   O     O_R   0.250530 0.236670 0.367210 -0.584401
O21   O     O_R   0.750530 0.263330 0.367210 -0.615663
O22   O     O_R   0.249470 0.736670 0.632790 -0.612099
O23   O     O_R   0.249470 0.263330 0.632790 -0.607810
O24   O     O_R   0.750530 0.736670 0.367210 -0.606962
O25   O     O_R   0.177260 0.690030 0.513710 -0.527291
O26   O     O_R   0.822740 0.309970 0.486290 -0.571734
O27   O     O_R   0.822740 0.690030 0.486290 -0.526377
O28   O     O_R   0.177260 0.309970 0.513710 -0.550658
O29   O     O_R   0.677260 0.190030 0.513710 -0.527860
O30   O     O_R   0.322740 0.809970 0.486290 -0.571799
O31   O     O_R   0.322740 0.190030 0.486290 -0.528785
O32   O     O_R   0.677260 0.809970 0.513710 -0.570399
O33   O     O_R   0.051640 0.926880 0.885090 -0.532195
O34   O     O_R   0.948360 0.073120 0.114910 -0.529845
O35   O     O_R   0.948360 0.926880 0.114910 -0.526352
O36   O     O_R   0.051640 0.073120 0.885090 -0.534356
O37   O     O_R   0.551640 0.426880 0.885090 -0.532702
O38   O     O_R   0.448360 0.573120 0.114910 -0.533304
O39   O     O_R   0.448360 0.426880 0.114910 -0.526368
O40   O     O_R   0.551640 0.573120 0.885090 -0.535179
O41   O     O_R   0.940620 0.926560 0.986760 -0.604741
O42   O     O_R   0.059380 0.073440 0.013240 -0.610407
O43   O     O_R   0.059380 0.926560 0.013240 -0.616424
O44   O     O_R   0.940620 0.073440 0.986760 -0.605738
O45   O     O_R   0.440620 0.426560 0.986760 -0.608407
O46   O     O_R   0.559380 0.573440 0.013240 -0.613935
O47   O     O_R   0.559380 0.426560 0.013240 -0.600906
O48   O     O_R   0.440620 0.573440 0.986760 -0.608396
O49   O     O_3   0.672488 0.864968 0.368047 -0.603829
C189  C     C_3   0.695056 0.917597 0.300135 -0.390426
H37   H     H_    0.735011 0.899937 0.250164 0.190174
H38   H     H_    0.701446 0.969846 0.326016 0.164435
H39   H     H_    0.669796 0.925257 0.265161 0.185226
O50   O     O_3   0.418585 0.191086 0.399637 -0.559936
C190  C     C_3   0.432563 0.172438 0.310513 -0.291588
H40   H     H_    0.398200 0.147116 0.304892 0.149150
H41   H     H_    0.468201 0.136646 0.281656 0.138825
H42   H     H_    0.442944 0.222227 0.269905 0.193498
O51   O     O_3   0.417923 0.810270 0.379968 -0.591194
C191  C     C_3   0.419682 0.749281 0.430063 -0.210552
H43   H     H_    0.411498 0.762173 0.499784 0.122231
H44   H     H_    0.457814 0.719679 0.396273 0.109158
H45   H     H_    0.388917 0.710088 0.433884 0.218240
O52   O     O_3   0.580466 0.182943 0.619230 -0.563488
C192  C     C_3   0.570444 0.159114 0.705085 -0.324177
H46   H     H_    0.605838 0.131229 0.703792 0.155690
H47   H     H_    0.534431 0.123781 0.735675 0.143118
H48   H     H_    0.562813 0.206673 0.748638 0.195080
O53   O     O_3   0.170593 0.347100 0.370396 -0.562985
C193  C     C_3   0.197751 0.385816 0.289921 -0.364441
H49   H     H_    0.232956 0.354880 0.244090 0.198083
H50   H     H_    0.212395 0.438619 0.301034 0.147449
H51   H     H_    0.172052 0.393721 0.255769 0.170141
O54   O     O_3   0.918444 0.691515 0.400168 -0.559219
C194  C     C_3   0.932790 0.674288 0.310527 -0.285540
H52   H     H_    0.898954 0.648089 0.304118 0.152179
H53   H     H_    0.969145 0.639825 0.280757 0.137146
H54   H     H_    0.942196 0.724793 0.271363 0.196031
O55   O     O_3   0.917200 0.309073 0.378293 -0.591441
C195  C     C_3   0.919256 0.248848 0.429320 -0.204506
H55   H     H_    0.912158 0.262878 0.498217 0.121901
H56   H     H_    0.957008 0.218507 0.395134 0.111207
H57   H     H_    0.887945 0.209747 0.435390 0.217031
O56   O     O_3   0.080586 0.677632 0.618594 -0.562616
C196  C     C_3   0.070451 0.650251 0.703067 -0.327365
H58   H     H_    0.105984 0.621905 0.700562 0.155642
H59   H     H_    0.034805 0.614144 0.731067 0.145776
H60   H     H_    0.062220 0.695957 0.749495 0.193133
O57   O     O_3   0.124612 0.879557 0.748546 -0.540233
C197  C     C_3   0.153186 0.944338 0.715076 -0.183175
H61   H     H_    0.195931 0.934159 0.668152 0.126654
H62   H     H_    0.150674 0.980192 0.769724 0.132360
H63   H     H_    0.134994 0.973202 0.677712 0.184462
O58   O     O_3   0.898958 0.169103 0.231329 -0.548809
C198  C     C_3   0.941360 0.219309 0.204176 -0.207059
H64   H     H_    0.925853 0.275043 0.220528 0.175028
H65   H     H_    0.968900 0.215178 0.131757 0.120839
H66   H     H_    0.965398 0.207684 0.240094 0.184122
O59   O     O_3   0.872593 0.880512 0.249871 -0.542243
C199  C     C_3   0.841128 0.943284 0.278796 -0.195280
H67   H     H_    0.798581 0.930259 0.324334 0.135955
H68   H     H_    0.843495 0.976086 0.221723 0.130455
H69   H     H_    0.856770 0.976657 0.316525 0.191213
O60   O     O_3   0.100063 0.172564 0.775297 -0.540513
C200  C     C_3   0.066089 0.232855 0.802577 -0.279067
H70   H     H_    0.089091 0.283493 0.776464 0.139920
H71   H     H_    0.042888 0.235118 0.876437 0.133074
H72   H     H_    0.036812 0.228286 0.775053 0.178177
O61   O     O_3   0.624088 0.378709 0.748705 -0.542777
C201  C     C_3   0.652540 0.443500 0.714761 -0.175040
H73   H     H_    0.695340 0.433424 0.668065 0.125018
H74   H     H_    0.649838 0.479766 0.769168 0.141062
H75   H     H_    0.634363 0.471856 0.677022 0.183957
O62   O     O_3   0.398812 0.668449 0.231768 -0.546477
C202  C     C_3   0.441370 0.718341 0.205492 -0.220658
H76   H     H_    0.426024 0.774102 0.222392 0.179199
H77   H     H_    0.469087 0.714604 0.133103 0.115014
H78   H     H_    0.465182 0.705987 0.241613 0.179792
O63   O     O_3   0.369542 0.378595 0.247933 -0.540298
C203  C     C_3   0.334955 0.438454 0.271881 -0.208697
H79   H     H_    0.293175 0.422356 0.317578 0.138591
H80   H     H_    0.336215 0.466860 0.212649 0.122982
H81   H     H_    0.348169 0.477144 0.308106 0.195873
O64   O     O_3   0.601308 0.668432 0.768321 -0.540463
C204  C     C_3   0.562918 0.723062 0.786746 -0.271066
H82   H     H_    0.582469 0.776187 0.762780 0.140340
H83   H     H_    0.534730 0.725439 0.859078 0.130632
H84   H     H_    0.538911 0.710868 0.750824 0.174856
C205  C     C_3   0.109699 0.765771 0.181985 -0.390247
C206  C     C_3   0.117690 0.685920 0.195460 -0.344678
C207  C     C_3   0.085425 0.663690 0.292685 -0.821021
H85   H     H_    0.099755 0.693228 0.335253 0.262298
H86   H     H_    0.042309 0.675220 0.315606 0.268415
H87   H     H_    0.090228 0.605287 0.299922 0.241105
H88   H     H_    0.104638 0.653004 0.153614 0.212478
H89   H     H_    0.160548 0.674219 0.175252 0.233773
H90   H     H_    0.116757 0.799055 0.229860 0.193694
H91   H     H_    0.066435 0.773497 0.200804 0.188841
C208  C     C_3   0.868688 0.136755 0.825331 -0.396534
C209  C     C_3   0.823210 0.084332 0.838077 -0.308358
C210  C     C_3   0.840422 0.031765 0.760654 -0.869805
H92   H     H_    0.851968 0.061252 0.697159 0.253779
H93   H     H_    0.874872 0.999092 0.755679 0.249048
H94   H     H_    0.806599 0.995077 0.771700 0.240161
H95   H     H_    0.811341 0.053402 0.900773 0.220328
H96   H     H_    0.787608 0.114118 0.843042 0.228925
H97   H     H_    0.904353 0.103765 0.814022 0.195183
H98   H     H_    0.881666 0.167266 0.762814 0.180366
C211  C     C_3   0.898127 0.769327 0.808459 -0.422800
C212  C     C_3   0.936120 0.706625 0.797879 -0.343462
C213  C     C_3   0.905900 0.635893 0.832122 -0.793423
H99   H     H_    0.879569 0.638718 0.904934 0.255594
H100  H     H_    0.881174 0.623533 0.797386 0.252201
H101  H     H_    0.935000 0.591696 0.819294 0.222491
H102  H     H_    0.963822 0.700466 0.726163 0.234888
H103  H     H_    0.960930 0.717909 0.832709 0.209149
H104  H     H_    0.875247 0.753649 0.772060 0.211578
H105  H     H_    0.922073 0.817636 0.774649 0.165390
C214  C     C_3   0.213057 0.029548 0.063259 -0.435070
C215  C     C_3   0.232279 0.966076 0.997948 -0.340133
C216  C     C_3   0.282796 0.983528 0.912339 -0.783870
H106  H     H_    0.274365 0.025231 0.873163 0.254713
H107  H     H_    0.315230 0.002737 0.928090 0.244679
H108  H     H_    0.296735 0.934431 0.870975 0.237131
H109  H     H_    0.241710 0.920939 0.031449 0.217370
H110  H     H_    0.200135 0.947479 0.981207 0.218962
H111  H     H_    0.176283 0.013359 0.123561 0.159933
H112  H     H_    0.245321 0.038963 0.083186 0.205506
C217  C     C_3   0.608470 0.262794 0.181709 -0.397029
C218  C     C_3   0.617170 0.183011 0.194438 -0.348529
C219  C     C_3   0.585029 0.160051 0.291429 -0.819972
H113  H     H_    0.599013 0.189716 0.334369 0.262225
H114  H     H_    0.541827 0.170870 0.314327 0.268422
H115  H     H_    0.590361 0.101712 0.298155 0.239906
H116  H     H_    0.604495 0.150026 0.152162 0.212608
H117  H     H_    0.660099 0.171922 0.174283 0.232173
H118  H     H_    0.614636 0.296032 0.230524 0.193971
H119  H     H_    0.565226 0.269656 0.199801 0.189972
C220  C     C_3   0.370074 0.639170 0.824041 -0.396878
C221  C     C_3   0.324802 0.586781 0.835602 -0.307028
C222  C     C_3   0.342435 0.534865 0.757469 -0.871947
H120  H     H_    0.354210 0.564891 0.694269 0.254375
H121  H     H_    0.376834 0.502101 0.752549 0.248553
H122  H     H_    0.308747 0.498217 0.767619 0.238871
H123  H     H_    0.312759 0.555327 0.897968 0.219270
H124  H     H_    0.289225 0.616590 0.840517 0.230230
H125  H     H_    0.405708 0.606125 0.812765 0.193500
H126  H     H_    0.383333 0.670157 0.761814 0.179276
C223  C     C_3   0.401774 0.285050 0.799618 -0.423031
C224  C     C_3   0.438573 0.219462 0.779152 -0.336807
C225  C     C_3   0.409146 0.149394 0.782487 -0.785287
H127  H     H_    0.376669 0.139589 0.850632 0.254529
H128  H     H_    0.391729 0.151294 0.734739 0.254126
H129  H     H_    0.437754 0.103979 0.763916 0.225637
H130  H     H_    0.471970 0.226044 0.711661 0.237190
H131  H     H_    0.456636 0.215993 0.825926 0.209101
H132  H     H_    0.379533 0.280333 0.759761 0.210172
H133  H     H_    0.426813 0.334263 0.775279 0.163928
C226  C     C_3   0.647291 0.604973 0.150732 -0.398633
C227  C     C_3   0.696103 0.557025 0.130291 -0.302867
C228  C     C_3   0.683960 0.501944 0.204049 -0.876475
H134  H     H_    0.672921 0.529289 0.268571 0.255806
H135  H     H_    0.650489 0.466354 0.210291 0.248361
H136  H     H_    0.720175 0.468948 0.188026 0.243971
H137  H     H_    0.707433 0.528538 0.066303 0.221258
H138  H     H_    0.730957 0.589549 0.123945 0.228694
H139  H     H_    0.614219 0.568988 0.155469 0.198007
H140  H     H_    0.632024 0.628306 0.217980 0.178207

loop_
_geom_bond_atom_site_label_1
_geom_bond_atom_site_label_2
_ccdc_geom_bond_type
C225  H127  S    
C92   O3    A    
C85   C182  S    
C103  H15   S    
Cu3   O11   S    
C223  C224  S    
C7    O23   A    
C212  H102  S    
C34   C42   A    
C213  H101  S    
Cu1   O1    S    
C154  H3    S    
C181  C187  A    
C205  H90   S    
C228  H134  S    
C227  C228  S    
Cu12  O34   S    
C27   C99   A    
C170  C178  A    
C175  C183  A    
C42   C109  A    
C216  H107  S    
C209  H96   S    
C228  H136  S    
C123  H27   S    
C133  O41   A    
C220  H126  S    
C30   C38   A    
C219  H115  S    
C169  C177  A    
Cu3   Cu8   S    
C210  H94   S    
C9    C169  A    
Cu1   Cu6   S    
C211  H105  S    
C68   O64   S    
C101  H13   S    
Cu4   O20   S    
C14   O50   S    
C197  H61   S    
C155  H2    S    
C147  C155  A    
C123  C131  A    
C143  C151  A    
C90   C177  S    
Cu11  Cu12  S    
C128  H32   S    
C218  H117  S    
C11   C167  A    
C82   C98   A    
C76   C84   A    
C91   O31   A    
C2    O18   A    
C73   C81   A    
C161  C163  A    
C162  C164  A    
C204  H84   S    
C50   C98   A    
O58   C198  S    
C84   C100  A    
Cu4   Cu7   S    
O60   C200  S    
C104  H16   S    
C215  H110  S    
C37   C114  A    
C27   C35   A    
C10   C171  A    
C192  H46   S    
C21   C29   A    
C137  O39   A    
C203  H81   S    
C81   C121  A    
C195  H55   S    
C23   C31   A    
Cu4   O28   S    
C5    C70   S    
Cu11  O44   S    
C146  C154  A    
Cu12  O43   S    
C197  H63   S    
C119  H23   S    
C193  H49   S    
C132  H36   S    
C131  H35   S    
C107  H19   S    
C13   O49   S    
C191  H43   S    
C187  H11   S    
C105  H17   S    
C185  H9    S    
C116  C226  S    
C213  H99   S    
C223  H133  S    
O52   C192  S    
C12   C174  A    
C192  H48   S    
C58   C140  S    
C176  C184  A    
C8    C71   S    
C48   C96   A    
C189  H39   S    
C89   O2    A    
Cu7   O23   S    
C199  H67   S    
C56   C134  S    
C208  C209  S    
Cu10  O39   S    
C148  C162  A    
C221  C222  S    
C24   C96   A    
C217  C218  S    
C189  H38   S    
C188  H12   S    
C142  C150  A    
C21   C93   A    
C78   C94   A    
C9    C165  A    
C85   O6    A    
C23   C95   A    
C207  H87   S    
O62   C202  S    
C133  O35   A    
C49   C97   A    
C21   C42   A    
C22   C41   A    
C51   C107  A    
C196  H58   S    
C138  O40   A    
C24   C43   A    
Cu1   O17   S    
C183  C188  A    
C217  H118  S    
C206  H88   S    
C82   C122  A    
C161  C165  A    
C17   C175  A    
C60   C138  S    
C18   C176  A    
C6    C69   S    
C29   C125  A    
C118  H22   S    
C69   C77   A    
C202  H76   S    
Cu6   O30   S    
C31   C127  A    
C5    O10   A    
C45   C93   A    
C174  C182  A    
C88   O7    A    
C71   C79   A    
C202  H78   S    
C121  H25   S    
C179  C186  A    
C224  H131  S    
C225  H128  S    
C214  H111  S    
C11   C176  A    
C17   C144  A    
C1    C74   S    
C103  C111  A    
C18   C143  A    
C78   C118  A    
C125  H29   S    
C149  C151  A    
C92   O32   A    
Cu4   O4    S    
C134  O36   A    
C66   C74   A    
C135  O33   A    
C49   C57   A    
C124  C132  A    
C61   O57   S    
C52   C60   A    
C59   C67   A    
C53   C61   A    
C141  C159  A    
C191  H45   S    
C20   C174  A    
C8    O11   A    
C55   C63   A    
C86   C181  S    
C56   C64   A    
C221  H124  S    
C35   C43   A    
C10   C166  A    
C201  H74   S    
Cu11  O33   S    
C45   C53   A    
C120  H24   S    
Cu10  O46   S    
C22   C94   A    
C171  C179  A    
C140  O48   A    
C199  H69   S    
C156  H1    S    
C149  H8    S    
C203  H80   S    
O64   C204  S    
C222  H121  S    
C200  H71   S    
Cu2   O10   S    
Cu3   O3    S    
C18   O54   S    
C2    O13   A    
C7    C72   S    
C104  C112  A    
Cu9   O40   S    
C62   O58   S    
C63   O59   S    
C226  H140  S    
C145  C163  A    
C146  C164  A    
C14   C147  A    
C52   C100  A    
O59   C199  S    
C79   C119  A    
C16   C145  A    
C178  C186  A    
C8    O24   A    
C25   C38   A    
Cu5   O21   S    
C46   C94   A    
C27   C40   A    
C115  C223  S    
C196  H60   S    
C91   C180  S    
Cu8   O16   S    
C5    O21   A    
C182  C188  A    
C89   C178  S    
C28   C36   A    
C2    C73   S    
C25   C97   A    
O53   C193  S    
Cu12  O42   S    
C194  H53   S    
Cu8   O32   S    
C67   C75   A    
C4    O20   A    
C17   O53   S    
C87   O27   A    
C88   O28   A    
C201  H75   S    
Cu2   O18   S    
Cu7   O7    S    
C121  C129  A    
C22   C30   A    
Cu5   O5    S    
C20   C141  A    
C212  H103  S    
C213  H100  S    
C15   C146  A    
C68   C76   A    
C16   O52   S    
Cu4   O12   S    
C184  C187  A    
C66   O62   S    
C83   C123  A    
C32   C128  A    
C35   C131  A    
C144  C152  A    
C216  H106  S    
C112  C214  S    
C87   O8    A    
C191  H44   S    
C220  H125  S    
C89   O29   A    
C219  H114  S    
Cu9   Cu10  S    
C198  H66   S    
Cu9   O45   S    
C210  H93   S    
C227  H137  S    
C137  O45   A    
C113  C217  S    
C13   C171  A    
C211  H104  S    
C127  H31   S    
C139  O37   A    
C197  H62   S    
C117  C125  A    
C25   C33   A    
C119  C127  A    
C20   O56   S    
C109  C205  S    
Cu2   O2    S    
C157  C167  A    
C80   C120  A    
C158  C168  A    
C204  H83   S    
C135  O43   A    
C164  C165  A    
C136  O44   A    
C40   C115  A    
C224  C225  S    
C101  C109  A    
C122  H26   S    
C177  C185  A    
C57   C139  S    
C195  H56   S    
O50   C190  S    
C206  C207  S    
C4    C75   S    
Cu2   Cu5   S    
C162  C166  A    
C102  H14   S    
C53   C135  S    
C91   O4    A    
C193  H50   S    
C153  C155  A    
Cu7   O31   S    
C154  C156  A    
C208  H98   S    
C172  C180  A    
C228  H135  S    
C173  C181  A    
O55   C195  S    
C157  C159  A    
C83   C99   A    
C158  C160  A    
C74   C82   A    
C223  H132  S    
C1    O17   A    
C205  H91   S    
C192  H47   S    
C114  C220  S    
C193  H51   S    
C47   C103  A    
C50   C58   A    
C163  C166  A    
C215  C216  S    
C199  H68   S    
C147  C161  A    
C216  H108  S    
C85   O25   A    
O51   C191  S    
C38   C113  A    
C209  H95   S    
C49   C105  A    
C54   C62   A    
C28   C39   A    
C130  H34   S    
Cu3   O19   S    
C23   C44   A    
C134  O42   A    
C198  H64   S    
C19   C173  A    
C79   C95   A    
O49   C189  S    
C92   C179  S    
C86   O26   A    
Cu9   O37   S    
C46   C54   A    
Cu1   O25   S    
C207  H86   S    
C65   O61   S    
C63   C71   A    
C45   C101  A    
C106  H18   S    
C106  C114  A    
C19   C142  A    
C218  H116  S    
C186  H10   S    
C102  C110  A    
C206  H89   S    
C211  C212  S    
C33   C129  A    
O54   C194  S    
C64   O60   S    
C90   O1    A    
C190  H41   S    
C4    O15   A    
C57   C65   A    
C215  H109  S    
C205  C206  S    
C214  C215  S    
C120  C128  A    
C26   C37   A    
C139  O47   A    
C10   C170  A    
C6    O22   A    
C33   C41   A    
C108  C116  A    
C36   C132  A    
C212  C213  S    
C55   C133  S    
C75   C83   A    
Cu11  O41   S    
C86   O5    A    
C77   C93   A    
O57   C197  S    
C108  H20   S    
C44   C111  A    
C16   C170  A    
C60   C68   A    
C72   C80   A    
C39   C116  A    
C29   C37   A    
C50   C106  A    
C218  C219  S    
C9    C172  A    
C148  C156  A    
C19   O55   S    
Cu11  O36   S    
C195  H57   S    
Cu12  O35   S    
C194  H52   S    
C30   C126  A    
C70   C78   A    
C6    O9    A    
C117  H21   S    
C207  H85   S    
C24   C32   A    
C222  H120  S    
C141  C149  A    
C200  H70   S    
C46   C102  A    
C15   O51   S    
Cu8   O8    S    
C126  H30   S    
C150  H7    S    
C77   C117  A    
C189  H37   S    
C226  H139  S    
C59   C137  S    
C48   C104  A    
C65   C73   A    
C159  C168  A    
C15   C169  A    
C160  C167  A    
C140  O38   A    
Cu8   O24   S    
C58   C66   A    
O63   C203  S    
C196  H59   S    
Cu7   O15   S    
C110  C208  S    
C105  C113  A    
C219  H113  S    
Cu5   O13   S    
C80   C96   A    
C217  H119  S    
C153  H4    S    
C145  C153  A    
C28   C100  A    
C190  H40   S    
C32   C40   A    
C52   C108  A    
C62   C70   A    
C138  O46   A    
C124  H28   S    
C26   C34   A    
C143  C157  A    
C224  H130  S    
C51   C99   A    
C225  H129  S    
C214  H112  S    
C11   C173  A    
Cu1   O9    S    
C152  H5    S    
C190  H42   S    
C3    O16   A    
C14   C172  A    
C87   C184  S    
C1    O14   A    
C88   C183  S    
C7    O12   A    
Cu10  O47   S    
C129  H33   S    
Cu6   O22   S    
Cu3   O27   S    
C202  H77   S    
C220  C221  S    
C54   C136  S    
Cu6   O14   S    
C221  H123  S    
C3    C76   S    
C198  H65   S    
C107  C115  A    
C210  H92   S    
C227  H138  S    
C26   C98   A    
C12   C175  A    
C41   C110  A    
C150  C152  A    
C51   C59   A    
C43   C112  A    
C144  C158  A    
C222  H122  S    
C209  C210  S    
C90   O30   A    
C47   C55   A    
C200  H72   S    
C61   C69   A    
C48   C56   A    
Cu6   O6    S    
C111  C211  S    
C142  C160  A    
C12   C168  A    
Cu10  O38   S    
C84   C124  A    
C204  H82   S    
C67   O63   S    
Cu5   O29   S    
O56   C196  S    
Cu2   O26   S    
C201  H73   S    
C81   C97   A    
C203  H79   S    
C31   C39   A    
C64   C72   A    
C151  H6    S    
C3    O19   A    
Cu9   O48   S    
C36   C44   A    
C180  C185  A    
C226  C227  S    
C34   C130  A    
C194  H54   S    
C47   C95   A    
C136  O34   A    
C118  C126  A    
C13   C148  A    
O61   C201  S    
C122  C130  A    
C208  H97   S    
