data_mof_unit_65910.cif
_audit_creation_date              2012-12-10T18:29:22-0500
_audit_creation_method            fapswitch 2.2
_symmetry_space_group_name_H-M    P1
_symmetry_Int_Tables_number       1
_space_group_crystal_system       triclinic
_cell_length_a                    35.959381
_cell_length_b                    25.792729
_cell_length_c                    22.125582
_cell_angle_alpha                 90.000287
_cell_angle_beta                  144.347628
_cell_angle_gamma                 90.0
_cell_volume                      11961.1488005

loop_
_atom_site_label
_atom_site_type_symbol
_atom_type_description
_atom_site_fract_x
_atom_site_fract_y
_atom_site_fract_z
_atom_type_partial_charge
C1    C     C_R   0.650290 0.749995 0.000024 0.817488
C2    C     C_R   0.650291 0.250007 0.000027 0.817483
C3    C     C_R   0.150290 0.249995 0.000024 0.817488
C4    C     C_R   0.150291 0.750006 0.000027 0.817483
C5    C     C_3   0.749606 0.550873 0.999522 0.207255
C6    C     C_3   0.749606 0.449128 0.999523 0.207390
C7    C     C_3   0.249606 0.050873 0.999522 0.207256
C8    C     C_3   0.249606 0.949128 0.999523 0.207390
C9    C     C_3   0.498963 0.202735 0.973167 -0.165699
C10   C     C_3   0.499915 0.797540 0.975071 -0.165531
C11   C     C_3   0.000128 0.702420 0.975496 -0.165589
C12   C     C_3   0.000294 0.297638 0.975829 -0.165496
C13   C     C_3   0.940272 0.736814 0.905319 -0.165847
C14   C     C_3   0.940307 0.263376 0.905390 -0.165606
C15   C     C_3   0.439962 0.237981 0.904700 -0.165742
C16   C     C_3   0.440203 0.762999 0.905181 -0.165573
C17   C     C_1   0.889430 0.749993 0.999954 -0.153733
C18   C     C_1   0.889423 0.250013 0.999941 -0.153735
C19   C     C_1   0.389430 0.249993 0.999955 -0.153733
C20   C     C_1   0.389423 0.750012 0.999941 -0.153735
C21   C     C_1   0.610538 0.250006 0.000023 -0.153717
C22   C     C_1   0.610532 0.750000 0.000009 -0.153721
C23   C     C_1   0.110538 0.750006 0.000023 -0.153717
C24   C     C_1   0.110532 0.250000 0.000009 -0.153721
C25   C     C_3   0.022671 0.715604 0.070145 -0.161818
C26   C     C_3   0.022787 0.284275 0.070376 -0.162015
C27   C     C_3   0.521816 0.214753 0.068435 -0.161817
C28   C     C_3   0.522513 0.784554 0.069829 -0.162012
C29   C     C_3   0.963468 0.749999 0.999968 0.207414
C30   C     C_3   0.963454 0.250013 0.999939 0.207394
C31   C     C_3   0.463469 0.249999 0.999968 0.207414
C32   C     C_3   0.463454 0.750013 0.999939 0.207393
C33   C     C_3   0.560001 0.262020 0.095268 -0.165555
C34   C     C_3   0.559732 0.737024 0.094728 -0.165905
C35   C     C_3   0.059692 0.763186 0.094648 -0.165667
C36   C     C_3   0.059627 0.236647 0.094519 -0.165940
C37   C     C_3   0.536495 0.250002 1.000000 0.207371
C38   C     C_3   0.536481 0.750010 0.999971 0.207392
C39   C     C_3   0.036495 0.750002 1.000000 0.207370
C40   C     C_3   0.036481 0.250010 0.999971 0.207393
C41   C     C_3   0.999836 0.797580 0.024471 -0.165773
C42   C     C_3   0.999641 0.202385 0.024081 -0.165829
C43   C     C_3   0.501001 0.297266 0.026801 -0.165877
C44   C     C_3   0.500019 0.702483 0.024838 -0.165867
C45   C     C_R   0.849684 0.749989 0.999965 0.817455
C46   C     C_R   0.849683 0.250012 0.999961 0.817458
C47   C     C_R   0.349684 0.249989 0.999965 0.817455
C48   C     C_R   0.349683 0.750012 0.999961 0.817458
C49   C     C_3   0.478148 0.285247 0.931533 -0.162205
C50   C     C_3   0.477422 0.715469 0.930081 -0.162012
C51   C     C_3   0.977293 0.784396 0.929823 -0.162205
C52   C     C_3   0.977148 0.215748 0.929533 -0.162011
C53   C     C_1   0.922862 0.749996 0.999956 -0.093587
C54   C     C_1   0.922851 0.250013 0.999934 -0.093589
C55   C     C_1   0.422862 0.249996 0.999956 -0.093587
C56   C     C_1   0.422851 0.750013 0.999934 -0.093589
C57   C     C_1   0.577103 0.250004 0.000014 -0.093589
C58   C     C_1   0.577092 0.750005 0.999992 -0.093588
C59   C     C_1   0.077103 0.750004 0.000014 -0.093589
C60   C     C_1   0.077092 0.250005 0.999992 -0.093589
C61   C     C_3   0.490989 0.764427 0.559938 -0.398758
C62   C     C_3   0.501256 0.290516 0.559512 -0.385763
C63   C     C_3   0.990989 0.264427 0.559938 -0.398759
C64   C     C_3   0.001256 0.790516 0.559512 -0.385766
C65   C     C_3   0.431060 0.764431 0.440079 -0.398835
C66   C     C_3   0.441747 0.290514 0.440494 -0.385526
C67   C     C_3   0.931060 0.264431 0.440079 -0.398838
C68   C     C_3   0.941747 0.790514 0.440494 -0.385526
C69   C     C_3   0.541064 0.695968 0.559918 -0.400530
C70   C     C_3   0.568930 0.264406 0.559917 -0.398850
C71   C     C_3   0.041064 0.195968 0.559918 -0.400530
C72   C     C_3   0.068930 0.764406 0.559917 -0.398851
C73   C     C_3   0.558244 0.790542 0.559505 -0.385694
C74   C     C_3   0.518855 0.195943 0.559933 -0.400504
C75   C     C_3   0.058244 0.290542 0.559505 -0.385696
C76   C     C_3   0.018855 0.695943 0.559933 -0.400505
C77   C     C_3   0.551029 0.750239 0.601747 0.207372
C78   C     C_3   0.550710 0.250217 0.601747 0.207425
C79   C     C_3   0.051029 0.250239 0.601747 0.207375
C80   C     C_3   0.050710 0.750217 0.601747 0.207428
C81   C     C_3   0.449280 0.750244 0.398248 0.207316
C82   C     C_3   0.448960 0.250213 0.398248 0.207253
C83   C     C_3   0.949280 0.250244 0.398248 0.207319
C84   C     C_3   0.948960 0.750212 0.398248 0.207256
C85   C     C_3   0.481135 0.695971 0.440058 -0.400258
C86   C     C_3   0.509000 0.264404 0.440057 -0.398738
C87   C     C_3   0.981135 0.195971 0.440058 -0.400257
C88   C     C_3   0.009000 0.764404 0.440057 -0.398739
C89   C     C_R   0.891369 0.750034 0.282816 0.743838
C90   C     C_R   0.891438 0.250067 0.282816 0.743842
C91   C     C_R   0.391369 0.250034 0.282816 0.743838
C92   C     C_R   0.391438 0.750067 0.282816 0.743842
C93   C     C_3   0.498733 0.790545 0.440485 -0.385604
C94   C     C_3   0.458925 0.195940 0.440073 -0.400288
C95   C     C_3   0.998733 0.290545 0.440485 -0.385604
C96   C     C_3   0.958925 0.695940 0.440073 -0.400287
C97   C     C_3   0.815140 0.970036 0.108105 -0.400501
C98   C     C_3   0.815140 0.029967 0.108104 -0.400260
C99   C     C_3   0.315140 0.470036 0.108105 -0.400502
C100  C     C_3   0.315140 0.529967 0.108104 -0.400260
C101  C     C_3   0.696603 0.970035 0.971203 -0.398864
C102  C     C_3   0.696603 0.029965 0.971203 -0.398859
C103  C     C_3   0.196603 0.470035 0.971203 -0.398865
C104  C     C_3   0.196603 0.529965 0.971203 -0.398862
C105  C     C_3   0.737945 0.970245 0.918950 -0.385685
C106  C     C_3   0.737944 0.029755 0.918948 -0.385540
C107  C     C_3   0.237945 0.470245 0.918950 -0.385685
C108  C     C_3   0.237944 0.529755 0.918948 -0.385538
C109  C     C_3   0.749919 0.949124 0.999564 0.207450
C110  C     C_3   0.749919 0.050876 0.999563 0.207316
C111  C     C_3   0.249919 0.449124 0.999564 0.207451
C112  C     C_3   0.249919 0.550876 0.999563 0.207317
C113  C     C_R   0.608620 0.750057 0.717179 0.743997
C114  C     C_R   0.608550 0.250043 0.717179 0.744003
C115  C     C_R   0.108620 0.250057 0.717179 0.743997
C116  C     C_R   0.108550 0.750043 0.717179 0.744003
C117  C     C_R   0.749972 0.891406 0.999915 0.743893
C118  C     C_R   0.749972 0.108594 0.999914 0.743805
C119  C     C_R   0.249972 0.391406 0.999915 0.743893
C120  C     C_R   0.249972 0.608595 0.999914 0.743806
C121  C     C_R   0.749909 0.608584 0.999880 0.743932
C122  C     C_R   0.749909 0.391416 0.999881 0.744019
C123  C     C_R   0.249909 0.108585 0.999880 0.743932
C124  C     C_R   0.249909 0.891416 0.999881 0.744018
C125  C     C_3   0.680972 0.529754 0.918929 -0.385613
C126  C     C_3   0.680972 0.470246 0.918931 -0.385761
C127  C     C_3   0.180972 0.029754 0.918929 -0.385611
C128  C     C_3   0.180973 0.970246 0.918931 -0.385756
C129  C     C_3   0.792934 0.529965 0.108073 -0.400291
C130  C     C_3   0.792935 0.470037 0.108074 -0.400534
C131  C     C_3   0.292934 0.029965 0.108074 -0.400293
C132  C     C_3   0.292935 0.970037 0.108074 -0.400535
C133  C     C_3   0.774544 0.529964 0.971128 -0.398734
C134  C     C_3   0.774544 0.470036 0.971128 -0.398743
C135  C     C_3   0.274544 0.029965 0.971128 -0.398738
C136  C     C_3   0.274544 0.970036 0.971128 -0.398744
H1    H     H_    0.661753 0.543962 0.937445 0.175464
H2    H     H_    0.661755 0.456039 0.937450 0.175465
H3    H     H_    0.161753 0.043962 0.937445 0.175467
H4    H     H_    0.161755 0.956039 0.937450 0.175470
H5    H     H_    0.999193 0.836677 0.044591 0.127893
H6    H     H_    0.998849 0.163250 0.043903 0.127865
H7    H     H_    0.501314 0.336104 0.048835 0.127835
H8    H     H_    0.499539 0.663429 0.045283 0.127846
H9    H     H_    0.609843 0.271896 0.173563 0.128153
H10   H     H_    0.609363 0.726352 0.172604 0.127855
H11   H     H_    0.109278 0.774020 0.172435 0.128089
H12   H     H_    0.109172 0.225666 0.172223 0.127834
H13   H     H_    0.040791 0.687341 0.127795 0.130350
H14   H     H_    0.041014 0.312429 0.128242 0.130217
H15   H     H_    0.539234 0.185790 0.124681 0.130349
H16   H     H_    0.540515 0.812937 0.127244 0.130219
H17   H     H_    0.484295 0.736084 0.588494 0.179416
H18   H     H_    0.522666 0.330027 0.587928 0.172144
H19   H     H_    0.984295 0.236084 0.588494 0.179411
H20   H     H_    0.022666 0.830028 0.587928 0.172144
H21   H     H_    0.497104 0.803381 0.588871 0.149165
H22   H     H_    0.486991 0.281262 0.587936 0.175408
H23   H     H_    0.997104 0.303380 0.588871 0.149167
H24   H     H_    0.986991 0.781263 0.587936 0.175402
H25   H     H_    0.408249 0.803385 0.411160 0.149212
H26   H     H_    0.399065 0.281260 0.412085 0.175408
H27   H     H_    0.908248 0.303385 0.411159 0.149215
H28   H     H_    0.899065 0.781260 0.412085 0.175404
H29   H     H_    0.395811 0.736089 0.411527 0.179445
H30   H     H_    0.434737 0.330024 0.412070 0.172378
H31   H     H_    0.895811 0.236089 0.411527 0.179438
H32   H     H_    0.934738 0.830024 0.412070 0.172379
H33   H     H_    0.535434 0.666170 0.588476 0.176629
H34   H     H_    0.591741 0.303361 0.588839 0.149129
H35   H     H_    0.035434 0.166170 0.588476 0.176629
H36   H     H_    0.091741 0.803361 0.588839 0.149132
H37   H     H_    0.446948 0.666174 0.411500 0.176852
H38   H     H_    0.502885 0.303358 0.411127 0.149245
H39   H     H_    0.946948 0.166174 0.411500 0.176851
H40   H     H_    0.002885 0.803357 0.411127 0.149248
H41   H     H_    0.648662 0.543963 0.839904 0.172352
H42   H     H_    0.648661 0.456035 0.839906 0.172138
H43   H     H_    0.148662 0.043963 0.839904 0.172353
H44   H     H_    0.148661 0.956035 0.839906 0.172139
H45   H     H_    0.565254 0.830051 0.587933 0.172159
H46   H     H_    0.505223 0.185070 0.588867 0.149715
H47   H     H_    0.065254 0.330051 0.587933 0.172159
H48   H     H_    0.005222 0.685071 0.588867 0.149717
H49   H     H_    0.477322 0.830056 0.412071 0.172349
H50   H     H_    0.416366 0.185067 0.411153 0.149736
H51   H     H_    0.977322 0.330056 0.412071 0.172349
H52   H     H_    0.916366 0.685067 0.411153 0.149737
H53   H     H_    0.512998 0.781294 0.412059 0.175405
H54   H     H_    0.464552 0.166144 0.411510 0.176833
H55   H     H_    0.012998 0.281294 0.412059 0.175400
H56   H     H_    0.964552 0.666144 0.411510 0.176832
H57   H     H_    0.583623 0.685095 0.588838 0.149686
H58   H     H_    0.604179 0.236065 0.588468 0.179414
H59   H     H_    0.083623 0.185095 0.588838 0.149688
H60   H     H_    0.104178 0.736065 0.588468 0.179410
H61   H     H_    0.494768 0.685101 0.411125 0.149764
H62   H     H_    0.515694 0.236062 0.411500 0.179444
H63   H     H_    0.994768 0.185101 0.411125 0.149764
H64   H     H_    0.015694 0.736062 0.411500 0.179436
H65   H     H_    0.825032 0.955757 0.167705 0.176655
H66   H     H_    0.825035 0.044247 0.167706 0.176860
H67   H     H_    0.325032 0.455757 0.167705 0.176654
H68   H     H_    0.325035 0.544247 0.167706 0.176859
H69   H     H_    0.854107 0.955573 0.129838 0.149612
H70   H     H_    0.854107 0.044429 0.129836 0.149664
H71   H     H_    0.354107 0.455573 0.129838 0.149611
H72   H     H_    0.354107 0.544429 0.129836 0.149663
H73   H     H_    0.703978 0.955758 0.027897 0.179391
H74   H     H_    0.703979 0.044243 0.027897 0.179415
H75   H     H_    0.203978 0.455758 0.027897 0.179386
H76   H     H_    0.203979 0.544243 0.027897 0.179409
H77   H     H_    0.691232 0.956034 0.839931 0.172166
H78   H     H_    0.691229 0.043963 0.839929 0.172380
H79   H     H_    0.191232 0.456034 0.839931 0.172167
H80   H     H_    0.191229 0.543964 0.839929 0.172381
H81   H     H_    0.775671 0.956038 0.937444 0.175357
H82   H     H_    0.775667 0.043963 0.937439 0.175355
H83   H     H_    0.275670 0.456038 0.937444 0.175365
H84   H     H_    0.275667 0.543963 0.937439 0.175358
H85   H     H_    0.775712 0.544428 0.129827 0.149842
H86   H     H_    0.775714 0.455573 0.129830 0.149792
H87   H     H_    0.275712 0.044428 0.129828 0.149841
H88   H     H_    0.275714 0.955573 0.129830 0.149791
H89   H     H_    0.649297 0.955572 0.893298 0.149083
H90   H     H_    0.649297 0.044428 0.893298 0.149166
H91   H     H_    0.149297 0.455572 0.893298 0.149085
H92   H     H_    0.149297 0.544428 0.893298 0.149169
H93   H     H_    0.823856 0.544242 0.027805 0.179476
H94   H     H_    0.823856 0.455759 0.027804 0.179455
H95   H     H_    0.323856 0.044242 0.027804 0.179470
H96   H     H_    0.323856 0.955759 0.027804 0.179452
H97   H     H_    0.743937 0.544427 0.893216 0.149299
H98   H     H_    0.743937 0.455573 0.893216 0.149215
H99   H     H_    0.243937 0.044427 0.893216 0.149302
H100  H     H_    0.243937 0.955573 0.893216 0.149216
H101  H     H_    0.842637 0.544246 0.167660 0.176825
H102  H     H_    0.842638 0.455759 0.167658 0.176621
H103  H     H_    0.342637 0.044246 0.167660 0.176824
H104  H     H_    0.342638 0.955759 0.167658 0.176620
H105  H     H_    0.890685 0.725980 0.827533 0.127884
H106  H     H_    0.890762 0.274357 0.827687 0.128119
H107  H     H_    0.390121 0.228104 0.826405 0.127941
H108  H     H_    0.390571 0.773671 0.827305 0.128139
H109  H     H_    0.498650 0.163897 0.951133 0.128038
H110  H     H_    0.500396 0.836594 0.954626 0.128132
H111  H     H_    0.000771 0.663323 0.955376 0.128104
H112  H     H_    0.001086 0.336772 0.956006 0.128150
H113  H     H_    0.460730 0.314210 0.875287 0.130092
H114  H     H_    0.459420 0.687086 0.872666 0.130222
H115  H     H_    0.959173 0.812659 0.872172 0.130092
H116  H     H_    0.958920 0.187594 0.871667 0.130222
O1    O     O_3   0.749990 0.749990 0.000000 -0.464182
O2    O     O_3   0.749990 0.250010 0.000000 -0.464183
O3    O     O_3   0.249990 0.249990 0.000000 -0.464182
O4    O     O_3   0.249990 0.750010 0.000000 -0.464183
O5    O     O_R   0.888390 0.719350 0.233690 -0.648455
O6    O     O_R   0.888390 0.280650 0.233690 -0.651212
O7    O     O_R   0.388390 0.219350 0.233690 -0.648453
O8    O     O_R   0.388390 0.780650 0.233690 -0.651212
O9    O     O_R   0.611600 0.719370 0.766300 -0.648517
O10   O     O_R   0.611600 0.280630 0.766300 -0.651267
O11   O     O_R   0.111600 0.219370 0.766300 -0.648517
O12   O     O_R   0.111600 0.780630 0.766300 -0.651269
O13   O     O_R   0.698440 0.780630 0.061300 -0.639058
O14   O     O_R   0.698440 0.219370 0.061300 -0.638864
O15   O     O_R   0.198440 0.280630 0.061300 -0.639058
O16   O     O_R   0.198440 0.719370 0.061300 -0.638864
O17   O     O_R   0.801540 0.780630 0.938710 -0.639272
O18   O     O_R   0.801540 0.219370 0.938710 -0.639080
O19   O     O_R   0.301540 0.280630 0.938710 -0.639272
O20   O     O_R   0.301540 0.719370 0.938710 -0.639080
O21   O     O_R   0.637170 0.719360 0.938750 -0.639217
O22   O     O_R   0.637170 0.280640 0.938750 -0.639406
O23   O     O_R   0.137170 0.219360 0.938750 -0.639217
O24   O     O_R   0.137170 0.780640 0.938750 -0.639406
O25   O     O_R   0.862810 0.719350 0.061240 -0.638985
O26   O     O_R   0.862810 0.280650 0.061240 -0.639179
O27   O     O_R   0.362810 0.219350 0.061240 -0.638985
O28   O     O_R   0.362810 0.780650 0.061240 -0.639179
O29   O     O_R   0.845300 0.780620 0.233710 -0.651191
O30   O     O_R   0.845300 0.219380 0.233710 -0.648435
O31   O     O_R   0.345300 0.280620 0.233710 -0.651191
O32   O     O_R   0.345300 0.719380 0.233710 -0.648433
O33   O     O_R   0.654690 0.780640 0.766300 -0.651219
O34   O     O_R   0.654690 0.219360 0.766300 -0.648467
O35   O     O_R   0.154690 0.280640 0.766300 -0.651221
O36   O     O_R   0.154690 0.719360 0.766300 -0.648467
O37   O     O_R   0.759080 0.866840 0.061290 -0.648455
O38   O     O_R   0.759080 0.133160 0.061290 -0.648405
O39   O     O_R   0.259080 0.366840 0.061290 -0.648456
O40   O     O_R   0.259080 0.633160 0.061290 -0.648407
O41   O     O_R   0.697810 0.633140 0.938720 -0.651230
O42   O     O_R   0.697810 0.366860 0.938720 -0.651275
O43   O     O_R   0.197810 0.133140 0.938720 -0.651229
O44   O     O_R   0.197810 0.866860 0.938720 -0.651273
O45   O     O_R   0.740900 0.866850 0.938740 -0.651250
O46   O     O_R   0.740900 0.133150 0.938740 -0.651207
O47   O     O_R   0.240900 0.366850 0.938740 -0.651248
O48   O     O_R   0.240900 0.633150 0.938740 -0.651205
O49   O     O_R   0.802180 0.633140 0.061250 -0.648440
O50   O     O_R   0.802180 0.366860 0.061250 -0.648487
O51   O     O_R   0.302180 0.133140 0.061250 -0.648442
O52   O     O_R   0.302180 0.866860 0.061250 -0.648488
Zn1   Zn    Zn3+2 0.824550 0.706220 0.087530 0.951550
Zn2   Zn    Zn3+2 0.824550 0.293780 0.087530 0.950481
Zn3   Zn    Zn3+2 0.324550 0.206220 0.087530 0.951550
Zn4   Zn    Zn3+2 0.324550 0.793780 0.087530 0.950480
Zn5   Zn    Zn3+2 0.762980 0.793760 0.087560 0.950586
Zn6   Zn    Zn3+2 0.762980 0.206240 0.087560 0.951655
Zn7   Zn    Zn3+2 0.262980 0.293760 0.087560 0.950585
Zn8   Zn    Zn3+2 0.262980 0.706240 0.087560 0.951655
Zn9   Zn    Zn3+2 0.737010 0.793770 0.912460 0.949515
Zn10  Zn    Zn3+2 0.737010 0.206230 0.912460 0.950583
Zn11  Zn    Zn3+2 0.237010 0.293770 0.912460 0.949515
Zn12  Zn    Zn3+2 0.237010 0.706230 0.912460 0.950583
Zn13  Zn    Zn3+2 0.675440 0.706230 0.912460 0.950515
Zn14  Zn    Zn3+2 0.675440 0.293770 0.912460 0.949450
Zn15  Zn    Zn3+2 0.175440 0.206230 0.912460 0.950516
Zn16  Zn    Zn3+2 0.175440 0.793770 0.912460 0.949451
H117  H     H_    0.600925 0.781288 0.587914 0.175400
H118  H     H_    0.553043 0.166148 0.588489 0.176643
H119  H     H_    0.100925 0.281288 0.587914 0.175393
H120  H     H_    0.053042 0.666149 0.588489 0.176643

loop_
_geom_bond_atom_site_label_1
_geom_bond_atom_site_label_2
_ccdc_geom_bond_type
O28   Zn4   S    
C82   C94   S    
C90   O30   A    
C36   C42   S    
C73   C93   S    
C110  C118  S    
C100  H72   S    
C75   C95   S    
O8    Zn4   S    
C72   H36   S    
C103  H91   S    
C117  O45   A    
C101  H89   S    
C119  O39   A    
C120  O48   A    
C113  O33   A    
C13   C51   S    
C36   H12   S    
C14   C52   S    
C80   C116  S    
C115  O35   A    
C128  H44   S    
O3    Zn3   S    
C72   C88   S    
C77   C113  S    
C47   O27   A    
C104  H92   S    
C48   O28   A    
C25   C29   S    
C27   C31   S    
C28   C32   S    
C7    C123  S    
C112  C120  S    
C4    C23   S    
C118  O46   A    
C76   H120  S    
C82   C91   S    
C99   H71   S    
C86   H38   S    
C33   C43   S    
C12   C40   S    
C94   H54   S    
C22   C58   T    
O40   Zn8   S    
C2    O22   A    
C73   H45   S    
O27   Zn3   S    
O49   Zn1   S    
C69   H57   S    
C89   O5    A    
O16   Zn8   S    
C86   H62   S    
C107  H83   S    
C45   O25   A    
O1    Zn1   S    
O2    Zn6   S    
O13   Zn5   S    
C90   O6    A    
O15   Zn7   S    
C44   C50   S    
O2    Zn10  S    
C129  H101  S    
C122  O50   A    
C43   C49   S    
C84   C88   S    
O29   Zn5   S    
C72   H60   S    
O41   Zn13  S    
O43   Zn15  S    
O50   Zn2   S    
O44   Zn16  S    
C10   C38   S    
C114  O10   A    
C10   C16   S    
C76   C96   S    
C11   C13   S    
O48   Zn12  S    
O34   Zn10  S    
C126  H42   S    
C15   C49   S    
C9    C15   S    
C61   C65   S    
C107  H79   S    
C65   H25   S    
C73   C77   S    
C98   H70   S    
O1    Zn13  S    
C75   C79   S    
C41   C51   S    
C37   C57   S    
C42   C52   S    
C39   C51   S    
C67   C83   S    
C40   C60   S    
C79   C115  S    
C121  O41   A    
C69   C77   S    
C63   H23   S    
C6    C130  S    
C123  O43   A    
C71   C79   S    
C97   C98   S    
C27   C33   S    
C23   C59   T    
C30   C54   S    
C31   C43   S    
C64   C68   S    
O1    Zn9   S    
C17   C45   S    
C19   C47   S    
C11   C25   S    
C2    O14   A    
C97   C109  S    
C111  C119  S    
O35   Zn11  S    
C19   C55   T    
O4    Zn12  S    
C81   C92   S    
C8    C128  S    
C61   C77   S    
C75   H119  S    
C107  C108  S    
C91   O31   A    
C50   H114  S    
C44   H8    S    
C1    C22   S    
C46   O18   A    
C3    C24   S    
O37   Zn5   S    
C106  H78   S    
C15   H107  S    
C62   C66   S    
O39   Zn7   S    
C103  H75   S    
C104  C112  S    
C114  O34   A    
C113  O9    A    
C101  H73   S    
C12   C26   S    
O3    Zn7   S    
C71   H59   S    
O4    Zn8   S    
C99   C111  S    
C5    C133  S    
C69   H33   S    
C52   H116  S    
C33   H9    S    
C10   H110  S    
C68   H32   S    
C26   C30   S    
C71   H35   S    
C104  H76   S    
C16   H108  S    
C69   C85   S    
O7    Zn3   S    
C129  C130  S    
C105  C109  S    
C99   H67   S    
C107  C111  S    
C62   C78   S    
C30   C42   S    
C94   H50   S    
C119  O47   A    
C74   H118  S    
C3    O23   A    
C74   H46   S    
C93   H53   S    
C16   C32   S    
C87   H39   S    
C21   C57   T    
C88   H40   S    
C127  H43   S    
C96   H56   S    
C132  H104  S    
C49   H113  S    
C92   O32   A    
C136  H100  S    
C5    C129  S    
O2    Zn2   S    
C134  H94   S    
C35   C41   S    
C91   O7    A    
C7    C135  S    
C67   H27   S    
O52   Zn4   S    
C48   O20   A    
C5    C125  S    
C6    C122  S    
C131  H87   S    
C7    C127  S    
C124  O44   A    
O5    Zn1   S    
C81   C85   S    
O42   Zn14  S    
C83   C87   S    
C101  C102  S    
C98   C110  S    
C102  H74   S    
C8    C136  S    
C74   C94   S    
C43   H7    S    
C87   H63   S    
C42   H6    S    
O46   Zn10  S    
O25   Zn1   S    
C95   H51   S    
C135  C136  S    
C13   C29   S    
C16   C50   S    
O31   Zn7   S    
O17   Zn9   S    
C101  C109  S    
C65   H29   S    
C102  H90   S    
C66   H26   S    
C103  C111  S    
O2    Zn14  S    
O21   Zn13  S    
C38   C58   S    
C126  H2    S    
O23   Zn15  S    
C62   H22   S    
C122  O42   A    
C9    H109  S    
C7    C131  S    
C20   C56   T    
C117  O37   A    
C68   H28   S    
C28   C34   S    
C135  H95   S    
C64   C80   S    
C78   C114  S    
C18   C46   S    
C3    O15   A    
C68   C84   S    
C76   C80   S    
C130  H86   S    
C6    C126  S    
C97   H65   S    
C8    C124  S    
C125  H1    S    
C82   C86   S    
C33   C37   S    
C108  C112  S    
C109  C117  S    
C35   C39   S    
C61   H21   S    
C37   C49   S    
C65   C81   S    
C26   H14   S    
C70   H58   S    
C39   C59   S    
C64   H24   S    
C2    C21   S    
O9    Zn13  S    
C133  H97   S    
C15   C31   S    
O11   Zn15  S    
C108  H80   S    
C25   C35   S    
C71   C87   S    
C26   C36   S    
C106  H82   S    
C100  C112  S    
C125  C126  S    
C135  H99   S    
C102  C110  S    
C120  O40   A    
C131  C132  S    
C17   C53   T    
C9    C27   S    
C10   C28   S    
C27   H15   S    
C20   C48   S    
C132  H88   S    
O3    Zn11  S    
O4    Zn4   S    
C4    O16   A    
C105  C106  S    
C89   O29   A    
C88   H64   S    
C70   H34   S    
C12   H112  S    
C67   H31   S    
C100  H68   S    
C46   O26   A    
C128  H4    S    
C133  H93   S    
O45   Zn9   S    
C108  H84   S    
C72   C80   S    
C74   C78   S    
C103  C104  S    
C118  O38   A    
C31   C55   S    
C32   C56   S    
C93   H49   S    
O24   Zn16  S    
C70   C78   S    
C96   H52   S    
C75   H47   S    
O32   Zn8   S    
C29   C41   S    
C63   C79   S    
C45   O17   A    
C136  H96   S    
C116  O12   A    
C25   H13   S    
O20   Zn12  S    
C66   C82   S    
C5    C121  S    
C84   C96   S    
O6    Zn2   S    
C13   H105  S    
C131  H103  S    
C8    C132  S    
C85   H37   S    
C51   H115  S    
C1    O21   A    
C95   H55   S    
O26   Zn2   S    
O33   Zn9   S    
C14   H106  S    
C127  H3    S    
C14   C30   S    
O14   Zn6   S    
O30   Zn6   S    
C92   O8    A    
O18   Zn10  S    
C63   C67   S    
C105  H77   S    
C66   H30   S    
O1    Zn5   S    
C4    O24   A    
C36   C40   S    
C34   C44   S    
C129  H85   S    
O22   Zn14  S    
O51   Zn3   S    
C40   C52   S    
C121  O49   A    
C62   H18   S    
C123  O51   A    
C41   H5    S    
C124  O52   A    
C47   O19   A    
C81   C93   S    
C99   C100  S    
C24   C60   T    
C83   C95   S    
C9    C37   S    
C32   C44   S    
C35   H11   S    
C11   C39   S    
C115  O11   A    
O12   Zn16  S    
C12   C14   S    
C28   H16   S    
C125  H41   S    
C84   C89   S    
O36   Zn12  S    
C70   C86   S    
C106  C110  S    
C85   H61   S    
C83   C90   S    
C130  H102  S    
C34   C38   S    
O19   Zn11  S    
C98   H66   S    
C61   H17   S    
O38   Zn6   S    
C38   C50   S    
C73   H117  S    
C64   H20   S    
C105  H81   S    
C34   H10   S    
C11   H111  S    
O10   Zn14  S    
C63   H19   S    
C6    C134  S    
O47   Zn11  S    
C133  C134  S    
C29   C53   S    
C97   H69   S    
C116  O36   A    
C18   C54   T    
C1    O13   A    
O4    Zn16  S    
C76   H48   S    
O3    Zn15  S    
C127  C128  S    
C134  H98   S    
