data_mof_unit_66690.cif
_audit_creation_date              2012-12-10T19:44:28-0500
_audit_creation_method            fapswitch 2.2
_symmetry_space_group_name_H-M    P1
_symmetry_Int_Tables_number       1
_space_group_crystal_system       triclinic
_cell_length_a                    10.920492
_cell_length_b                    12.39936
_cell_length_c                    13.273723
_cell_angle_alpha                 117.409981
_cell_angle_beta                  76.304252
_cell_angle_gamma                 100.737408
_cell_volume                      1543.96867741

loop_
_atom_site_label
_atom_site_type_symbol
_atom_type_description
_atom_site_fract_x
_atom_site_fract_y
_atom_site_fract_z
_atom_type_partial_charge
C1    C     C_R   0.517569 0.854289 0.286535 0.972690
C2    C     C_R   0.681567 0.763899 0.748619 0.449072
C3    C     C_R   0.044125 0.913200 0.516625 -0.145607
C4    C     C_R   0.132209 0.993143 0.483516 -0.171614
C5    C     C_R   0.090174 0.066694 0.444397 -0.009511
C6    C     C_R   0.961915 0.058175 0.441613 0.583068
C7    C     C_R   0.872494 0.991557 0.491522 -0.200089
C8    C     C_R   0.915196 0.919643 0.531775 0.102056
C9    C     C_R   0.151664 0.285853 0.507722 -0.240426
C10   C     C_R   0.186193 0.385549 0.482131 0.512991
C11   C     C_R   0.244667 0.369202 0.371341 0.425014
C12   C     C_R   0.737478 0.998229 0.498792 0.921290
C13   C     C_R   0.268034 0.251389 0.284126 0.221414
C14   C     C_R   0.224250 0.149549 0.307654 0.408849
C15   C     C_R   0.167968 0.166863 0.421052 -0.054377
C16   C     C_R   0.247330 0.317329 0.975598 0.459753
C17   C     C_R   0.431180 0.230267 0.832407 -0.334577
C18   C     C_R   0.659000 0.789267 0.099199 0.483930
C19   C     C_R   0.700257 0.700820 0.989494 0.363648
C20   C     C_R   0.626158 0.590608 0.942853 0.640612
C21   C     C_R   0.515353 0.562219 0.010117 -0.142284
C22   C     C_R   0.466443 0.657498 0.116452 -0.304902
C23   C     C_R   0.477384 0.145619 0.713290 0.947181
C24   C     C_R   0.449302 0.443345 0.973002 -0.080292
C25   C     C_R   0.320814 0.429848 0.024298 -0.293073
C26   C     C_R   0.268338 0.529540 0.122158 0.679314
C27   C     C_R   0.341147 0.639745 0.170012 0.577782
C28   C     C_R   0.507323 0.336487 0.887561 0.468263
C29   C     C_R   0.302025 0.221034 0.876322 0.441517
C30   C     C_R   0.543044 0.769079 0.163779 -0.282258
C31   C     C_R   0.699498 0.334026 0.319127 0.504213
C32   C     C_R   0.333811 0.765602 0.654026 0.490518
C33   C     C_R   0.323018 0.684898 0.704307 0.267388
C34   C     C_R   0.263732 0.998263 0.495288 0.871366
C35   C     C_R   0.396803 0.586944 0.651617 0.731844
C36   C     C_R   0.473567 0.559402 0.542682 -0.198355
C37   C     C_R   0.496840 0.651968 0.503112 -0.058766
C38   C     C_R   0.535160 0.448184 0.476416 -0.177510
C39   C     C_R   0.629253 0.436661 0.378372 -0.311274
C40   C     C_R   0.653173 0.526467 0.339614 0.492346
C41   C     C_R   0.594098 0.634401 0.404819 0.570972
C42   C     C_R   0.504038 0.343661 0.498535 0.736466
C43   C     C_R   0.671198 0.240799 0.352134 0.625111
C44   C     C_R   0.694414 0.890167 0.787296 0.276716
C45   C     C_R   0.773490 0.942087 0.717529 0.245891
C46   C     C_R   0.832675 0.865394 0.606018 -0.174141
C47   C     C_R   0.827700 0.739545 0.573135 0.341180
C48   C     C_R   0.753476 0.688727 0.645493 0.246628
Cu1   Cu    Cu3+1 0.529370 0.098270 0.475420 1.125628
Cu2   Cu    Cu3+1 0.470630 0.901730 0.524580 1.093172
H1    H     H_    0.074955 0.852967 0.541976 0.207478
H2    H     H_    0.101755 0.300442 0.593321 0.206747
N1    N     N_R   0.573890 0.246290 0.438210 -0.360686
N2    N     N_R   0.426890 0.754320 0.561170 -0.233770
O1    O     O_R   0.536940 0.972510 0.318130 -0.561622
O2    O     O_R   0.487330 0.806530 0.359650 -0.478527
O3    O     O_R   0.705160 0.082990 0.479250 -0.486482
O4    O     O_R   0.655550 0.917010 0.520760 -0.557511
O5    O     O_R   0.512670 0.193470 0.640350 -0.499497
O6    O     O_R   0.463060 0.027490 0.681870 -0.568007
O7    O     O_R   0.344450 0.082990 0.479240 -0.587024
O8    O     O_R   0.294840 0.917010 0.520750 -0.510992
F1    F     F_    0.599679 0.714453 0.813057 -0.602822
F2    F     F_    0.270278 0.466936 0.347053 -0.614336
O9    O     O_3   0.314008 0.232255 0.171304 -0.570575
C49   C     C_3   0.442062 0.278132 0.160842 -0.269206
H3    H     H_    0.478850 0.254934 0.068911 0.156849
H4    H     H_    0.499795 0.235325 0.188891 0.144843
H5    H     H_    0.453840 0.379021 0.207971 0.215403
O10   O     O_3   0.219644 0.034986 0.216243 -0.536990
C50   C     C_3   0.328379 0.979855 0.200667 -0.192934
H6    H     H_    0.416780 0.042139 0.203622 0.156683
H7    H     H_    0.339869 0.900928 0.115071 0.162303
H8    H     H_    0.315819 0.944032 0.265069 0.185226
F3    F     F_    0.226354 0.122143 0.817528 -0.666148
F4    F     F_    0.146641 0.520637 0.174924 -0.576932
O11   O     O_3   0.117258 0.308943 0.009785 -0.558890
C51   C     C_3   0.083446 0.235343 0.069156 0.019977
H9    H     H_    0.980456 0.208035 0.073964 0.214114
H10   H     H_    0.101815 0.288543 0.158789 0.233878
H11   H     H_    0.131848 0.149670 0.025297 0.160261
O12   O     O_3   0.637301 0.333805 0.852453 -0.522810
C52   C     C_3   0.694504 0.348808 0.943566 -0.265087
H12   H     H_    0.796682 0.376024 0.924669 0.187221
H13   H     H_    0.656742 0.421391 0.028179 0.165255
H14   H     H_    0.684601 0.261807 0.950510 0.200863
F5    F     F_    0.735393 0.893397 0.144180 -0.551985
F6    F     F_    0.656783 0.518834 0.828249 -0.542061
O13   O     O_3   0.811603 0.725239 0.925360 -0.522264
C53   C     C_3   0.906242 0.663776 0.928076 -0.261334
H15   H     H_    0.883874 0.563117 0.887095 0.173992
H16   H     H_    0.922116 0.695781 0.017698 0.163265
H17   H     H_    0.995760 0.684252 0.877833 0.231145
O14   O     O_3   0.637816 0.962195 0.897986 -0.516109
C54   C     C_3   0.528492 0.002735 0.892730 -0.191958
H18   H     H_    0.473791 0.930719 0.827652 0.143603
H19   H     H_    0.554337 0.082975 0.873998 0.177736
H20   H     H_    0.465664 0.030506 0.977807 0.185417
F7    F     F_    0.283428 0.731816 0.263985 -0.655897
F8    F     F_    0.737724 0.141496 0.294677 -0.507104
O15   O     O_3   0.713368 0.495581 0.225892 -0.595904
C55   C     C_3   0.817026 0.578582 0.214260 -0.028511
H21   H     H_    0.859632 0.632309 0.292874 0.254735
H22   H     H_    0.787850 0.640619 0.186693 0.129637
H23   H     H_    0.891914 0.526182 0.144779 0.204455
F9    F     F_    0.797071 0.324242 0.231106 -0.595861
F10   F     F_    0.398529 0.330747 0.570775 -0.597938
O16   O     O_3   0.265930 0.867475 0.707052 -0.523630
C56   C     C_3   0.134153 0.834817 0.723708 -0.138224
H24   H     H_    0.100482 0.834401 0.808991 0.190378
H25   H     H_    0.104577 0.746617 0.653401 0.172716
H26   H     H_    0.085138 0.906822 0.726786 0.161079
F11   F     F_    0.400916 0.528629 0.715461 -0.529670
O17   O     O_3   0.232008 0.692349 0.798821 -0.563889
C57   C     C_3   0.277408 0.775480 0.900521 -0.269355
H27   H     H_    0.277692 0.870706 0.913879 0.178155
H28   H     H_    0.372459 0.756716 0.902064 0.229757
H29   H     H_    0.211387 0.765719 0.974055 0.200901
F12   F     F_    0.645829 0.721650 0.372480 -0.680265
O18   O     O_3   0.792582 0.067477 0.758337 -0.575520
C58   C     C_3   0.899143 0.108537 0.813646 -0.185639
H30   H     H_    0.986426 0.072078 0.752215 0.175593
H31   H     H_    0.884729 0.085164 0.887420 0.196837
H32   H     H_    0.914893 0.208999 0.847950 0.198076
F13   F     F_    0.896045 0.667014 0.471962 -0.638295
O19   O     O_3   0.742130 0.564676 0.613757 -0.517745
C59   C     C_3   0.858904 0.527438 0.608440 0.030301
H33   H     H_    0.840361 0.440138 0.615960 0.193491
H34   H     H_    0.909128 0.594055 0.680030 0.151852
H35   H     H_    0.920444 0.509537 0.523834 0.221160
F14   F     F_    0.924953 0.122994 0.396251 -0.594666
F15   F     F_    0.154322 0.497398 0.563212 -0.675535

loop_
_geom_bond_atom_site_label_1
_geom_bond_atom_site_label_2
_ccdc_geom_bond_type
C49   H4    S    
O15   C55   S    
C17   C29   A    
C54   H18   S    
O17   C57   S    
C54   H20   S    
C7    C8    A    
C13   O9    S    
O11   C51   S    
C2    F1    S    
C23   O5    A    
C27   F7    S    
C26   C27   A    
Cu2   N2    S    
C31   C43   A    
C43   F8    S    
C36   C37   A    
C1    O2    A    
C38   C42   A    
C56   H25   S    
C42   N1    A    
C5    C6    A    
C51   H10   S    
C49   H5    S    
C57   H27   S    
C34   O8    A    
Cu1   O3    S    
O16   C56   S    
C55   H23   S    
C16   O11   S    
Cu1   Cu2   S    
C58   H32   S    
C40   O15   S    
C43   N1    A    
C47   C48   A    
C2    C44   A    
C57   H28   S    
C26   F4    S    
C35   F11   S    
O10   C50   S    
C18   C30   A    
C42   F10   S    
C12   O4    A    
C49   H3    S    
C21   C22   A    
C37   C41   A    
C14   O10   S    
C7    C12   S    
C9    H2    S    
C32   N2    A    
C47   F13   S    
C8    C46   S    
C23   O6    A    
C4    C34   S    
Cu1   O7    S    
C28   O12   S    
C55   H21   S    
Cu2   O4    S    
C24   C25   A    
C3    C8    A    
C56   H26   S    
C39   C40   A    
C50   H7    S    
C3    H1    S    
C51   H9    S    
C18   C19   A    
C2    C48   A    
C25   C26   A    
C45   C46   A    
C34   O7    A    
Cu2   O2    S    
C35   C36   A    
C59   H34   S    
C19   O13   S    
C53   H16   S    
C52   H12   S    
C57   H29   S    
C33   O17   S    
C17   C23   S    
C41   F12   S    
C55   H22   S    
C58   H30   S    
C5    C15   S    
C12   O3    A    
C45   O18   S    
C40   C41   A    
C52   H13   S    
C11   F2    S    
C22   C27   A    
Cu2   O8    S    
C31   F9    S    
C37   N2    A    
C3    C4    A    
O18   C58   S    
C53   H17   S    
C9    C10   A    
C16   C25   A    
C46   C47   A    
C22   C30   A    
C17   C28   A    
C44   C45   A    
C24   C28   A    
C6    F14   S    
C50   H8    S    
C54   H19   S    
C6    C7    A    
C29   F3    S    
C18   F5    S    
Cu1   O5    S    
Cu2   O6    S    
C32   C33   A    
C19   C20   A    
C36   C38   A    
C16   C29   A    
C59   H35   S    
C50   H6    S    
Cu1   O1    S    
C56   H24   S    
C11   C13   A    
C51   H11   S    
C53   H15   S    
C38   C39   A    
O19   C59   S    
Cu1   N1    S    
C20   F6    S    
C1    C30   S    
C33   C35   A    
C31   C39   A    
C1    O1    A    
O9    C49   S    
C9    C15   A    
O14   C54   S    
C10   F15   S    
C58   H31   S    
C44   O14   S    
C10   C11   A    
C48   O19   S    
C4    C5    A    
C52   H14   S    
C20   C21   A    
O12   C52   S    
C32   O16   S    
C21   C24   A    
C14   C15   A    
O13   C53   S    
C13   C14   A    
C59   H33   S    
