data_mof_unit_54324.cif
_audit_creation_date              2012-12-11T14:50:35-0500
_audit_creation_method            fapswitch 2.2
_symmetry_space_group_name_H-M    P1
_symmetry_Int_Tables_number       1
_space_group_crystal_system       triclinic
_cell_length_a                    10.874804
_cell_length_b                    10.984238
_cell_length_c                    18.65264
_cell_angle_alpha                 90.332032
_cell_angle_beta                  89.912846
_cell_angle_gamma                 59.647232
_cell_volume                      1922.62439224

loop_
_atom_site_label
_atom_site_type_symbol
_atom_type_description
_atom_site_fract_x
_atom_site_fract_y
_atom_site_fract_z
_atom_type_partial_charge
C1    C     C_R   0.285406 0.624685 0.615536 0.533709
C2    C     C_3   0.711649 0.502386 0.808823 -0.215482
C3    C     C_3   0.686670 0.653998 0.818385 0.059375
C4    C     C_3   0.643521 0.614153 0.684933 0.023546
C5    C     C_3   0.745286 0.673873 0.689076 -0.184849
C6    C     C_3   0.705309 0.474314 0.727955 -0.232739
C7    C     C_R   0.795217 0.138665 0.704606 -0.186966
C8    C     C_R   0.811337 0.109512 0.777803 -0.164850
C9    C     C_R   0.723130 0.069373 0.811981 0.007360
C10   C     C_R   0.621490 0.056553 0.772004 -0.104859
C11   C     C_R   0.601906 0.086655 0.699593 0.133687
C12   C     C_R   0.625800 0.586234 0.609054 0.543969
C13   C     C_R   0.683587 0.138720 0.666513 0.040543
C14   C     C_R   0.298386 0.520810 0.734096 -0.092123
C15   C     C_R   0.269575 0.538497 0.807640 0.175026
C16   C     C_R   0.179981 0.674936 0.834829 0.057986
C17   C     C_R   0.125503 0.791137 0.789112 -0.166312
C18   C     C_R   0.149706 0.773710 0.716870 -0.143078
C19   C     C_R   0.237115 0.638864 0.688821 0.001833
C20   C     C_R   0.695284 0.500989 0.262594 -0.132911
C21   C     C_R   0.705988 0.523728 0.190204 -0.114539
C22   C     C_R   0.641298 0.661890 0.163607 0.032107
C23   C     C_R   0.631576 0.221905 0.600908 0.533969
C24   C     C_R   0.555813 0.775570 0.209018 -0.143313
C25   C     C_R   0.549423 0.753463 0.281904 -0.137202
C26   C     C_R   0.621096 0.615876 0.309296 0.025395
C27   C     C_R   0.555293 0.127217 0.294513 -0.129396
C28   C     C_R   0.570812 0.090861 0.223301 -0.141934
C29   C     C_R   0.694611 0.062547 0.187250 0.027945
C30   C     C_R   0.807640 0.061664 0.224654 -0.132649
C31   C     C_R   0.789066 0.105588 0.295719 -0.144460
C32   C     C_R   0.659832 0.144721 0.329708 0.036950
C33   C     C_R   0.267790 0.726110 0.276974 -0.139789
C34   C     C_R   0.291182 0.618408 0.393231 0.555231
C35   C     C_R   0.232856 0.739578 0.205863 -0.126802
C36   C     C_R   0.182326 0.655999 0.175531 0.036626
C37   C     C_R   0.190905 0.542623 0.213505 -0.129428
C38   C     C_R   0.235018 0.523633 0.284414 -0.125100
C39   C     C_R   0.264721 0.621581 0.317256 0.022735
C40   C     C_R   0.729347 0.039893 0.888865 0.568402
C41   C     C_R   0.716930 0.681990 0.891664 0.540018
C42   C     C_R   0.121515 0.704937 0.906874 0.573900
C43   C     C_R   0.704124 0.037795 0.110643 0.571703
C44   C     C_R   0.691830 0.687915 0.095901 0.534814
C45   C     C_R   0.615362 0.589396 0.385585 0.544651
C46   C     C_R   0.099401 0.706357 0.110709 0.542311
C47   C     C_R   0.619961 0.223708 0.396401 0.532477
C48   C     C_3   0.528930 0.756401 0.797885 -0.264486
C49   C     C_3   0.500967 0.721940 0.721825 -0.255885
C50   C     C_3   0.789855 0.672410 0.766625 0.039878
Cr1   Cr    Cr6+3 0.392930 0.397900 0.502230 1.014263
Cr2   Cr    Cr6+3 0.398240 0.708600 0.501260 0.985986
Cr3   Cr    Cr6+3 0.708800 0.393470 0.496460 1.004082
Cr4   Cr    Cr6+3 0.937620 0.938540 0.007640 1.014387
Cr5   Cr    Cr6+3 0.625150 0.937450 0.994520 1.033149
Cr6   Cr    Cr6+3 0.937990 0.625080 0.001190 1.072166
H1    H     H_    0.502986 0.866940 0.799961 0.125330
H2    H     H_    0.814442 0.398502 0.708169 0.171611
H3    H     H_    0.840418 0.614608 0.653956 0.193171
H4    H     H_    0.861659 0.173498 0.679412 0.132306
H5    H     H_    0.887964 0.124223 0.807849 0.133898
H6    H     H_    0.550595 0.029950 0.798547 0.138229
H7    H     H_    0.370788 0.416552 0.712672 0.160498
H8    H     H_    0.060256 0.896817 0.809253 0.140916
H9    H     H_    0.456079 0.747113 0.836619 0.133282
H10   H     H_    0.103693 0.866772 0.683505 0.153693
H11   H     H_    0.748456 0.394011 0.282562 0.123211
H12   H     H_    0.771703 0.433839 0.155868 0.136850
H13   H     H_    0.501929 0.881879 0.189001 0.115994
H14   H     H_    0.489624 0.844107 0.316728 0.126736
H15   H     H_    0.454905 0.153810 0.319771 0.130989
H16   H     H_    0.482200 0.093231 0.195774 0.122680
H17   H     H_    0.906733 0.035308 0.198052 0.143653
H18   H     H_    0.871668 0.115844 0.322569 0.126034
H19   H     H_    0.289751 0.802552 0.301343 0.128788
H20   H     H_    0.434999 0.673313 0.726822 0.122832
H21   H     H_    0.232179 0.825133 0.176878 0.136732
H22   H     H_    0.155083 0.475350 0.190275 0.133279
H23   H     H_    0.236650 0.438722 0.314411 0.137876
H24   H     H_    0.439746 0.820836 0.691218 0.139427
H25   H     H_    0.788192 0.772409 0.778524 0.115996
H26   H     H_    0.690964 0.783667 0.669841 0.110180
H27   H     H_    0.815549 0.420468 0.830940 0.184305
H28   H     H_    0.628048 0.492337 0.838219 0.131906
H29   H     H_    0.637340 0.426414 0.720176 0.106181
O1    O     O_R   0.507430 0.255570 0.581420 -0.493950
O2    O     O_R   0.524460 0.695920 0.424060 -0.515433
O3    O     O_R   0.736530 0.504260 0.414810 -0.491832
O4    O     O_R   0.691460 0.277160 0.422180 -0.521382
O5    O     O_3   0.499990 0.499990 0.499980 -0.318868
O6    O     O_R   0.089490 0.825610 0.930610 -0.547969
O7    O     O_R   0.818370 0.054540 0.929880 -0.491103
O8    O     O_R   0.605870 0.077310 0.915530 -0.458208
O9    O     O_R   0.646440 0.806700 0.917570 -0.537597
O10   O     O_R   0.837200 0.593290 0.915250 -0.465651
O11   O     O_R   0.065330 0.635370 0.931590 -0.430045
O12   O     O_R   0.280190 0.527390 0.578910 -0.467080
O13   O     O_R   0.068300 0.828790 0.091860 -0.545047
O14   O     O_R   0.798730 0.057480 0.079370 -0.496397
O15   O     O_R   0.584680 0.080480 0.076790 -0.498536
O16   O     O_R   0.626790 0.809640 0.067050 -0.525814
O17   O     O_R   0.816010 0.596460 0.076500 -0.517982
O18   O     O_R   0.045680 0.638310 0.081070 -0.498093
O19   O     O_3   0.833590 0.833690 0.001120 -0.303772
O20   O     O_R   0.260310 0.739740 0.584580 -0.522792
O21   O     O_R   0.532250 0.695150 0.573830 -0.523949
O22   O     O_R   0.744930 0.503430 0.576380 -0.503249
O23   O     O_R   0.699250 0.276390 0.571950 -0.527655
O24   O     O_R   0.499020 0.256400 0.419850 -0.543878
O25   O     O_R   0.272400 0.528160 0.429140 -0.489843
O26   O     O_R   0.251910 0.740570 0.423020 -0.511946
Br1   Br    Br    0.988431 0.520370 0.774961 -0.520002
N1    N     N_2   0.486450 0.082871 0.664610 -0.498657
H30   H     H_    0.412615 0.077119 0.697049 0.249465
C51   C     C_3   0.512822 0.008517 0.596594 -0.256578
H31   H     H_    0.624686 0.963960 0.577886 0.147161
H32   H     H_    0.438788 0.080586 0.555378 0.177688
H33   H     H_    0.488949 0.923224 0.601632 0.146492
Br2   Br    Br    0.352233 0.376915 0.868346 -0.465107

loop_
_geom_bond_atom_site_label_1
_geom_bond_atom_site_label_2
_ccdc_geom_bond_type
Cr1   O12   S    
Cr6   O10   S    
C6    H2    S    
C20   H11   S    
Cr2   O5    S    
C35   C36   A    
C40   O8    A    
Cr5   O8    S    
C7    C8    A    
C2    C6    S    
C29   C30   A    
C6    H29   S    
C42   O11   A    
Cr4   O19   S    
C28   C29   A    
C45   O2    A    
C43   O14   A    
C42   O6    A    
Cr1   O5    S    
C30   C31   A    
C38   H23   S    
C14   H7    S    
C15   C16   A    
C3    C48   S    
C13   C23   S    
C18   C19   A    
C41   O10   A    
C26   C45   S    
C2    H28   S    
C33   H19   S    
C22   C44   S    
C41   O9    A    
C8    C9    A    
C51   H32   S    
C23   O1    A    
Cr5   O15   S    
C36   C46   S    
C48   H9    S    
C4    C12   S    
C9    C10   A    
C8    H5    S    
C46   O13   A    
Cr2   O21   S    
Cr1   O24   S    
C21   C22   A    
C29   C43   S    
C34   O26   A    
C47   O4    A    
C2    H27   S    
C28   H16   S    
Cr5   O9    S    
Cr1   O1    S    
C3    C50   S    
C24   H13   S    
C1    C19   S    
C5    H3    S    
C34   C39   S    
C48   H1    S    
C45   O3    A    
C43   O15   A    
Cr6   O19   S    
C4    C6    S    
C1    O12   A    
C30   H17   S    
C44   O17   A    
C16   C17   A    
C31   H18   S    
Cr2   O26   S    
C25   C26   A    
C47   O24   A    
Cr5   O19   S    
C35   H21   S    
C9    C40   S    
C40   O7    A    
Cr4   O7    S    
C37   C38   A    
Cr3   O22   S    
C31   C32   A    
C51   H33   S    
C50   Br1   S    
C17   C18   A    
C49   H20   S    
C5    C50   S    
C33   C39   A    
C24   C25   A    
C48   C49   S    
Cr2   O20   S    
Cr1   O25   S    
C21   H12   S    
Cr3   O4    S    
C34   O25   A    
C32   C47   S    
C22   C24   A    
Cr4   O14   S    
C10   H6    S    
C16   C42   S    
C7    H4    S    
Cr3   O5    S    
C27   H15   S    
N1    H30   S    
C46   O18   A    
Cr6   O11   S    
C3    C41   S    
C27   C32   A    
C14   C19   A    
Cr2   O2    S    
Cr6   O18   S    
C4    C5    S    
C12   O22   A    
C44   O16   A    
C18   H10   S    
C37   H22   S    
Cr5   O16   S    
C49   H24   S    
C4    C49   S    
C2    C3    S    
Cr6   O17   S    
Cr4   O6    S    
C17   H8    S    
C12   O21   A    
C5    H26   S    
C11   C13   A    
Cr3   O23   S    
C38   C39   A    
C20   C26   A    
C23   O23   A    
C33   C35   A    
C15   Br2   S    
Cr3   O3    S    
C11   N1    S    
C10   C11   A    
C7    C13   A    
C20   C21   A    
C36   C37   A    
C27   C28   A    
C14   C15   A    
Cr4   O13   S    
C25   H14   S    
C51   H31   S    
C50   H25   S    
C1    O20   A    
N1    C51   S    
