data_mof_unit_55126.cif
_audit_creation_date              2012-10-26T18:47:54-0400
_audit_creation_method            fapswitch 2.2
_symmetry_space_group_name_H-M    P1
_symmetry_Int_Tables_number       1
_space_group_crystal_system       triclinic
_cell_length_a                    15.860879
_cell_length_b                    8.730727
_cell_length_c                    7.442294
_cell_angle_alpha                 102.968859
_cell_angle_beta                  93.967742
_cell_angle_gamma                 92.28072
_cell_volume                      1000.26774004

loop_
_atom_site_label
_atom_site_type_symbol
_atom_type_description
_atom_site_fract_x
_atom_site_fract_y
_atom_site_fract_z
_atom_type_partial_charge
C1    C     C_R   0.499205 0.200115 0.454046 0.547025
C2    C     C_2   0.519130 0.966674 0.573570 -0.063147
C3    C     C_R   0.340356 0.499926 0.502745 0.554313
C4    C     C_R   0.506535 0.799849 0.546528 0.533681
C5    C     C_R   0.659654 0.500089 0.497294 0.548387
C6    C     C_3   0.050159 0.433951 0.671063 -0.057884
C7    C     C_3   0.042638 0.401678 0.321118 -0.211067
C8    C     C_3   0.944889 0.398304 0.317006 -0.213068
C9    C     C_1   0.749056 0.499810 0.492245 -0.017426
C10   C     C_3   0.083085 0.501833 0.509216 0.044205
C11   C     C_1   0.558338 0.052462 0.752666 0.235755
C12   C     C_3   0.951759 0.433721 0.663235 -0.187734
C13   C     C_2   0.081958 0.273493 0.676292 0.202909
C14   C     C_1   0.092511 0.784249 0.694263 0.208905
C15   C     C_3   0.916896 0.500893 0.498682 0.027147
C16   C     C_3   0.954920 0.671373 0.523623 -0.213142
C17   C     C_3   0.053180 0.672918 0.526889 -0.099860
C18   C     C_1   0.824622 0.500088 0.492907 -0.070435
C19   C     C_1   0.175546 0.501273 0.510078 -0.065191
C20   C     C_1   0.251005 0.500719 0.508396 -0.015039
C21   C     C_2   0.497308 0.032779 0.432271 -0.156027
Cu1   Cu    Cu3+1 0.509300 0.517380 0.684380 0.992330
Cu2   Cu    Cu3+1 0.490700 0.482620 0.315620 0.992217
H1    H     H_    0.922547 0.313287 0.650442 0.164977
H2    H     H_    0.919297 0.274689 0.298438 0.152040
H3    H     H_    0.919052 0.442365 0.196299 0.115539
H4    H     H_    0.072953 0.717527 0.406400 0.129448
H5    H     H_    0.933962 0.746299 0.652861 0.137005
H6    H     H_    0.134712 0.264679 0.773723 0.121179
H7    H     H_    0.075344 0.513490 0.804313 0.084630
H8    H     H_    0.932545 0.506789 0.795231 0.094642
H9    H     H_    0.929795 0.721963 0.407398 0.126574
H10   H     H_    0.473264 0.961690 0.297692 0.134558
H11   H     H_    0.435088 0.376921 0.948550 0.244678
H12   H     H_    0.564953 0.623006 0.051431 0.241105
H13   H     H_    0.063493 0.452414 0.205800 0.099157
H14   H     H_    0.064105 0.279601 0.295218 0.183312
N1    N     N_2   0.476670 0.456430 0.038530 -0.242227
N2    N     N_2   0.523330 0.543570 0.961470 -0.248103
N3    N     N_1   0.589569 0.119933 0.895131 -0.268783
N4    N     N_1   0.123293 0.871431 0.825231 -0.286937
O1    O     O_R   0.506050 0.286130 0.619770 -0.496173
O2    O     O_R   0.490330 0.256780 0.308370 -0.483264
O3    O     O_R   0.387300 0.514690 0.655770 -0.501955
O4    O     O_R   0.371580 0.485340 0.344370 -0.495660
O5    O     O_R   0.509670 0.743220 0.691630 -0.494273
O6    O     O_R   0.493950 0.713870 0.380230 -0.517396
O7    O     O_R   0.628420 0.514660 0.655630 -0.495085
O8    O     O_R   0.612700 0.485310 0.344230 -0.495239
O9    O     O_2   0.050942 0.153974 0.569951 -0.520605

loop_
_geom_bond_atom_site_label_1
_geom_bond_atom_site_label_2
_ccdc_geom_bond_type
C6    C10   S    
C15   C18   S    
C2    C4    S    
C16   H5    S    
Cu2   O4    S    
C21   H10   S    
C7    C10   S    
Cu2   N1    S    
C8    H3    S    
C7    H13   S    
C12   H1    S    
H12   N2    S    
C19   C20   T    
C12   C15   S    
C10   C19   S    
C2    C21   D    
C7    H14   S    
C7    C8    S    
C4    O5    A    
C6    C13   S    
C1    C21   S    
C8    H2    S    
C14   C17   S    
C5    O8    A    
C5    C9    S    
Cu1   O1    S    
C9    C18   T    
C14   N4    T    
C2    C11   S    
C13   H6    S    
Cu1   O5    S    
C1    O2    A    
Cu1   O7    S    
C8    C15   S    
C12   H8    S    
C6    C12   S    
C11   N3    T    
C5    O7    A    
C3    O3    A    
Cu2   O8    S    
C16   H9    S    
Cu1   N2    S    
C10   C17   S    
C15   C16   S    
C17   H4    S    
C1    O1    A    
C3    C20   S    
Cu2   O2    S    
Cu2   O6    S    
Cu1   Cu2   S    
C6    H7    S    
H11   N1    S    
C3    O4    A    
Cu1   O3    S    
C13   O9    D    
C16   C17   S    
C4    O6    A    
N1    N2    D    
