data_mof_unit_6966.cif
_audit_creation_date              2012-12-10T19:22:00-0500
_audit_creation_method            fapswitch 2.2
_symmetry_space_group_name_H-M    P1
_symmetry_Int_Tables_number       1
_space_group_crystal_system       triclinic
_cell_length_a                    8.832158
_cell_length_b                    17.711869
_cell_length_c                    16.516634
_cell_angle_alpha                 90.788385
_cell_angle_beta                  98.675706
_cell_angle_gamma                 91.537243
_cell_volume                      2552.86616801

loop_
_atom_site_label
_atom_site_type_symbol
_atom_type_description
_atom_site_fract_x
_atom_site_fract_y
_atom_site_fract_z
_atom_type_partial_charge
C1    C     C_R   0.499974 0.355333 0.499617 0.815313
C2    C     C_R   0.500026 0.644667 0.500383 0.815322
C3    C     C_1   0.499974 0.966150 0.500277 -0.041627
C4    C     C_1   0.500025 0.033850 0.499724 -0.041627
C5    C     C_R   0.566594 0.554358 0.838185 -0.282152
C6    C     C_R   0.433396 0.445645 0.161814 -0.282170
C7    C     C_R   0.572103 0.556011 0.753517 0.184798
C8    C     C_R   0.427892 0.443991 0.246483 0.184811
C9    C     C_R   0.420561 0.443222 0.733487 0.026536
C10   C     C_R   0.579440 0.556777 0.266512 0.026531
C11   C     C_R   0.413344 0.439117 0.819137 -0.109211
C12   C     C_R   0.586649 0.560886 0.180862 -0.109220
C13   C     C_R   0.490039 0.496214 0.872723 0.017937
C14   C     C_R   0.509949 0.503790 0.127276 0.017944
C15   C     C_1   0.496103 0.498248 0.962620 0.112043
C16   C     C_1   0.503885 0.501753 0.037379 0.112050
C17   C     C_R   0.203762 0.500339 0.479092 0.855671
C18   C     C_R   0.796238 0.499661 0.520908 0.855670
C19   C     C_2   0.038938 0.491994 0.468255 -0.294654
C20   C     C_2   0.961062 0.508008 0.531744 -0.294661
C21   C     C_R   0.463400 0.846664 0.568565 -0.144611
C22   C     C_R   0.536607 0.153336 0.431437 -0.144613
C23   C     C_R   0.463199 0.767913 0.568659 -0.157742
C24   C     C_R   0.536808 0.232087 0.431343 -0.157745
C25   C     C_R   0.500068 0.727580 0.500816 -0.039863
C26   C     C_R   0.499932 0.272420 0.499184 -0.039868
C27   C     C_R   0.536084 0.767180 0.432710 -0.166331
C28   C     C_R   0.463908 0.232820 0.567288 -0.166332
C29   C     C_R   0.536227 0.845839 0.432758 -0.133766
C30   C     C_R   0.463765 0.154161 0.567240 -0.133762
C31   C     C_R   0.500019 0.885504 0.500640 0.130848
C32   C     C_R   0.499981 0.114496 0.499360 0.130845
Cu1   Cu    Cu3+1 0.499990 0.499980 0.580420 1.019940
Cu2   Cu    Cu3+1 0.500010 0.500020 0.419580 1.019940
H1    H     H_    0.565019 0.737442 0.379633 0.166960
H2    H     H_    0.434968 0.262558 0.620364 0.166975
H3    H     H_    0.625050 0.598758 0.877979 0.193701
H4    H     H_    0.374938 0.401246 0.122021 0.193679
N1    N     N_R   0.499960 0.499970 0.701210 -0.215724
N2    N     N_R   0.500040 0.500030 0.298790 -0.215729
O1    O     O_R   0.499990 0.391240 0.567930 -0.604261
O2    O     O_R   0.500010 0.608760 0.432070 -0.604264
O3    O     O_R   0.500000 0.391270 0.432120 -0.571719
O4    O     O_R   0.500000 0.608730 0.567880 -0.571716
O5    O     O_R   0.274830 0.499990 0.552240 -0.587157
O6    O     O_R   0.725170 0.500010 0.447760 -0.587155
O7    O     O_R   0.274840 0.500020 0.416420 -0.520647
O8    O     O_R   0.725160 0.499980 0.583580 -0.520642
C33   C     C_2   0.967379 0.455045 0.389694 0.963716
O9    O     O_2   0.901820 0.393348 0.390067 -0.583527
O10   O     O_R   0.977600 0.490678 0.315638 -0.722411
H5    H     H_    0.924283 0.460341 0.266511 0.336527
C34   C     C_2   0.032621 0.544958 0.610306 0.963699
O11   O     O_2   0.098187 0.606653 0.609930 -0.583520
O12   O     O_R   0.022393 0.509327 0.684363 -0.722428
H6    H     H_    0.075710 0.539664 0.733489 0.336531
H7    H     H_    0.434551 0.877197 0.621189 0.148982
H8    H     H_    0.565462 0.122803 0.378814 0.148981
H9    H     H_    0.432418 0.738643 0.621183 0.194204
H10   H     H_    0.567596 0.261357 0.378820 0.194207
H11   H     H_    0.564559 0.875694 0.379952 0.147551
H12   H     H_    0.435427 0.124306 0.620045 0.147557
C35   C     C_2   0.655687 0.621560 0.725503 0.856409
O13   O     O_2   0.756313 0.612826 0.683536 -0.561300
O14   O     O_R   0.626556 0.694065 0.752795 -0.785094
H13   H     H_    0.692975 0.734547 0.731523 0.336617
C36   C     C_2   0.344311 0.378441 0.274497 0.856419
O15   O     O_2   0.243677 0.387176 0.316459 -0.561306
O16   O     O_R   0.373452 0.305936 0.247212 -0.785098
H14   H     H_    0.307033 0.265454 0.268484 0.336616
H15   H     H_    0.360647 0.400749 0.692073 0.170579
H16   H     H_    0.639354 0.599250 0.307928 0.170596
C37   C     C_2   0.324855 0.375290 0.849450 0.859662
O17   O     O_2   0.272414 0.323774 0.802535 -0.594482
O18   O     O_R   0.299726 0.373606 0.930992 -0.767574
H17   H     H_    0.237895 0.327256 0.943350 0.345864
C38   C     C_2   0.675135 0.624715 0.150549 0.859652
O19   O     O_2   0.727729 0.676187 0.197490 -0.594459
O20   O     O_R   0.700080 0.626456 0.068979 -0.767584
H18   H     H_    0.761925 0.672802 0.056625 0.345868

loop_
_geom_bond_atom_site_label_1
_geom_bond_atom_site_label_2
_ccdc_geom_bond_type
O12   H6    S    
C35   O14   S    
C5    H3    S    
C27   C29   A    
Cu1   O5    S    
C37   O17   D    
C19   C20   D    
Cu2   O2    S    
C34   O11   D    
C23   H9    S    
C21   C31   A    
Cu1   N1    S    
C22   C32   A    
Cu2   N2    S    
C24   C26   A    
C30   H12   S    
C15   C16   T    
C9    N1    A    
C18   C20   S    
C10   N2    A    
C1    O3    A    
C2    O4    A    
C33   O10   S    
C6    H4    S    
Cu2   O6    S    
C5    C13   A    
C38   O20   S    
C37   O18   S    
C18   O6    A    
C34   O12   S    
C21   C23   A    
C29   H11   S    
O10   H5    S    
C17   O7    A    
C11   C37   S    
C5    C7    A    
C20   C34   S    
C6    C8    A    
C27   H1    S    
C38   O19   D    
C36   O15   D    
C36   O16   S    
O18   H17   S    
C21   H7    S    
C6    C14   A    
C19   C33   S    
C24   H10   S    
C12   C38   S    
Cu1   Cu2   S    
C3    C31   S    
C9    C11   A    
C7    C35   S    
C4    C32   S    
C10   C12   A    
C1    O1    A    
C12   C14   A    
O14   H13   S    
C13   C15   S    
C1    C26   S    
C14   C16   S    
C3    C4    T    
Cu1   O4    S    
Cu2   O3    S    
C9    H15   S    
C17   O5    A    
C35   O13   D    
C18   O8    A    
C22   H8    S    
C25   C27   A    
C26   C28   A    
Cu1   O1    S    
C28   C30   A    
C29   C31   A    
C30   C32   A    
C11   C13   A    
C2    O2    A    
C17   C19   S    
C2    C25   S    
C22   C24   A    
C23   C25   A    
O16   H14   S    
O20   H18   S    
C28   H2    S    
C8    C36   S    
C33   O9    D    
Cu1   O8    S    
C7    N1    A    
Cu2   O7    S    
C8    N2    A    
C10   H16   S    
