data_mof_unit_54534.cif
_audit_creation_date              2013-03-05T15:45:36-0500
_audit_creation_method            fapswitch 2.2
_symmetry_space_group_name_H-M    P1
_symmetry_Int_Tables_number       1
_space_group_crystal_system       triclinic
_cell_length_a                    8.414281
_cell_length_b                    14.572362
_cell_length_c                    19.199939
_cell_angle_alpha                 93.257566
_cell_angle_beta                  94.431066
_cell_angle_gamma                 91.093821
_cell_volume                      2342.73732607

loop_
_atom_site_label
_atom_site_type_symbol
_atom_site_description
_atom_site_fract_x
_atom_site_fract_y
_atom_site_fract_z
_atom_type_partial_charge
P1    P     P_3+3 0.937730 0.712710 0.546710 0.559873
O1    O     O_2   0.108370 0.727470 0.525290 -0.325108
O2    O     O_3   0.865330 0.611210 0.531230 -0.366613
O3    O     O_3   0.346360 0.671710 0.401620 -0.328557
O4    O     O_2   0.260279 0.831692 0.461393 -0.356881
O5    O     O_3   0.932139 0.746974 0.636449 -0.542192
O6    O     O_3   0.290867 0.839926 0.329621 -0.485179
C1    C     C_3   0.417432 0.928197 0.245845 0.051462
H1    H     H_    0.464977 0.980122 0.287058 0.105495
P2    P     P_3+3 0.357970 0.428340 0.344000 0.489355
P3    P     P_3+3 0.895330 0.610125 0.277056 0.522148
O7    O     O_2   0.182890 0.456530 0.332150 -0.363132
O8    O     O_3   0.933230 0.625130 0.368420 -0.306780
O9    O     O_2   0.991800 0.526382 0.254499 -0.408008
O10   O     O_3   0.363522 0.311425 0.318444 -0.559011
O11   O     O_3   0.984551 0.696100 0.231732 -0.527056
C2    C     C_3   0.935970 0.786904 0.247221 0.819560
H2    H     H_    0.043205 0.830203 0.242964 0.129117
C3    C     C_3   0.809958 0.816811 0.191533 -0.990660
H3    H     H_    0.828708 0.778391 0.141145 0.288001
C4    C     C_3   0.798547 0.342858 0.327832 0.217927
H4    H     H_    0.669735 0.351898 0.332748 0.094712
H5    H     H_    0.865315 0.406456 0.348209 0.086868
C5    C     C_3   0.828975 0.327342 0.250731 0.123813
H6    H     H_    0.771017 0.381305 0.219964 0.088020
H7    H     H_    0.959435 0.330659 0.245052 0.129907
Ba1   Ba    Ba6+2 0.150350 0.545800 0.464500 1.639702
C6    C     C_3   0.001291 0.692808 0.687971 0.354605
H8    H     H_    0.013610 0.622495 0.669154 0.065220
C7    C     C_3   0.890972 0.691570 0.747803 -0.910135
H9    H     H_    0.888374 0.760561 0.775597 0.264450
H10   H     H_    0.931203 0.640635 0.785940 0.239072
H11   H     H_    0.767990 0.672795 0.727781 0.283635
C8    C     C_3   0.280585 0.255537 0.360267 0.214327
H12   H     H_    0.163665 0.284970 0.371768 0.094039
H13   H     H_    0.358090 0.245913 0.408811 0.122019
C9    C     C_3   0.252216 0.162940 0.318547 -0.578685
H14   H     H_    0.163121 0.171203 0.273121 0.246055
H15   H     H_    0.366484 0.140831 0.297253 0.220665
P4    P     P_3+3 0.872570 0.287280 0.453240 0.479163
O12   O     O_2   0.701930 0.272470 0.474700 -0.342362
O13   O     O_3   0.944970 0.388780 0.468720 -0.406695
O14   O     O_3   0.463940 0.328280 0.598320 -0.270571
O15   O     O_3   0.847862 0.265071 0.362486 -0.531785
P5    P     P_3+3 0.897546 0.385142 0.724332 0.547900
O16   O     O_3   0.372010 0.546630 0.581240 -0.390708
O17   O     O_3   0.877070 0.374860 0.631520 -0.363099
O18   O     O_2   0.755719 0.439857 0.749871 -0.311127
O19   O     O_3   0.863461 0.275798 0.753606 -0.461024
Ba2   Ba    Ba6+2 0.659830 0.454190 0.535450 1.650360
P6    P     P_3+3 0.369826 0.792833 0.406660 0.539162
C10   C     C_3   0.400278 0.833860 0.277374 0.154255
H16   H     H_    0.522042 0.815071 0.297771 -0.033402
H17   H     H_    0.502025 0.923689 0.204433 0.131521
O20   O     O_3   0.438280 0.453360 0.418700 -0.398938
C11   C     C_3   0.530336 0.731454 0.623779 0.395273
H18   H     H_    0.628166 0.690714 0.603069 0.100707
H19   H     H_    0.432569 0.736570 0.581915 0.120373
C12   C     C_3   0.595743 0.826552 0.646692 -0.835660
H20   H     H_    0.691715 0.823700 0.689186 0.289607
H21   H     H_    0.643917 0.858304 0.601904 0.213416
H22   H     H_    0.500382 0.868620 0.667349 0.299290
P7    P     P_3+3 0.450284 0.575865 0.668214 0.448102
O21   O     O_2   0.627420 0.543410 0.667830 -0.352507
O22   O     O_3   0.471151 0.694214 0.682296 -0.579199
H23   H     H_    0.688810 0.798245 0.205563 0.193669
C13   C     C_3   0.991202 0.220823 0.736438 0.314903
H24   H     H_    0.004167 0.217620 0.679056 0.100188
H25   H     H_    0.103209 0.247911 0.765470 0.114890
C14   C     C_3   0.959987 0.123834 0.757987 -0.724803
H26   H     H_    0.849833 0.094351 0.728856 0.259158
H27   H     H_    0.062072 0.080038 0.746224 0.274784
H28   H     H_    0.945497 0.124693 0.815015 0.270273
P8    P     P_3+3 0.442903 0.207692 0.593214 0.547624
C15   C     C_3   0.431353 0.187206 0.726507 0.769932
H29   H     H_    0.304191 0.170950 0.710112 -0.067161
O23   O     O_2   0.559973 0.170838 0.541340 -0.344299
O24   O     O_3   0.528338 0.166873 0.671504 -0.577133
C16   C     C_3   0.483108 0.128190 0.787225 0.034342
H30   H     H_    0.605561 0.148905 0.808957 0.168066
H31   H     H_    0.484503 0.054731 0.768704 0.145484
C17   C     C_R   0.981155 0.947864 0.551168 0.442943
C18   C     C_R   0.822575 0.804463 0.500592 0.330227
C19   C     C_R   0.678140 0.773705 0.465847 -0.434765
C20   C     C_R   0.572292 0.834748 0.435915 0.238568
C21   C     C_R   0.616592 0.927202 0.432177 -0.179584
C22   C     C_R   0.760695 0.962630 0.465451 0.076761
C23   C     C_R   0.860394 0.903265 0.504974 -0.101507
H32   H     H_    0.642649 0.701920 0.465882 0.135546
C24   C     C_R   0.939767 0.097036 0.498728 0.000705
C25   C     C_R   0.037391 0.038077 0.539904 -0.092282
C26   C     C_R   0.992036 0.191121 0.492981 0.205002
C27   C     C_R   0.151155 0.212907 0.513439 -0.426434
C28   C     C_R   0.242937 0.160317 0.558208 0.223574
C29   C     C_R   0.187967 0.071918 0.571141 -0.244200
C30   C     C_R   0.799073 0.058010 0.463386 -0.038903
H33   H     H_    0.536039 0.972264 0.405358 0.166193
H34   H     H_    0.204290 0.274776 0.496328 0.123363
H35   H     H_    0.721869 0.100403 0.431663 0.174296
C31   C     C_R   0.595419 0.542843 0.298944 -0.464094
C32   C     C_R   0.455701 0.492812 0.278471 0.383771
C33   C     C_R   0.403948 0.481092 0.206670 -0.236744
C34   C     C_R   0.497771 0.514689 0.154842 0.102559
C35   C     C_R   0.646745 0.555995 0.177526 -0.182535
C36   C     C_R   0.691827 0.573053 0.248734 0.205211
C37   C     C_R   0.465956 0.581812 0.034808 0.505916
C38   C     C_R   0.414309 0.575932 0.963703 -0.210625
C39   C     C_R   0.338859 0.496464 0.931977 0.039452
C40   C     C_R   0.316237 0.421344 0.972962 -0.140730
C41   C     C_R   0.369753 0.424169 0.044622 -0.162305
C42   C     C_R   0.444527 0.506143 0.077561 -0.085780
C43   C     C_R   0.137482 0.449783 0.831545 -0.211075
C44   C     C_R   0.090335 0.441983 0.759876 0.122082
C45   C     C_R   0.336452 0.521420 0.735045 0.237588
C46   C     C_R   0.383853 0.529060 0.806882 -0.080068
C47   C     C_R   0.286117 0.491691 0.855813 0.123276
C48   C     C_R   0.192104 0.476466 0.712930 -0.440134
H36   H     H_    0.496967 0.562692 0.824229 0.124794
H37   H     H_    0.430808 0.635188 0.933131 0.180384
H38   H     H_    0.290973 0.445993 0.191732 0.143442
H39   H     H_    0.262170 0.358415 0.948116 0.191756
H40   H     H_    0.059317 0.422690 0.868026 0.152698
H41   H     H_    0.730638 0.572818 0.139941 0.182448
H42   H     H_    0.637074 0.550449 0.353769 0.153730
C49   C     C_2   0.342179 0.759261 0.223534 1.028136
O25   O     O_2   0.325049 0.773726 0.161043 -0.548468
O26   O     O_R   0.302646 0.673194 0.246799 -0.742227
H43   H     H_    0.250545 0.631335 0.207451 0.345452
Cl1   Cl    Cl    0.753965 0.217344 0.216001 -0.452315
C50   C     C_2   0.156974 0.736537 0.717577 1.057356
O27   O     O_2   0.217489 0.798828 0.688064 -0.526890
O28   O     O_R   0.227679 0.709646 0.781318 -0.836718
H44   H     H_    0.328613 0.746457 0.797389 0.354626
Cl2   Cl    Cl    0.234500 0.969280 0.207137 -0.506810
C51   C     C_2   0.197606 0.088768 0.362477 1.072800
O29   O     O_2   0.068582 0.049425 0.347543 -0.537317
O30   O     O_R   0.298774 0.061810 0.418306 -0.819909
H45   H     H_    0.256184 0.005403 0.439757 0.353828
Cl3   Cl    Cl    0.456204 0.305241 0.756135 -0.580341
Cl4   Cl    Cl    0.350726 0.139267 0.855322 -0.544306
C52   C     C_2   0.306551 0.011299 0.603050 1.096224
O31   O     O_2   0.299491 0.990035 0.663277 -0.609583
O32   O     O_R   0.440374 0.991307 0.567047 -0.786656
H46   H     H_    0.540680 0.993566 0.599676 0.325818
Cl5   Cl    Cl    0.971741 0.930933 0.640305 -0.629613
Cl6   Cl    Cl    0.552143 0.688870 0.066242 -0.626540
Cl7   Cl    Cl    0.885339 0.813871 0.334479 -0.675963
C53   C     C_2   0.351822 0.338138 0.081437 1.071344
O33   O     O_2   0.233655 0.288261 0.067347 -0.572998
O34   O     O_R   0.471152 0.312358 0.130626 -0.757777
H47   H     H_    0.442209 0.253309 0.152671 0.377589
C54   C     C_2   0.154566 0.453721 0.639645 1.109893
O35   O     O_2   0.085360 0.507064 0.602016 -0.595496
O36   O     O_R   0.175811 0.364995 0.615485 -0.809096
H48   H     H_    0.108088 0.356238 0.570719 0.323743
C55   C     C_2   0.824075 0.918861 0.180411 1.281291
O37   O     O_2   0.862848 0.943656 0.124182 -0.464645
O38   O     O_R   0.795127 0.985987 0.232702 -0.684288
H49   H     H_    0.754861 0.959837 0.276010 0.301322

loop_
_geom_bond_atom_site_label_1
_geom_bond_atom_site_label_2
_geom_bond_distance
_ccdc_geom_bond_type
P2    Ba1   3.409263 S    
C22   C23   1.425445 A    
P7    O22   1.733885 S    
C32   C33   1.413118 A    
C8    C9    1.534496 S    
Ba2   O21   2.823122 S    
P8    C28   1.867501 S    
C3    H3    1.113413 S    
P6    C20   1.834191 S    
C45   C46   1.403459 A    
C51   O29   1.224332 D    
C35   H41   1.082284 S    
C20   C21   1.398268 A    
C39   C40   1.402445 A    
C31   C36   1.391635 A    
C27   C28   1.384731 A    
C49   O25   1.227991 D    
C55   O37   1.223428 D    
C2    Cl7   1.784521 S    
C5    H7    1.111898 S    
O6    C10   1.413282 S    
P1    O1    1.538332 D    
P2    O10   1.748480 S    
C52   O32   1.393026 S    
C7    H9    1.112510 S    
P3    O9    1.538760 D    
Ba1   O20   2.962537 S    
C37   C38   1.397725 A    
C46   C47   1.419818 A    
C30   H35   1.082385 S    
C11   H18   1.109313 S    
C3    H23   1.106823 S    
C34   C42   1.513948 S    
C8    H12   1.113324 S    
C21   H33   1.075762 S    
C41   C42   1.430646 A    
C35   C36   1.397340 A    
P7    C45   1.862780 S    
C5    Cl1   1.785286 S    
O5    C6    1.399112 S    
C1    H1    1.109151 S    
P8    O23   1.536789 D    
P3    C36   1.818529 S    
C38   C39   1.395402 A    
C9    C51   1.495117 S    
C14   H26   1.110803 S    
C1    C10   1.541956 S    
O10   C8    1.390798 S    
C6    C50   1.502360 S    
Ba1   Ba2   4.640919 S    
O14   P8    1.759191 S    
P4    O13   1.592118 S    
C18   C23   1.464896 A    
C12   H20   1.105815 S    
C4    H4    1.104925 S    
C3    C55   1.518047 S    
C28   C29   1.402267 A    
C41   C53   1.484611 S    
C38   H37   1.084008 S    
C43   C44   1.399976 A    
O2    Ba2   2.850224 S    
O17   Ba2   2.807495 S    
C37   C42   1.428395 A    
P5    O17   1.774501 S    
C12   H21   1.099912 S    
O7    Ba1   2.823102 S    
C1    Cl2   1.785777 S    
P1    O5    1.770823 S    
C19   C20   1.387112 A    
C5    H6    1.108189 S    
C1    H17   1.107456 S    
C16   H31   1.109211 S    
C21   C22   1.401363 A    
O28   H44   1.013684 S    
O3    P6    1.768640 S    
C17   C25   1.422407 A    
C13   H24   1.113916 S    
P1    O2    1.592117 S    
C50   O28   1.398623 S    
C15   H29   1.108990 S    
C43   H40   1.082478 S    
C9    H14   1.118721 S    
C4    O15   1.400294 S    
P3    O11   1.754843 S    
C24   C26   1.444649 A    
C18   C19   1.393868 A    
P5    O19   1.745369 S    
C46   H36   1.082429 S    
C22   C30   1.424357 A    
C14   H28   1.110417 S    
C2    H2    1.102030 S    
P4    Ba2   3.431934 S    
P4    C26   1.900783 S    
P2    O20   1.558209 S    
O36   H48   0.994402 S    
O1    Ba1   2.871205 S    
P2    O7    1.540354 D    
O13   Ba2   2.954647 S    
C44   C48   1.397335 A    
Ba1   O16   2.802277 S    
P4    O12   1.538698 D    
C54   O36   1.368332 S    
C29   C52   1.466952 S    
C4    H5    1.110207 S    
O38   H49   1.012932 S    
C19   H32   1.082419 S    
O26   H43   1.010571 S    
O12   Ba2   2.871752 S    
C43   C47   1.415151 A    
O3    Ba1   2.826322 S    
C33   H38   1.081734 S    
C10   H16   1.113080 S    
C49   O26   1.397810 S    
P5    O18   1.543578 D    
C13   H25   1.111028 S    
C51   O30   1.395559 S    
C6    H8    1.076535 S    
C12   H22   1.103302 S    
O19   C13   1.401193 S    
C7    H11   1.099652 S    
P2    C32   1.845696 S    
O4    P6    1.541616 D    
C53   O34   1.396229 S    
P7    O21   1.572722 D    
C14   H27   1.109358 S    
C10   C49   1.504410 S    
O14   Ba2   2.825613 S    
C24   C30   1.411266 A    
C11   O22   1.396509 S    
P1    C18   1.887344 S    
O30   H45   1.011809 S    
O16   Ba2   2.961688 S    
Ba2   O20   2.801860 S    
C37   Cl6   1.762452 S    
C11   C12   1.510320 S    
O16   P7    1.772664 S    
C13   C14   1.518824 S    
C39   C47   1.492386 S    
O2    Ba1   2.953789 S    
C50   O27   1.220539 D    
O6    P6    1.755325 S    
C6    C7    1.532362 S    
C9    H15   1.119365 S    
C15   Cl3   1.783971 S    
C40   C41   1.412287 A    
C7    H10   1.111174 S    
P3    O8    1.758963 S    
Ba1   O13   2.849623 S    
C40   H39   1.084578 S    
C24   C25   1.428900 A    
O11   C2    1.414641 S    
C17   C23   1.418285 A    
C55   O38   1.399799 S    
C26   C27   1.391395 A    
C2    C3    1.533895 S    
C11   H19   1.111457 S    
C16   Cl4   1.784428 S    
C48   C54   1.436592 S    
C8    H13   1.112707 S    
C53   O33   1.224171 D    
C33   C34   1.419549 A    
C15   O24   1.405652 S    
C45   C48   1.393903 A    
C25   C29   1.425925 A    
C16   H30   1.110960 S    
P5    C44   1.869942 S    
P4    O15   1.749728 S    
C17   Cl5   1.750529 S    
P8    O24   1.755292 S    
C4    C5    1.526680 S    
C34   C35   1.407242 A    
P1    Ba1   3.431360 S    
O34   H47   1.013996 S    
O8    Ba1   2.807001 S    
C31   C32   1.389773 A    
C54   O35   1.217125 D    
C31   H42   1.082314 S    
C52   O31   1.219575 D    
C15   C16   1.529083 S    
C27   H34   1.077796 S    
O32   H46   1.010340 S    
