data_mof_unit_18005.cif
_audit_creation_date              2012-12-10T20:36:36-0500
_audit_creation_method            fapswitch 2.2
_symmetry_space_group_name_H-M    P1
_symmetry_Int_Tables_number       1
_space_group_crystal_system       triclinic
_cell_length_a                    10.523898
_cell_length_b                    10.73534
_cell_length_c                    9.922734
_cell_angle_alpha                 89.695965
_cell_angle_beta                  89.156128
_cell_angle_gamma                 91.596915
_cell_volume                      1120.47163701

loop_
_atom_site_label
_atom_site_type_symbol
_atom_type_description
_atom_site_fract_x
_atom_site_fract_y
_atom_site_fract_z
_atom_type_partial_charge
C1    C     C_R   0.498897 0.259996 0.500008 0.929441
C2    C     C_3   0.957619 0.419014 0.408782 -0.006735
C3    C     C_3   0.037871 0.385770 0.531215 -0.181070
C4    C     C_3   0.121917 0.501144 0.499533 -0.021601
C5    C     C_R   0.521205 0.062157 0.618027 0.033276
C6    C     C_R   0.509139 0.128048 0.498182 -0.004366
C7    C     C_R   0.519389 0.065274 0.374936 -0.178866
C8    C     C_R   0.524202 0.936720 0.374785 -0.213672
C9    C     C_R   0.523802 0.871533 0.497698 -0.095465
C10   C     C_R   0.538007 0.936507 0.617820 0.085925
C11   C     C_3   0.472924 0.918146 0.752216 -0.246757
C12   C     C_R   0.257300 0.500469 0.500363 0.895711
C13   C     C_3   0.444454 0.056695 0.747005 -0.319748
C14   C     C_R   0.393990 0.464644 0.073816 0.142493
C15   C     C_R   0.605717 0.536648 0.068648 0.240489
C16   C     C_R   0.604950 0.535953 0.925263 -0.144663
C17   C     C_R   0.390811 0.472223 0.931321 0.119833
C18   C     C_3   0.314115 0.353717 0.922156 -0.285926
C19   C     C_3   0.338471 0.335341 0.072423 -0.103660
C20   C     C_R   0.505337 0.739721 0.499476 0.869343
C21   C     C_R   0.742350 0.500730 0.499397 0.902152
C22   C     C_3   0.041874 0.583600 0.590571 -0.134859
C23   C     C_3   0.955265 0.468284 0.622282 -0.094819
C24   C     C_3   0.877185 0.500523 0.498717 -0.059853
C25   C     C_3   0.961202 0.615621 0.466788 -0.200001
C26   C     C_3   0.043768 0.533387 0.374996 -0.193455
H1    H     H_    0.912090 0.440465 0.720889 0.164268
H2    H     H_    0.488686 0.113932 0.827802 0.154721
H3    H     H_    0.690500 0.562391 0.869190 0.176490
H4    H     H_    0.360515 0.285061 0.856849 0.142212
H5    H     H_    0.412538 0.265646 0.092670 0.162559
H6    H     H_    0.080846 0.650644 0.665199 0.170638
H7    H     H_    0.925376 0.709126 0.441916 0.153076
H8    H     H_    0.082765 0.561349 0.274455 0.176976
H9    H     H_    0.073154 0.292324 0.555701 0.183451
H10   H     H_    0.516014 0.113856 0.279141 0.171050
H11   H     H_    0.519077 0.888856 0.279489 0.186194
H12   H     H_    0.387945 0.854031 0.750088 0.150043
N1    N     N_R   0.499140 0.499140 0.142800 -0.132543
N2    N     N_R   0.499140 0.499180 0.857150 -0.135478
O1    O     O_R   0.500020 0.316790 0.614690 -0.632644
O2    O     O_R   0.500000 0.316760 0.385350 -0.620849
O3    O     O_R   0.313960 0.499990 0.614650 -0.619145
O4    O     O_R   0.313940 0.499950 0.385310 -0.612031
O5    O     O_R   0.500000 0.683240 0.614650 -0.609116
O6    O     O_R   0.499980 0.683210 0.385310 -0.626403
O7    O     O_R   0.686060 0.500050 0.614690 -0.631513
O8    O     O_R   0.686040 0.500010 0.385350 -0.586951
Zn1   Zn    Zn3+2 0.500010 0.500020 0.653130 0.974782
Zn2   Zn    Zn3+2 0.499990 0.499980 0.346870 0.989876
C27   C     C_2   0.563441 0.887497 0.862784 0.969107
O9    O     O_2   0.663836 0.837420 0.836892 -0.639450
O10   O     O_R   0.531978 0.918298 0.995412 -0.816851
H13   H     H_    0.604024 0.903310 0.059329 0.321151
C28   C     C_2   0.303219 0.073646 0.732519 0.957856
O11   O     O_2   0.233716 0.057770 0.831275 -0.590395
O12   O     O_R   0.251072 0.101342 0.607511 -0.821858
H14   H     H_    0.154801 0.100360 0.610974 0.349774
N3    N     N_2   0.721993 0.564323 0.133772 -0.254139
H15   H     H_    0.797964 0.521111 0.089141 0.245893
C29   C     C_3   0.749742 0.695405 0.152554 -0.739634
H16   H     H_    0.765850 0.742333 0.053650 0.253899
H17   H     H_    0.837498 0.707248 0.212224 0.231164
H18   H     H_    0.671043 0.739314 0.208157 0.249807
C30   C     C_2   0.177937 0.378497 0.887005 1.005166
O13   O     O_2   0.114812 0.298938 0.828688 -0.617900
O14   O     O_R   0.123184 0.490581 0.925311 -0.823156
H19   H     H_    0.028944 0.492390 0.906867 0.331654
N4    N     N_2   0.228093 0.319338 0.160689 -0.275651
H20   H     H_    0.159752 0.385698 0.154493 0.276444
C31   C     C_3   0.180270 0.192370 0.176012 -0.604181
H21   H     H_    0.128348 0.163076 0.084355 0.281515
H22   H     H_    0.114962 0.185588 0.264570 0.226404
H23   H     H_    0.259286 0.128072 0.194130 0.234752
C32   C     C_2   0.901601 0.325786 0.312958 0.893553
O15   O     O_2   0.919158 0.338436 0.191679 -0.658225
O16   O     O_R   0.827850 0.225416 0.363545 -0.813867
H24   H     H_    0.794105 0.169251 0.289646 0.344360

loop_
_geom_bond_atom_site_label_1
_geom_bond_atom_site_label_2
_ccdc_geom_bond_type
C28   O11   D    
C29   H18   S    
C7    H10   S    
C3    C23   S    
C19   H5    S    
C7    C8    A    
O7    Zn1   S    
O16   H24   S    
C18   C30   S    
C22   H6    S    
C12   O3    A    
C5    C6    A    
N2    Zn1   S    
N4    C31   S    
C18   C19   S    
C29   H17   S    
C14   N1    A    
C26   H8    S    
C8    C9    A    
C30   O14   S    
C22   C25   S    
C23   C24   S    
C13   H2    S    
C18   H4    S    
C23   H1    S    
C4    C12   S    
C9    C10   A    
C5    C13   S    
C20   O5    A    
C21   O8    A    
O8    Zn2   S    
N3    H15   S    
C14   C17   A    
N4    H20   S    
O1    Zn1   S    
N3    C29   S    
O14   H19   S    
C24   C25   S    
C31   H22   S    
O3    Zn1   S    
C16   H3    S    
O10   H13   S    
C27   O9    D    
C27   O10   S    
C17   N2    A    
C11   H12   S    
C32   O15   D    
C4    C22   S    
C9    C20   S    
O5    Zn1   S    
C3    H9    S    
C17   C18   S    
C2    C26   S    
C32   O16   S    
C15   N1    A    
O2    Zn2   S    
C1    O1    A    
C16   N2    A    
C28   O12   S    
C2    C24   S    
C19   N4    S    
C8    H11   S    
C3    C4    S    
O4    Zn2   S    
C15   N3    S    
C14   C19   S    
C31   H23   S    
C4    C26   S    
C6    C7    A    
O6    Zn2   S    
C2    C3    S    
C25   C26   S    
C5    C10   A    
C12   O4    A    
C11   C13   S    
O12   H14   S    
C29   H16   S    
C11   C27   S    
C10   C11   S    
C1    O2    A    
C31   H21   S    
N1    Zn2   S    
C30   O13   D    
C21   C24   S    
C1    C6    S    
C22   C23   S    
C13   C28   S    
C20   O6    A    
C2    C32   S    
C15   C16   A    
C25   H7    S    
C21   O7    A    
