data_mof_unit_38498.cif
_audit_creation_date              2013-03-05T16:08:30-0500
_audit_creation_method            fapswitch 2.2
_symmetry_space_group_name_H-M    P1
_symmetry_Int_Tables_number       1
_space_group_crystal_system       triclinic
_cell_length_a                    14.801865
_cell_length_b                    6.914528
_cell_length_c                    13.522035
_cell_angle_alpha                 89.99991
_cell_angle_beta                  99.833716
_cell_angle_gamma                 90.000029
_cell_volume                      1363.61839907

loop_
_atom_site_label
_atom_site_type_symbol
_atom_site_description
_atom_site_fract_x
_atom_site_fract_y
_atom_site_fract_z
_atom_type_partial_charge
O1    O     O_R   0.586930 0.505770 0.416350 -0.596388
O2    O     O_R   0.413070 0.005770 0.583650 -0.596388
O3    O     O_R   0.397900 0.173100 0.389630 -0.588614
O4    O     O_R   0.602100 0.673100 0.610370 -0.588614
C1    C     C_R   0.364168 0.345431 0.362883 0.975886
C2    C     C_R   0.635832 0.845431 0.637117 0.975885
O5    O     O_R   0.585280 0.175870 0.404330 -0.602017
O6    O     O_R   0.414720 0.675870 0.595670 -0.602018
O7    O     O_R   0.601790 0.008380 0.598460 -0.583940
O8    O     O_R   0.398210 0.508380 0.401540 -0.583941
C3    C     C_R   0.614799 0.344752 0.383088 0.992688
C4    C     C_R   0.385201 0.844752 0.616912 0.992684
O9    O     O_3   0.505200 0.340120 0.563670 -0.272038
O10   O     O_3   0.494800 0.840120 0.436330 -0.272037
V1    V     V_3+5 0.499040 0.064180 0.488190 1.198151
V2    V     V_3+5 0.500960 0.564180 0.511810 1.198151
C5    C     C_R   0.239924 0.974539 0.664696 0.146425
C6    C     C_R   0.760074 0.474546 0.335301 0.146454
C7    C     C_R   0.315974 0.851794 0.683759 -0.229752
C8    C     C_R   0.684026 0.351796 0.316241 -0.229771
C9    C     C_R   0.321515 0.725579 0.766236 -0.255931
C10   C     C_R   0.678485 0.225578 0.233765 -0.255923
H1    H     H_    0.378212 0.624744 0.781878 0.170178
H2    H     H_    0.621788 0.124743 0.218124 0.170182
C11   C     C_R   0.258214 0.736827 0.833575 0.391710
C12   C     C_R   0.741785 0.236827 0.166425 0.391717
C13   C     C_R   0.184920 0.873357 0.816717 -0.401507
C14   C     C_R   0.815079 0.373356 0.183283 -0.401515
C15   C     C_R   0.175697 0.983474 0.728492 0.115629
C16   C     C_R   0.824302 0.483479 0.271506 0.115654
C17   C     C_3   0.162427 0.196474 0.711272 0.185979
C18   C     C_3   0.837565 0.696483 0.288717 0.185945
C19   C     C_3   0.232767 0.185297 0.641052 -0.575003
C20   C     C_3   0.767223 0.685309 0.358935 -0.574994
H3    H     H_    0.184501 0.285541 0.779221 0.130866
H4    H     H_    0.815490 0.785532 0.220762 0.130869
H5    H     H_    0.204063 0.211955 0.560721 0.230311
H6    H     H_    0.795926 0.711983 0.439266 0.230305
C21   C     C_1   0.783626 0.877085 0.782660 -0.171939
C22   C     C_1   0.216374 0.377085 0.217340 -0.171944
C23   C     C_1   0.716325 0.860137 0.716669 -0.194904
C24   C     C_1   0.283675 0.360137 0.283330 -0.194901
O11   O     O_R   0.101720 0.231700 0.098560 -0.602005
O12   O     O_R   0.898280 0.731700 0.901440 -0.602011
O13   O     O_R   0.914700 0.558980 0.095690 -0.592823
O14   O     O_R   0.085300 0.058980 0.904310 -0.592802
C25   C     C_R   0.883462 0.389470 0.115087 1.013008
C26   C     C_R   0.116538 0.889471 0.884913 1.013026
O15   O     O_R   0.102080 0.561590 0.110390 -0.578310
O16   O     O_R   0.897920 0.061590 0.889610 -0.578296
O17   O     O_R   0.086950 0.728940 0.916330 -0.561434
O18   O     O_R   0.913050 0.228940 0.083670 -0.561419
C27   C     C_R   0.135932 0.391857 0.137744 1.067967
C28   C     C_R   0.864068 0.891857 0.862255 1.067987
O19   O     O_3   0.994770 0.394510 0.936380 -0.263699
O20   O     O_3   0.005230 0.894510 0.063620 -0.263705
V3    V     V_3+5 0.000970 0.670520 0.011800 1.288054
V4    V     V_3+5 0.999030 0.170520 0.988200 1.288072
N1    N     N_R   0.276498 0.625560 0.924268 0.220212
O21   O     O_R   0.355557 0.642638 0.982728 -0.383081
O22   O     O_R   0.224055 0.480423 0.937525 -0.430254
N2    N     N_R   0.723497 0.125566 0.075730 0.220207
O23   O     O_R   0.644427 0.142614 0.017286 -0.383082
O24   O     O_R   0.775946 0.980448 0.062462 -0.430255
N3    N     N_R   0.070798 0.246657 0.658310 0.268506
O25   O     O_R   0.054989 0.421175 0.623759 -0.341786
O26   O     O_R   0.002823 0.125593 0.653612 -0.367929
N4    N     N_R   0.929192 0.746687 0.341679 0.268502
O27   O     O_R   0.945004 0.921239 0.376180 -0.341819
O28   O     O_R   0.997156 0.625581 0.346454 -0.367873
H7    H     H_    0.297112 0.265145 0.669855 0.197727
H8    H     H_    0.702877 0.765146 0.330127 0.197725

loop_
_geom_bond_atom_site_label_1
_geom_bond_atom_site_label_2
_geom_bond_distance
_ccdc_geom_bond_type
C13   C26   1.485301 S    
C1    C24   1.466043 S    
C14   C25   1.485303 S    
C13   C15   1.402128 A    
C5    C15   1.389924 A    
O1    C3    1.294379 A    
O2    C4    1.294380 A    
C2    O7    1.306386 A    
C21   C23   1.224213 T    
O5    C3    1.296115 A    
O13   V3    2.001751 S    
O16   C28   1.304593 A    
C18   H4    1.108015 S    
C7    C9    1.407454 A    
C21   C28   1.465900 S    
O15   V3    1.975579 S    
O20   V3    1.696650 S    
C4    C7    1.478429 S    
N2    O24   1.299752 A    
O11   V4    1.985321 S    
O11   C27   1.293018 A    
C26   O17   1.291480 A    
N4    O27   1.300707 A    
N3    O26   1.302030 A    
C2    C23   1.466043 S    
C17   C19   1.526193 S    
C6    C16   1.389930 A    
O10   V2    2.158397 S    
C18   N4    1.463226 S    
C22   C24   1.224213 T    
N1    O21   1.300871 A    
O6    V2    2.001553 S    
O14   V4    2.001754 S    
C5    C19   1.491835 S    
O13   C25   1.302989 A    
C9    H1    1.083750 S    
O14   C26   1.302987 A    
C3    C8    1.478427 S    
N1    O22   1.299754 A    
O16   V4    1.975581 S    
O4    C2    1.318447 A    
C19   H5    1.112110 S    
C18   C20   1.526186 S    
O4    V2    1.975618 S    
N2    O23   1.300876 A    
O9    V1    2.158400 S    
O12   V3    1.985321 S    
O6    C4    1.296113 A    
O1    V2    2.002420 S    
O2    V1    2.002419 S    
C6    C20   1.491839 S    
O18   V4    2.002645 S    
O17   V3    2.002645 S    
C8    C10   1.407450 A    
N3    O25   1.300703 A    
O19   V3    2.158427 S    
C10   H2    1.083750 S    
O9    V2    1.697319 S    
C20   H8    1.112162 S    
O3    V1    1.975618 S    
C17   N3    1.463222 S    
C9    C11   1.415819 A    
C20   H6    1.112108 S    
O3    C1    1.318446 A    
C25   O18   1.291480 A    
C11   C13   1.426770 A    
C12   C14   1.426772 A    
C14   C16   1.402129 A    
C12   N2    1.433775 S    
C1    O8    1.306387 A    
C15   C17   1.498762 S    
O8    V2    1.977539 S    
C16   C18   1.498765 S    
O15   C27   1.304593 A    
C17   H3    1.108015 S    
O5    V1    2.001550 S    
C5    C7    1.398152 A    
O20   V4    2.158424 S    
C6    C8    1.398153 A    
O7    V1    1.977537 S    
C19   H7    1.112164 S    
O12   C28   1.293017 A    
N4    O28   1.302016 A    
C22   C27   1.465900 S    
C10   C12   1.415817 A    
O19   V4    1.696648 S    
O10   V1    1.697321 S    
C11   N1    1.433777 S    
