data_mof_unit_53994.cif
_audit_creation_date              2012-12-10T18:04:44-0500
_audit_creation_method            fapswitch 2.2
_symmetry_space_group_name_H-M    P1
_symmetry_Int_Tables_number       1
_space_group_crystal_system       triclinic
_cell_length_a                    19.334186
_cell_length_b                    17.842319
_cell_length_c                    12.5781
_cell_angle_alpha                 91.390966
_cell_angle_beta                  100.297408
_cell_angle_gamma                 90.033065
_cell_volume                      4267.82638359

loop_
_atom_site_label
_atom_site_type_symbol
_atom_type_description
_atom_site_fract_x
_atom_site_fract_y
_atom_site_fract_z
_atom_type_partial_charge
Br1   Br    Br    0.340078 0.909879 0.181310 -0.526070
Br2   Br    Br    0.476735 0.226870 0.303566 -0.396857
Br3   Br    Br    0.926408 0.296030 0.229032 -0.446954
Br4   Br    Br    0.959423 0.721784 0.274923 -0.363649
Br5   Br    Br    0.656938 0.192806 0.254165 -0.370258
Br6   Br    Br    0.845741 0.902478 0.569586 -0.409680
Br7   Br    Br    0.109955 0.833452 0.357925 -0.432192
Br8   Br    Br    0.337927 0.406506 0.559185 -0.431115
C1    C     C_R   0.410921 0.102305 0.444101 0.863445
C2    C     C_R   0.695990 0.693317 0.580840 0.168089
C3    C     C_R   0.272236 0.734804 0.639689 0.144654
C4    C     C_R   0.196858 0.193724 0.581041 0.158506
C5    C     C_R   0.343019 0.753633 0.654742 -0.200171
C6    C     C_R   0.220685 0.122583 0.558630 -0.231026
C7    C     C_R   0.724704 0.384938 0.595860 -0.232384
C8    C     C_R   0.718553 0.622125 0.555689 -0.245894
C9    C     C_R   0.370233 0.781786 0.569578 -0.124408
C10   C     C_R   0.273128 0.114848 0.497118 -0.140185
C11   C     C_R   0.775045 0.397794 0.531758 -0.150148
C12   C     C_R   0.409120 0.899134 0.440874 0.846840
C13   C     C_R   0.771107 0.614759 0.494538 -0.153302
C14   C     C_R   0.675048 0.191362 0.511008 -0.168896
C15   C     C_R   0.694405 0.825967 0.547727 -0.135217
C16   C     C_R   0.166105 0.702699 0.514329 -0.156564
C17   C     C_R   0.191575 0.324765 0.539557 -0.150926
C18   C     C_R   0.613853 0.227390 0.655670 -0.128956
C19   C     C_R   0.602580 0.770046 0.627311 -0.119201
C20   C     C_R   0.181040 0.665306 0.699366 -0.094320
C21   C     C_R   0.104772 0.270904 0.631601 -0.100820
C22   C     C_R   0.350841 0.847931 0.399069 -0.167161
C23   C     C_R   0.910207 0.601852 0.443494 0.848737
C24   C     C_R   0.368851 0.169480 0.419567 -0.164632
C25   C     C_R   0.847984 0.348707 0.399358 -0.194998
C26   C     C_R   0.866442 0.668057 0.417211 -0.182906
C27   C     C_R   0.624573 0.932645 0.132881 -0.165623
C28   C     C_R   0.126999 0.435651 0.135539 -0.175961
C29   C     C_R   0.380265 0.021790 0.757718 0.053435
C30   C     C_R   0.881818 0.526247 0.760115 0.054158
C31   C     C_R   0.352016 0.029841 0.851299 -0.220837
C32   C     C_R   0.852406 0.529392 0.853300 -0.227720
C33   C     C_R   0.588532 0.897432 0.555572 0.913976
C34   C     C_R   0.907082 0.400587 0.440468 0.861499
C35   C     C_R   0.588453 0.103822 0.556279 0.956943
C36   C     C_R   0.088126 0.397137 0.555166 0.932740
C37   C     C_R   0.089886 0.602539 0.557603 0.931138
C38   C     C_R   0.393689 0.014760 0.950098 -0.077039
C39   C     C_R   0.891642 0.507041 0.950851 -0.089867
C40   C     C_R   0.462929 0.989189 0.954015 0.009956
C41   C     C_R   0.959898 0.478959 0.954526 0.006237
C42   C     C_R   0.489752 0.982006 0.856380 0.049532
C43   C     C_R   0.986317 0.472041 0.855792 0.068610
C44   C     C_R   0.509076 0.974486 0.050766 -0.057021
C45   C     C_R   0.700619 0.263774 0.506696 0.110300
C46   C     C_R   0.006979 0.465767 0.052937 -0.061651
C47   C     C_R   0.570969 0.933401 0.044425 -0.097916
C48   C     C_R   0.070917 0.428139 0.048441 -0.053911
C49   C     C_R   0.583917 0.909275 0.943179 0.357976
C50   C     C_R   0.082137 0.400587 0.947770 0.358061
C51   C     C_R   0.558954 0.956188 0.858870 0.323177
C52   C     C_R   0.055620 0.445423 0.860839 0.317075
C53   C     C_R   0.499213 0.003089 0.151698 0.023688
C54   C     C_R   0.997149 0.495022 0.153741 0.015638
C55   C     C_R   0.616697 0.969542 0.227754 0.546005
C56   C     C_R   0.729400 0.757802 0.548400 0.109856
C57   C     C_R   0.118305 0.477749 0.226785 0.534641
C58   C     C_R   0.645690 0.298150 0.661268 -0.177873
C59   C     C_R   0.635334 0.700734 0.626623 -0.179543
C60   C     C_R   0.245862 0.700743 0.722365 -0.192748
C61   C     C_R   0.137672 0.201548 0.630482 -0.166985
C62   C     C_R   0.629111 0.173350 0.580631 -0.070591
C63   C     C_R   0.630866 0.831686 0.583366 -0.042795
C64   C     C_R   0.143800 0.660107 0.593204 -0.106789
C65   C     C_R   0.130644 0.331573 0.582090 -0.047220
C66   C     C_R   0.308498 0.859779 0.297143 0.232437
C67   C     C_R   0.228581 0.743791 0.537550 0.108023
C68   C     C_R   0.399546 0.232618 0.380554 0.220072
C69   C     C_R   0.850233 0.300131 0.308942 0.222227
C70   C     C_R   0.894747 0.730597 0.373764 0.233854
C71   C     C_R   0.237286 0.842696 0.281661 -0.150707
C72   C     C_R   0.380706 0.303875 0.411274 -0.155983
C73   C     C_R   0.794329 0.251561 0.272060 -0.153566
C74   C     C_R   0.880117 0.802008 0.410417 -0.118747
C75   C     C_R   0.208184 0.812676 0.364675 0.229942
C76   C     C_R   0.330577 0.313216 0.477035 0.226518
C77   C     C_R   0.740080 0.243154 0.329923 0.235424
C78   C     C_R   0.228000 0.257718 0.543580 0.111373
C79   C     C_R   0.833509 0.811493 0.482404 0.254474
C80   C     C_R   0.252943 0.785254 0.457596 0.012208
C81   C     C_R   0.288680 0.250916 0.496297 0.001313
C82   C     C_R   0.742680 0.282515 0.429803 -0.005596
C83   C     C_R   0.790219 0.750294 0.501049 0.002887
C84   C     C_R   0.325295 0.803244 0.473994 0.012410
C85   C     C_R   0.309304 0.178198 0.468682 0.027346
C86   C     C_R   0.789437 0.343738 0.454102 0.024923
C87   C     C_R   0.808634 0.677622 0.469612 0.032481
C88   C     C_R   0.689901 0.316201 0.588075 0.172557
H1    H     H_    0.576391 0.215817 0.707637 0.203768
H2    H     H_    0.850790 0.544551 0.685519 0.136265
H3    H     H_    0.370351 0.021376 0.021461 0.179206
H4    H     H_    0.867737 0.511615 0.022020 0.145572
H5    H     H_    0.298192 0.047967 0.847175 0.166985
H6    H     H_    0.799549 0.550351 0.850063 0.158824
H7    H     H_    0.378051 0.742567 0.730088 0.169574
H8    H     H_    0.195697 0.072824 0.582398 0.161504
H9    H     H_    0.715973 0.427158 0.655422 0.138672
H10   H     H_    0.691811 0.572322 0.575484 0.147249
H11   H     H_    0.635259 0.338866 0.721682 0.159413
H12   H     H_    0.552161 0.774015 0.652958 0.167220
H13   H     H_    0.610111 0.652106 0.653243 0.147408
H14   H     H_    0.277218 0.696894 0.802620 0.166364
H15   H     H_    0.114133 0.153319 0.661115 0.158478
H16   H     H_    0.690853 0.148187 0.459091 0.218389
H17   H     H_    0.711528 0.873133 0.507872 0.236394
H18   H     H_    0.138367 0.697106 0.432043 0.232416
H19   H     H_    0.205793 0.369680 0.492160 0.228323
H20   H     H_    0.203157 0.860409 0.208786 0.215892
H21   H     H_    0.410408 0.351910 0.393012 0.215164
H22   H     H_    0.793034 0.219733 0.197293 0.217634
H23   H     H_    0.165196 0.636819 0.763446 0.243567
H24   H     H_    0.909295 0.849643 0.389553 0.225453
H25   H     H_    0.426534 0.790267 0.580906 0.141686
H26   H     H_    0.286318 0.058545 0.473689 0.152984
H27   H     H_    0.801054 0.451211 0.543351 0.152769
H28   H     H_    0.782397 0.559572 0.465386 0.130162
H29   H     H_    0.611700 0.717947 0.860404 0.383776
H30   H     H_    0.126089 0.212564 0.869331 0.385792
H31   H     H_    0.719590 0.066359 0.943731 0.402078
H32   H     H_    0.209787 0.564810 0.948210 0.387372
H33   H     H_    0.742209 0.022080 0.480995 0.390337
H34   H     H_    0.055768 0.275414 0.661577 0.184099
H35   H     H_    0.233744 0.539044 0.477699 0.393892
H36   H     H_    0.676102 0.912871 0.124385 0.255039
H37   H     H_    0.179422 0.419547 0.126244 0.247827
H38   H     H_    0.450808 0.028973 0.163986 0.172625
H39   H     H_    0.946835 0.515274 0.167335 0.148233
H40   H     H_    0.347723 0.033362 0.680946 0.144930
N1    N     N_R   0.552340 1.000000 0.237260 -0.154953
N2    N     N_R   0.052340 0.500000 0.237260 -0.151190
N3    N     N_R   0.448170 1.000000 0.762060 -0.117708
N4    N     N_R   0.948170 0.500000 0.762060 -0.098590
O1    O     O_R   0.448200 0.076800 0.373930 -0.572870
O2    O     O_R   0.585240 0.076800 0.457600 -0.539656
O3    O     O_R   0.085240 0.423200 0.457600 -0.580168
O4    O     O_R   0.085240 0.576800 0.457600 -0.554920
O5    O     O_R   0.551780 0.923190 0.626070 -0.597878
O6    O     O_R   0.551780 0.076810 0.626070 -0.545785
O7    O     O_R   0.051780 0.423190 0.626070 -0.590298
O8    O     O_R   0.051780 0.576810 0.626070 -0.529929
O9    O     O_2   0.686828 0.851316 0.848299 -0.213509
O10   O     O_2   0.676868 0.800554 0.024572 -0.278268
O11   O     O_3   0.581932 0.763084 0.860832 -0.595528
O12   O     O_R   0.448200 0.923200 0.373930 -0.576919
O13   O     O_2   0.192329 0.350805 0.862529 -0.213576
O14   O     O_2   0.179834 0.299806 0.037810 -0.279170
O15   O     O_3   0.092559 0.254564 0.868846 -0.575567
O16   O     O_2   0.657343 0.005305 0.748781 -0.263827
O17   O     O_2   0.591331 0.100750 0.834528 -0.312553
O18   O     O_3   0.687339 0.025400 0.955300 -0.514028
O19   O     O_2   0.151077 0.500195 0.752604 -0.294104
O20   O     O_2   0.078592 0.589511 0.840839 -0.327786
O21   O     O_3   0.181033 0.520595 0.958938 -0.526211
O22   O     O_2   0.736914 0.909194 0.321779 -0.324713
O23   O     O_R   0.948200 0.576800 0.373930 -0.587074
O24   O     O_2   0.739370 0.040170 0.275649 -0.259275
O25   O     O_3   0.693758 0.006358 0.448528 -0.551654
O26   O     O_2   0.259346 0.491292 0.271838 -0.266815
O27   O     O_2   0.189002 0.602508 0.293636 -0.296561
O28   O     O_3   0.199802 0.501492 0.439502 -0.541816
O29   O     O_R   0.948200 0.423200 0.373930 -0.580815
O30   O     O_R   0.414750 0.076790 0.542400 -0.639255
O31   O     O_R   0.414750 0.923210 0.542400 -0.635780
O32   O     O_R   0.914750 0.576790 0.542400 -0.635346
O33   O     O_R   0.914750 0.423210 0.542400 -0.638943
O34   O     O_R   0.585240 0.923200 0.457600 -0.577445
S1    S     S_3+6 0.636547 0.830823 0.921336 0.058623
S2    S     S_3+6 0.140768 0.326473 0.931377 0.066120
S3    S     S_3+6 0.623690 0.024137 0.844754 0.081612
S4    S     S_3+6 0.116997 0.515943 0.849016 0.041376
S5    S     S_3+6 0.697373 0.981726 0.320560 0.054615
S6    S     S_3+6 0.193694 0.519174 0.307921 0.065287
Zn1   Zn    Zn3+2 0.522330 0.000000 0.387520 1.066344
Zn2   Zn    Zn3+2 0.022330 0.500000 0.387520 1.057226
Zn3   Zn    Zn3+2 0.477660 1.000000 0.612480 1.006084
Zn4   Zn    Zn3+2 0.977660 0.500000 0.612480 1.020057

loop_
_geom_bond_atom_site_label_1
_geom_bond_atom_site_label_2
_ccdc_geom_bond_type
O7    Zn4   S    
O15   S2    S    
C32   C39   A    
Br7   C75   S    
C4    C61   A    
C16   H18   S    
C8    C13   A    
C79   C83   A    
O30   Zn3   S    
C37   O8    A    
C61   H15   S    
C6    C10   A    
C74   H24   S    
C58   H11   S    
C33   O34   A    
C53   N1    A    
C25   C86   A    
C19   C63   A    
C39   C41   A    
C12   C22   S    
C2    C59   A    
C7    C11   A    
O13   S2    D    
C11   H27   S    
N4    Zn4   S    
O6    Zn3   S    
O10   S1    D    
Br1   C66   S    
C21   C65   A    
O31   Zn3   S    
C20   C60   A    
O18   S3    S    
O23   Zn2   S    
C44   C53   A    
C17   H19   S    
C23   O23   A    
C4    C78   A    
C22   C66   A    
C49   C51   A    
N1    Zn1   S    
C23   O32   A    
C50   C52   A    
C41   C46   A    
C36   O7    A    
C55   S5    S    
C70   C74   A    
H32   O21   S    
N3    Zn3   S    
H29   O11   S    
C1    C24   S    
C49   S1    S    
C59   H13   S    
C80   C84   A    
O33   Zn4   S    
C41   C43   A    
C37   O4    A    
C82   C86   A    
C5    H7    S    
C26   C70   A    
O1    Zn1   S    
C44   C47   A    
C30   H2    S    
C33   C63   S    
Br5   C77   S    
C43   N4    A    
C40   C42   A    
C75   C80   A    
C71   H20   S    
C28   H37   S    
C37   C64   S    
C55   N1    A    
C1    O30   A    
C20   C64   A    
C9    C84   A    
O34   Zn1   S    
C53   H38   S    
C31   H5    S    
C14   C45   A    
C21   C61   A    
O14   S2    D    
O4    Zn2   S    
C23   C26   S    
O11   S1    S    
C27   C47   A    
C72   C76   A    
C18   C58   A    
O3    Zn2   S    
C15   C63   A    
C51   S3    S    
C26   C87   A    
C22   C84   A    
C7    C88   A    
C1    O1    A    
C42   N3    A    
O17   S3    D    
C13   C87   A    
O28   S6    S    
C32   H6    S    
C73   H22   S    
C34   O33   A    
Br6   C79   S    
C12   O12   A    
O9    S1    D    
C54   H39   S    
Br4   C70   S    
C28   C48   A    
C34   O29   A    
C15   H17   S    
O16   S3    D    
O32   Zn4   S    
C6    H8    S    
C21   H34   S    
C69   C73   A    
C7    H9    S    
O8    Zn4   S    
O2    Zn1   S    
C29   H40   S    
C60   H14   S    
C54   N2    A    
O24   S5    D    
H31   O18   S    
O20   S4    D    
O22   S5    D    
C11   C86   A    
C10   H26   S    
C31   C38   A    
C57   N2    A    
C9    H25   S    
C15   C56   A    
C4    C6    A    
H35   O28   S    
C35   C62   S    
C14   H16   S    
C66   C71   A    
C47   C49   A    
C18   C62   A    
O26   S6    D    
C76   C81   A    
C42   C51   A    
O19   S4    D    
Br3   C69   S    
Br2   C68   S    
C3    C60   A    
C16   C64   A    
C58   C88   A    
C25   C34   S    
C72   H21   S    
Br8   C76   S    
C2    C56   A    
C68   C72   A    
C46   C48   A    
C78   C81   A    
C24   C68   A    
C27   C55   A    
C77   C82   A    
C20   H23   S    
C16   C67   A    
C57   S6    S    
C8    H10   S    
C46   C54   A    
O5    Zn3   S    
H33   O25   S    
C28   C57   A    
C38   H3    S    
O12   Zn1   S    
C29   C31   A    
C35   O6    A    
C3    C67   A    
H30   O15   S    
C30   C32   A    
C3    C5    A    
C25   C69   A    
C50   S2    S    
C19   H12   S    
C13   H28   S    
C36   O3    A    
O25   S5    S    
C17   C78   A    
C48   C50   A    
C24   C85   A    
C17   C65   A    
C81   C85   A    
C36   C65   S    
N2    Zn2   S    
O27   S6    D    
O29   Zn2   S    
C19   C59   A    
C39   H4    S    
C18   H1    S    
C83   C87   A    
C5    C9    A    
C71   C75   A    
C38   C40   A    
C67   C80   A    
C40   C44   A    
C12   O31   A    
C33   O5    A    
C29   N3    A    
C45   C82   A    
C10   C85   A    
C30   N4    A    
C35   O2    A    
C2    C8    A    
C43   C52   A    
C56   C83   A    
O21   S4    S    
C52   S4    S    
C27   H36   S    
C14   C62   A    
C73   C77   A    
C74   C79   A    
C45   C88   A    
