data_mof_unit_24262.cif
_audit_creation_date              2013-03-05T15:52:27-0500
_audit_creation_method            fapswitch 2.2
_symmetry_space_group_name_H-M    P1
_symmetry_Int_Tables_number       1
_space_group_crystal_system       triclinic
_cell_length_a                    27.789921
_cell_length_b                    10.856408
_cell_length_c                    9.604464
_cell_angle_alpha                 89.369126
_cell_angle_beta                  89.995782
_cell_angle_gamma                 93.510488
_cell_volume                      2892.04122829

loop_
_atom_site_label
_atom_site_type_symbol
_atom_site_description
_atom_site_fract_x
_atom_site_fract_y
_atom_site_fract_z
_atom_type_partial_charge
O1    O     O_R   0.500000 0.319640 0.618810 -0.603109
O2    O     O_R   0.500000 0.319660 0.381240 -0.521849
C1    C     C_R   0.503354 0.262559 0.502090 0.822690
O3    O     O_R   0.430260 0.500010 0.618770 -0.592203
O4    O     O_R   0.430270 0.500030 0.381200 -0.584889
C2    C     C_R   0.407605 0.500605 0.500020 0.784583
Cu1   Cu    Cu3+1 0.500000 0.499990 0.640660 0.956857
Cu2   Cu    Cu3+1 0.500000 0.500010 0.359340 0.951449
O5    O     O_R   0.500000 0.680340 0.618760 -0.519175
O6    O     O_R   0.500000 0.680360 0.381190 -0.610894
O7    O     O_R   0.569730 0.499970 0.618800 -0.545294
O8    O     O_R   0.569740 0.499990 0.381230 -0.602926
C3    C     C_R   0.496949 0.736800 0.499152 0.823144
C4    C     C_R   0.592235 0.501387 0.499582 0.799923
C5    C     C_R   0.175854 0.459127 0.600471 0.534413
O9    O     O_2   0.197878 0.389337 0.695427 -0.543886
N1    N     N_R   0.202577 0.523380 0.500796 -0.465005
C6    C     C_R   0.180890 0.592661 0.401582 0.535836
C7    C     C_R   0.281289 0.556025 0.616959 -0.096086
C8    C     C_R   0.331206 0.548897 0.617487 -0.227475
C9    C     C_R   0.327765 0.468059 0.383038 -0.214250
C10   C     C_R   0.277729 0.473264 0.383574 -0.098720
C11   C     C_R   0.254184 0.517745 0.500309 0.342261
C12   C     C_R   0.102418 0.533045 0.501143 -0.048178
C13   C     C_R   0.125503 0.464221 0.603658 -0.017666
C14   C     C_R   0.097925 0.400580 0.705923 -0.144486
C15   C     C_R   0.130486 0.597322 0.398822 -0.019428
C16   C     C_R   0.354856 0.505282 0.500310 -0.032712
H1    H     H_    0.345187 0.433689 0.291650 0.152383
H2    H     H_    0.257201 0.442470 0.293271 0.153166
H3    H     H_    0.114706 0.345498 0.784848 0.186785
C17   C     C_R   0.644914 0.505817 0.496743 -0.065726
C18   C     C_R   0.973124 0.484466 0.610856 0.059934
C19   C     C_R   0.977037 0.596913 0.386307 -0.015141
C20   C     C_R   0.949752 0.539674 0.496493 0.072388
C21   C     C_R   0.944821 0.440807 0.725442 -0.223699
C22   C     C_R   0.895103 0.445482 0.724543 -0.166781
C23   C     C_R   0.871542 0.491755 0.608576 -0.005685
C24   C     C_R   0.898586 0.538518 0.493439 -0.115173
C25   C     C_R   0.874351 0.584891 0.376477 -0.112493
C26   C     C_R   0.823336 0.574228 0.374541 0.571673
N2    N     N_R   0.798010 0.529273 0.488468 -0.455343
C27   C     C_R   0.821234 0.493275 0.606268 0.568600
C28   C     C_R   0.720592 0.404470 0.507351 0.230261
C29   C     C_R   0.670042 0.398279 0.517164 0.063440
C30   C     C_R   0.670306 0.617741 0.464744 -0.285094
C31   C     C_R   0.720491 0.625284 0.462765 -0.166489
C32   C     C_R   0.746045 0.519375 0.485026 0.304386
O10   O     O_2   0.795601 0.458832 0.721171 -0.549487
C33   C     C_R   0.023865 0.475989 0.608182 0.035252
C34   C     C_R   0.051357 0.537026 0.500592 0.067861
C35   C     C_R   0.028369 0.601474 0.392213 0.067339
C36   C     C_R   0.048157 0.406307 0.708487 -0.213351
H4    H     H_    0.875125 0.411372 0.815371 0.180097
H5    H     H_    0.960156 0.406198 0.820045 0.137035
H6    H     H_    0.029573 0.351546 0.788323 0.141824
O11   O     O_2   0.208019 0.657644 0.306439 -0.543769
C37   C     C_R   0.107796 0.665270 0.296476 -0.148846
H7    H     H_    0.351356 0.579298 0.708683 0.154055
H8    H     H_    0.263624 0.591519 0.707290 0.153347
H9    H     H_    0.128595 0.716926 0.217551 0.187883
C38   C     C_R   0.951960 0.647931 0.273650 -0.311593
C39   C     C_R   0.901394 0.639032 0.264822 0.482202
O12   O     O_2   0.799125 0.606161 0.259214 -0.491492
C40   C     C_R   0.057860 0.667171 0.292660 -0.208067
H10   H     H_    0.970722 0.695189 0.189346 0.142930
H11   H     H_    0.651246 0.699906 0.443486 0.126613
H12   H     H_    0.739612 0.713853 0.444165 0.166340
H13   H     H_    0.043798 0.723070 0.210837 0.140515
C41   C     C_R   0.498298 0.103412 0.771809 0.208781
C42   C     C_R   0.471087 0.042231 0.877134 -0.150063
H14   H     H_    0.472070 0.077463 0.982267 0.170640
C43   C     C_R   0.445673 0.930833 0.850507 -0.199497
H15   H     H_    0.424566 0.884004 0.932133 0.156548
C44   C     C_R   0.451400 0.873919 0.723039 -0.125819
H16   H     H_    0.433212 0.784068 0.707864 0.148570
C45   C     C_R   0.479894 0.933045 0.617080 0.065811
C46   C     C_R   0.495528 0.057836 0.632635 0.000327
C47   C     C_R   0.507970 0.127846 0.509074 -0.229373
C48   C     C_R   0.519025 0.065527 0.385998 0.439660
H17   H     H_    0.524020 0.889908 0.290289 0.162538
C49   C     C_R   0.513597 0.937255 0.383242 -0.316897
C50   C     C_R   0.494498 0.870618 0.497898 -0.158328
H18   H     H_    0.436724 0.384943 0.130028 0.136635
C51   C     C_R   0.572059 0.637230 0.147821 -0.152530
H19   H     H_    0.568037 0.668814 0.251487 0.199290
C52   C     C_R   0.616139 0.667123 0.087020 -0.282643
H20   H     H_    0.645780 0.707098 0.148130 0.185563
C53   C     C_R   0.620666 0.656397 0.945418 -0.286093
H21   H     H_    0.655099 0.686891 0.901155 0.166755
C54   C     C_R   0.578655 0.634480 0.864163 0.513374
C55   C     C_R   0.537654 0.565598 0.926424 0.110732
C56   C     C_R   0.536098 0.566812 0.075816 0.155364
N3    N     N_R   0.500460 0.501210 0.147910 -0.186653
C57   C     C_R   0.465148 0.437265 0.074452 -0.027886
H22   H     H_    0.436076 0.387498 0.872349 0.149541
C58   C     C_R   0.464742 0.438781 0.926752 -0.109842
N4    N     N_R   0.500480 0.501290 0.852040 -0.197102
O13   O     O_3   0.877800 0.698882 0.158147 -0.565478
C59   C     C_3   0.894412 0.669128 0.023735 0.093268
H23   H     H_    0.862794 0.632251 0.962982 0.194772
H24   H     H_    0.920926 0.595987 0.022450 0.108808
C60   C     C_3   0.915288 0.786915 0.951186 -0.360984
H25   H     H_    0.887056 0.855026 0.944890 0.239194
H26   H     H_    0.945846 0.828405 0.012797 0.212996
C61   C     C_3   0.932979 0.761587 0.804563 -0.885807
H27   H     H_    0.962019 0.695815 0.808445 0.262876
H28   H     H_    0.947692 0.849036 0.755575 0.258910
H29   H     H_    0.902727 0.723289 0.739594 0.265068
O14   O     O_3   0.533665 0.131177 0.267157 -0.590166
C62   C     C_3   0.581551 0.106533 0.232213 0.023583
H30   H     H_    0.581091 0.025468 0.162255 0.151588
H31   H     H_    0.603981 0.087381 0.325634 0.125268
C63   C     C_3   0.604895 0.218951 0.155418 -0.296109
H32   H     H_    0.584429 0.236253 0.058675 0.236142
H33   H     H_    0.603583 0.301720 0.222058 0.238336
C64   C     C_3   0.657271 0.200052 0.118181 -0.901808
H34   H     H_    0.678853 0.188564 0.214291 0.258040
H35   H     H_    0.672665 0.281909 0.059469 0.273087
H36   H     H_    0.659579 0.117140 0.052355 0.256174
N5    N     N_3   0.537303 0.186020 0.816899 -0.610127
H37   H     H_    0.523543 0.265491 0.856579 0.246566
H38   H     H_    0.560895 0.209082 0.735299 0.225377
O15   O     O_3   0.573901 0.694009 0.736840 -0.565903
C65   C     C_3   0.608311 0.791279 0.701434 0.037823
H39   H     H_    0.600477 0.818075 0.592188 0.152609
H40   H     H_    0.645659 0.760848 0.698646 0.132108
C66   C     C_3   0.603669 0.906179 0.791252 -0.370475
H41   H     H_    0.565293 0.927625 0.797007 0.254173
H42   H     H_    0.616424 0.890571 0.898930 0.213081
C67   C     C_3   0.633265 0.016532 0.729828 -0.893152
H43   H     H_    0.671597 0.994745 0.718529 0.258536
H44   H     H_    0.631601 0.096629 0.800014 0.269802
H45   H     H_    0.618691 0.041411 0.626268 0.258875
N6    N     N_3   0.645008 0.282726 0.550398 -0.630136
H46   H     H_    0.628552 0.292806 0.646794 0.221283
H47   H     H_    0.618182 0.264458 0.476040 0.205313
N7    N     N_3   0.746436 0.294538 0.519822 -0.560710
H48   H     H_    0.738217 0.253200 0.616470 0.258236
H49   H     H_    0.734146 0.233576 0.442239 0.220554

loop_
_geom_bond_atom_site_label_1
_geom_bond_atom_site_label_2
_geom_bond_distance
_ccdc_geom_bond_type
C52   H20   1.083161 S    
C66   C67   1.524300 S    
C26   N2    1.370007 A    
C56   N3    1.367546 A    
Cu1   N4    2.030436 S    
C41   C46   1.430870 A    
C17   C29   1.408509 A    
C20   C24   1.421477 A    
C7    C8    1.394087 A    
C12   C15   1.406878 A    
C67   H45   1.110774 S    
C1    C47   1.476714 S    
C66   H41   1.106928 S    
C63   H32   1.109688 S    
C55   N4    1.409906 A    
N6    H46   1.042381 S    
C45   C46   1.406735 A    
Cu1   O7    1.949130 S    
N1    C11   1.439230 S    
C25   C39   1.411454 A    
C21   C22   1.385720 A    
C64   H35   1.110453 S    
C23   C24   1.409340 A    
O7    C4    1.304136 A    
C5    C13   1.404084 A    
C61   H27   1.110200 S    
C45   C50   1.408906 A    
C5    O9    1.349833 S    
C58   N4    1.366895 A    
C19   C38   1.413270 A    
C18   C21   1.413217 A    
N6    H47   1.044124 S    
C19   C20   1.417302 A    
C43   H15   1.082485 S    
O5    C3    1.301329 A    
O14   C62   1.414437 S    
C55   C56   1.435713 A    
C39   O13   1.392633 S    
C6    O11   1.349711 S    
C51   C56   1.406978 A    
C2    C16   1.469869 S    
C62   H30   1.112564 S    
C65   C66   1.536299 S    
C41   C42   1.399968 A    
C53   C54   1.413827 A    
C37   H9    1.083535 S    
C14   H3    1.083472 S    
C9    C10   1.395117 A    
C43   C44   1.390897 A    
O3    Cu1   1.949470 S    
H17   C49   1.083267 S    
C51   C52   1.376206 A    
C29   N6    1.429661 S    
C33   C36   1.415155 A    
C38   H10   1.071776 S    
C34   C35   1.421258 A    
Cu1   Cu2   2.701925 S    
Cu2   N3    2.030604 S    
C12   C13   1.407783 A    
C62   H31   1.117451 S    
C64   H36   1.110703 S    
C54   C55   1.449382 A    
C42   C43   1.388900 A    
C46   C47   1.432992 A    
C27   O10   1.350311 S    
C8    C16   1.404448 A    
C33   C34   1.418948 A    
C18   C33   1.418955 A    
C51   H19   1.064705 S    
C9    H1    1.083201 S    
O6    C3    1.299177 A    
C59   C60   1.531914 S    
C30   H11   1.082490 S    
O1    C1    1.292974 A    
H18   C57   1.081584 S    
C60   C61   1.524923 S    
C7    C11   1.402611 A    
C44   H16   1.082121 S    
C22   C23   1.396325 A    
C37   C40   1.389614 A    
C31   C32   1.402367 A    
Cu2   O8    1.949465 S    
H22   C58   1.081568 S    
C38   C39   1.405256 A    
C59   H24   1.115987 S    
N1    C6    1.369951 A    
C60   H26   1.110529 S    
N2    C32   1.441908 S    
C8    H7    1.083272 S    
C44   C45   1.413504 A    
N5    H37   1.040891 S    
N7    H49   1.045518 S    
C22   H4    1.083522 S    
C48   C49   1.392045 A    
C25   C26   1.415471 A    
C9    C16   1.404135 A    
O8    C4    1.297093 A    
C54   O15   1.386947 S    
C52   C53   1.372688 A    
C65   H39   1.110856 S    
O3    C2    1.302942 A    
N2    C27   1.367713 A    
C67   H43   1.110799 S    
C14   C36   1.388487 A    
C31   H12   1.082792 S    
C24   C25   1.413566 A    
C28   C29   1.405356 A    
C36   H6    1.077217 S    
Cu1   O5    1.966915 S    
C30   C31   1.392155 A    
C28   N7    1.434013 S    
C10   H2    1.082838 S    
O1    Cu1   1.971464 S    
C17   C30   1.398414 A    
O2    Cu2   1.966915 S    
C6    C15   1.404964 A    
C4    C17   1.462054 S    
C67   H44   1.109289 S    
C15   C37   1.396091 A    
C66   H42   1.107910 S    
O4    Cu2   1.949133 S    
C63   H33   1.111349 S    
C57   C58   1.418551 A    
C5    N1    1.369770 A    
C7    H8    1.082873 S    
C3    C50   1.458458 S    
C19   C35   1.425510 A    
O13   C59   1.418237 S    
O2    C1    1.315839 A    
C13   C14   1.396252 A    
C23   C27   1.399312 A    
C21   H5    1.077260 S    
C64   H34   1.110900 S    
C41   N5    1.434002 S    
O4    C2    1.303704 A    
C61   H28   1.110168 S    
C12   C34   1.422265 A    
C40   H13   1.075722 S    
C59   H23   1.111284 S    
C18   C20   1.421573 A    
C62   C63   1.528893 S    
N3    C57   1.367540 A    
N5    H38   1.040310 S    
C63   C64   1.525321 S    
N7    H48   1.045690 S    
C47   C48   1.411541 A    
C42   H14   1.083451 S    
Cu2   O6    1.971464 S    
C49   C50   1.397523 A    
C48   O14   1.386661 S    
C60   H25   1.111774 S    
C65   H40   1.108731 S    
C10   C11   1.403164 A    
C26   O12   1.349065 S    
C53   H21   1.078885 S    
C35   C40   1.416994 A    
C28   C32   1.410143 A    
O15   C65   1.419015 S    
C61   H29   1.109957 S    
