data_mof_unit_32880.cif
_audit_creation_date              2012-12-10T17:40:51-0500
_audit_creation_method            fapswitch 2.2
_symmetry_space_group_name_H-M    P1
_symmetry_Int_Tables_number       1
_space_group_crystal_system       triclinic
_cell_length_a                    14.706179
_cell_length_b                    15.587212
_cell_length_c                    10.005197
_cell_angle_alpha                 90.012035
_cell_angle_beta                  90.727989
_cell_angle_gamma                 90.000333
_cell_volume                      2293.2894229

loop_
_atom_site_label
_atom_site_type_symbol
_atom_type_description
_atom_site_fract_x
_atom_site_fract_y
_atom_site_fract_z
_atom_type_partial_charge
C1    C     C_R   0.383398 0.877149 0.498748 1.108999
C2    C     C_R   0.764737 0.174243 0.438325 0.646983
C3    C     C_R   0.264791 0.325788 0.438460 0.651293
C4    C     C_R   0.182220 0.745715 0.415175 0.687874
C5    C     C_R   0.693755 0.822780 0.501599 -0.225814
C6    C     C_R   0.682991 0.187885 0.503718 -0.253628
C7    C     C_R   0.182991 0.312124 0.503686 -0.252525
C8    C     C_R   0.193715 0.677249 0.501680 -0.223753
C9    C     C_R   0.337745 0.021096 0.140791 -0.192532
C10   C     C_R   0.837831 0.478095 0.140705 -0.190022
C11   C     C_R   0.256095 0.039284 0.075239 0.036411
C12   C     C_R   0.378575 0.118279 0.498414 0.977769
C13   C     C_R   0.756433 0.458727 0.075173 0.041974
C14   C     C_R   0.253500 0.036226 0.937706 -0.237620
C15   C     C_R   0.753800 0.462360 0.937558 -0.249333
C16   C     C_R   0.331602 0.017197 0.866561 0.641314
C17   C     C_R   0.831731 0.482179 0.866526 0.645894
C18   C     C_R   0.418389 0.009653 0.928682 0.006895
C19   C     C_R   0.918454 0.489974 0.928670 0.006326
C20   C     C_R   0.419563 0.010545 0.072129 -0.048115
C21   C     C_R   0.919617 0.489067 0.072102 -0.051171
C22   C     C_R   0.577646 0.990843 0.072443 0.706538
C23   C     C_R   0.878567 0.381728 0.498395 0.978240
C24   C     C_R   0.077602 0.509503 0.072448 0.709290
C25   C     C_R   0.619279 0.119677 0.500983 0.892516
C26   C     C_R   0.622933 0.884119 0.500749 1.008826
C27   C     C_R   0.122925 0.615886 0.500770 1.009095
C28   C     C_R   0.119286 0.380332 0.500968 0.892228
C29   C     C_R   0.577559 0.991040 0.929910 -0.200199
C30   C     C_R   0.077515 0.509301 0.929914 -0.198287
C31   C     C_R   0.189826 0.079502 0.569776 0.687575
C32   C     C_R   0.423907 0.715732 0.646486 0.665550
C33   C     C_R   0.923872 0.784275 0.646639 0.666143
C34   C     C_R   0.883408 0.622857 0.498760 1.107642
C35   C     C_R   0.689853 0.420512 0.569942 0.688455
C36   C     C_R   0.105687 0.065421 0.628552 -0.190124
C37   C     C_R   0.436916 0.641670 0.722528 -0.178202
C38   C     C_R   0.936855 0.858341 0.722732 -0.182238
C39   C     C_R   0.605747 0.434584 0.628833 -0.184083
C40   C     C_R   0.870055 0.920976 0.726454 -0.226517
C41   C     C_R   0.550026 0.365643 0.659190 -0.242951
C42   C     C_R   0.049927 0.134354 0.658833 -0.236088
C43   C     C_R   0.370110 0.579042 0.726290 -0.224525
C44   C     C_R   0.789776 0.910089 0.653703 -0.081694
C45   C     C_R   0.327702 0.260834 0.431634 -0.048556
C46   C     C_R   0.575967 0.282971 0.623380 -0.166758
C47   C     C_R   0.075879 0.217026 0.623088 -0.161887
C48   C     C_R   0.289798 0.589934 0.653629 -0.082702
C49   C     C_R   0.773744 0.834336 0.578648 -0.040768
C50   C     C_R   0.659912 0.267978 0.559272 -0.048302
C51   C     C_R   0.159878 0.232028 0.559141 -0.046972
C52   C     C_R   0.273740 0.665686 0.578635 -0.041139
C53   C     C_R   0.220680 0.163632 0.542856 -0.056013
C54   C     C_R   0.340907 0.730193 0.575279 -0.062919
C55   C     C_R   0.840904 0.769821 0.575330 -0.060813
C56   C     C_R   0.248491 0.805982 0.404884 0.006505
C57   C     C_R   0.720692 0.336383 0.542928 -0.061413
C58   C     C_R   0.307925 0.181331 0.491540 -0.241545
C59   C     C_R   0.324155 0.803637 0.493698 -0.215721
C60   C     C_R   0.824179 0.696375 0.493694 -0.218258
C61   C     C_R   0.807900 0.318693 0.491477 -0.243645
C62   C     C_R   0.748588 0.694054 0.404728 -0.001440
C63   C     C_R   0.827634 0.239204 0.431453 -0.054981
C64   C     C_R   0.682323 0.754339 0.414971 0.691469
F1    F     F_    0.316143 0.996741 0.740537 -0.617406
F2    F     F_    0.105453 0.754114 0.338525 -0.620917
F3    F     F_    0.657641 0.981838 0.139675 -0.608015
F4    F     F_    0.157555 0.518845 0.139678 -0.606614
F5    F     F_    0.816116 0.503397 0.740824 -0.616252
F6    F     F_    0.236800 0.010281 0.528855 -0.700181
F7    F     F_    0.496135 0.768423 0.636066 -0.678676
F8    F     F_    0.996098 0.731572 0.636278 -0.679424
F9    F     F_    0.736806 0.489741 0.529022 -0.699091
F10   F     F_    0.605601 0.745952 0.338217 -0.614799
F11   F     F_    0.783593 0.096930 0.381845 -0.618557
F12   F     F_    0.283682 0.403112 0.382093 -0.616917
H1    H     H_    0.189055 0.043658 0.885472 0.178851
H2    H     H_    0.484846 0.376549 0.705341 0.172389
H3    H     H_    0.984711 0.123442 0.704867 0.171341
H4    H     H_    0.381540 0.520765 0.782920 0.169053
H5    H     H_    0.742069 0.962768 0.654531 0.153464
H6    H     H_    0.527909 0.232217 0.642240 0.167612
H7    H     H_    0.027796 0.267775 0.641883 0.166593
H8    H     H_    0.242082 0.537262 0.654489 0.153648
H9    H     H_    0.334627 0.011032 0.244766 0.220899
H10   H     H_    0.834613 0.488661 0.244566 0.220229
H11   H     H_    0.409077 0.236882 0.274081 0.218315
H12   H     H_    0.689401 0.454768 0.885265 0.179073
H13   H     H_    0.465640 0.259960 0.417992 0.174177
H14   H     H_    0.234119 0.928477 0.340254 0.235841
H15   H     H_    0.289740 0.860767 0.232207 0.217244
H16   H     H_    0.734294 0.571542 0.340281 0.243111
H17   H     H_    0.789870 0.639114 0.232111 0.217925
H18   H     H_    0.908893 0.263195 0.273803 0.217658
H19   H     H_    0.965562 0.240071 0.417602 0.176591
H20   H     H_    0.189076 0.067112 0.248209 0.202861
H21   H     H_    0.133637 0.001346 0.141220 0.223415
H22   H     H_    0.688803 0.436675 0.249535 0.199502
H23   H     H_    0.641174 0.983804 0.877966 0.166637
H24   H     H_    0.652017 0.380250 0.118118 0.197698
H25   H     H_    0.141095 0.516813 0.877975 0.166713
H26   H     H_    0.083273 0.000674 0.649224 0.173224
H27   H     H_    0.500616 0.631606 0.775707 0.174552
H28   H     H_    0.000531 0.868402 0.775984 0.170649
H29   H     H_    0.583337 0.499329 0.649571 0.174768
H30   H     H_    0.881466 0.979255 0.783126 0.167618
N1    N     N_R   0.498810 0.000000 0.142780 -0.159714
N2    N     N_3   0.674620 0.441155 0.147124 -0.404348
N3    N     N_R   0.998810 0.500000 0.142780 -0.159682
N4    N     N_R   0.498740 0.000000 0.857170 -0.129478
N5    N     N_R   0.998740 0.500000 0.857170 -0.129762
N6    N     N_3   0.409541 0.276190 0.358719 -0.372063
N7    N     N_3   0.236776 0.867317 0.299988 -0.395259
N8    N     N_3   0.736880 0.632644 0.299870 -0.369702
N9    N     N_3   0.909419 0.223864 0.358391 -0.370424
N10   N     N_3   0.174227 0.056312 0.147104 -0.423923
O1    O     O_R   0.408390 0.908380 0.614690 -0.480320
O2    O     O_R   0.591620 0.908390 0.614640 -0.599582
O3    O     O_R   0.091620 0.591610 0.614640 -0.600429
O4    O     O_R   0.091620 0.408390 0.614640 -0.662060
O5    O     O_R   0.591610 0.091610 0.385310 -0.563514
O6    O     O_R   0.591610 0.908390 0.385310 -0.523427
O7    O     O_R   0.091610 0.591610 0.385310 -0.523316
O8    O     O_R   0.091610 0.408390 0.385310 -0.560945
O9    O     O_R   0.408390 0.091620 0.614690 -0.564667
O10   O     O_R   0.908390 0.408380 0.614690 -0.565455
O11   O     O_R   0.908390 0.591620 0.614690 -0.479199
O12   O     O_R   0.408370 0.908380 0.385360 -0.667187
O13   O     O_R   0.408370 0.091620 0.385360 -0.674216
O14   O     O_R   0.908370 0.408380 0.385360 -0.675941
O15   O     O_R   0.908370 0.591620 0.385360 -0.668743
O16   O     O_R   0.591620 0.091610 0.614640 -0.662359
Zn1   Zn    Zn3+2 0.500010 0.000000 0.653130 1.036403
Zn2   Zn    Zn3+2 0.000010 0.500000 0.653130 1.036803
Zn3   Zn    Zn3+2 0.499980 0.000000 0.346870 1.039211
Zn4   Zn    Zn3+2 0.999980 0.500000 0.346870 1.039943

loop_
_geom_bond_atom_site_label_1
_geom_bond_atom_site_label_2
_ccdc_geom_bond_type
C44   C49   A    
C33   C55   A    
C38   C40   A    
C17   F5    S    
C22   C29   A    
C36   C42   A    
O11   Zn2   S    
C4    C8    A    
O1    Zn1   S    
C45   N6    S    
C39   C41   A    
H13   N6    S    
C60   C62   A    
C19   C21   A    
C62   N8    S    
C3    C7    A    
C1    C59   S    
C11   C14   A    
H14   N7    S    
C6    C25   S    
C22   N1    A    
H22   N2    S    
C36   H26   S    
C14   H1    S    
C61   C63   A    
C23   O14   A    
N1    Zn3   S    
C33   F8    S    
C9    H9    S    
C46   H6    S    
C31   F6    S    
C10   H10   S    
H19   N9    S    
C34   O11   A    
C62   C64   A    
C41   C46   A    
C1    O12   A    
C47   H7    S    
C43   C48   A    
C8    C52   A    
C40   C44   A    
O4    Zn2   S    
C53   C58   A    
H17   N8    S    
C20   N1    A    
C12   C58   S    
C42   H3    S    
O13   Zn3   S    
C55   C60   A    
C4    C56   A    
N3    Zn4   S    
C34   C60   S    
C5    C49   A    
C2    C6    A    
C13   N2    S    
C32   C54   A    
C52   C54   A    
C32   F7    S    
C54   C59   A    
C10   C21   A    
C22   F3    S    
C45   C58   A    
H24   N2    S    
O3    Zn2   S    
C12   O13   A    
O8    Zn4   S    
C18   N4    A    
C29   N4    A    
O15   Zn4   S    
C28   O4    A    
O12   Zn3   S    
C41   H2    S    
C37   H27   S    
C29   H23   S    
O16   Zn1   S    
C47   C51   A    
C12   O9    A    
C43   H4    S    
C49   C55   A    
C3    C45   A    
C6    C50   A    
C7    C28   S    
H15   N7    S    
C5    C64   A    
C51   C53   A    
C37   C43   A    
C35   C39   A    
C3    F12   S    
C9    C20   A    
C21   N3    A    
C23   C61   S    
C56   N7    S    
C1    O1    A    
C32   C37   A    
O5    Zn3   S    
H21   N10   S    
C57   C61   A    
C11   N10   S    
C9    C11   A    
O2    Zn1   S    
C23   O10   A    
C34   O15   A    
C44   H5    S    
C19   N5    A    
C13   C15   A    
C14   C16   A    
C31   C53   A    
O7    Zn4   S    
C2    C63   A    
C40   H30   S    
O9    Zn1   S    
C39   H29   S    
C35   F9    S    
C27   O7    A    
C50   C57   A    
O14   Zn4   S    
C24   N3    A    
C26   O2    A    
C10   C13   A    
C38   H28   S    
H18   N9    S    
C28   O8    A    
N5    Zn2   S    
C15   C17   A    
H11   N6    S    
C27   O3    A    
C46   C50   A    
C33   C38   A    
C56   C59   A    
C30   N5    A    
C35   C57   A    
C63   N9    S    
C4    F2    S    
H16   N8    S    
C30   H25   S    
C17   C19   A    
C18   C20   A    
C42   C47   A    
C24   C30   A    
O6    Zn3   S    
C24   F4    S    
C7    C51   A    
C5    C26   S    
C48   H8    S    
C48   C52   A    
O10   Zn2   S    
C16   C18   A    
C8    C27   S    
C64   F10   S    
C31   C36   A    
H20   N10   S    
N4    Zn1   S    
C16   F1    S    
C26   O6    A    
C25   O16   A    
C25   O5    A    
C2    F11   S    
C15   H12   S    
