data_mof_unit_7313.cif
_audit_creation_date              2012-12-11T15:36:40-0500
_audit_creation_method            fapswitch 2.2
_symmetry_space_group_name_H-M    P1
_symmetry_Int_Tables_number       1
_space_group_crystal_system       triclinic
_cell_length_a                    15.040537
_cell_length_b                    15.060361
_cell_length_c                    34.824515
_cell_angle_alpha                 91.495102
_cell_angle_beta                  91.979871
_cell_angle_gamma                 60.060542
_cell_volume                      6831.20068976

loop_
_atom_site_label
_atom_site_type_symbol
_atom_type_description
_atom_site_fract_x
_atom_site_fract_y
_atom_site_fract_z
_atom_type_partial_charge
C1    C     C_R   0.610376 0.303190 0.443793 0.545006
C2    C     C_R   0.730074 0.659582 0.177935 -0.016052
C3    C     C_R   0.629584 0.119144 0.826068 0.027513
C4    C     C_R   0.686959 0.155640 0.847206 0.321044
C5    C     C_R   0.705509 0.136681 0.886979 0.144265
C6    C     C_R   0.567012 0.233093 0.768206 0.175794
C7    C     C_R   0.572539 0.243133 0.728697 -0.166500
C8    C     C_R   0.619716 0.156635 0.704670 0.010489
C9    C     C_R   0.657968 0.057885 0.719544 0.279357
C10   C     C_R   0.656457 0.047654 0.759718 -0.165525
C11   C     C_R   0.613471 0.134243 0.784072 0.023408
C12   C     C_R   0.559360 0.173019 0.636477 -0.094441
C13   C     C_R   0.816705 0.598530 0.156259 -0.148293
C14   C     C_R   0.556211 0.207988 0.599415 -0.128923
C15   C     C_R   0.699241 0.234253 0.616339 -0.131219
C16   C     C_R   0.701527 0.200335 0.653473 -0.112115
C17   C     C_R   0.629820 0.172328 0.663946 0.075607
C18   C     C_R   0.623913 0.242209 0.589396 0.018246
C19   C     C_R   0.045675 0.739248 0.048625 0.544138
C20   C     C_R   0.746410 0.745795 0.063741 0.554912
C21   C     C_R   0.751083 0.040844 0.050613 0.537623
C22   C     C_R   0.015259 0.722875 0.939311 0.572042
C23   C     C_R   0.717021 0.730027 0.954818 0.548177
C24   C     C_R   0.819215 0.623632 0.118219 -0.182318
C25   C     C_R   0.721381 0.024073 0.941909 0.551833
C26   C     C_R   0.726277 0.562923 0.233845 -0.101812
C27   C     C_R   0.717454 0.555557 0.273786 0.285717
C28   C     C_R   0.713235 0.634184 0.298192 0.036396
C29   C     C_R   0.721163 0.715176 0.283182 -0.176737
C30   C     C_R   0.730182 0.720903 0.243980 -0.146000
C31   C     C_R   0.731909 0.645500 0.219283 -0.010193
C32   C     C_R   0.607571 0.721794 0.355002 -0.123203
C33   C     C_R   0.593340 0.609828 0.449227 0.564633
C34   C     C_R   0.575678 0.717784 0.392059 0.275586
C35   C     C_R   0.724756 0.547171 0.399051 -0.175622
C36   C     C_R   0.753419 0.550903 0.361934 -0.093666
C37   C     C_R   0.692660 0.636369 0.339227 0.012503
C38   C     C_R   0.633519 0.628126 0.413972 0.033261
C39   C     C_R   0.105707 0.728893 0.084407 0.016157
C40   C     C_R   0.160994 0.633429 0.102568 -0.130181
C41   C     C_R   0.194989 0.627539 0.140745 -0.095058
C42   C     C_R   0.174006 0.716904 0.161287 0.072989
C43   C     C_R   0.125433 0.811331 0.142510 -0.109646
C44   C     C_R   0.304816 0.590807 0.442049 0.540229
C45   C     C_R   0.092472 0.817229 0.104186 -0.127911
C46   C     C_R   0.283039 0.669502 0.221712 0.281711
C47   C     C_R   0.290487 0.663883 0.262261 0.279637
C48   C     C_R   0.201621 0.694607 0.283703 0.033418
C49   C     C_R   0.103953 0.738953 0.265364 0.104332
C50   C     C_R   0.097524 0.748745 0.225151 -0.157643
C51   C     C_R   0.185826 0.713668 0.203466 -0.038401
C52   C     C_R   0.234882 0.575932 0.337900 0.317003
C53   C     C_R   0.258000 0.551818 0.376937 -0.105893
C54   C     C_R   0.227141 0.723285 0.390763 -0.160730
C55   C     C_R   0.605994 0.299861 0.553595 0.543616
C56   C     C_R   0.205720 0.747211 0.351849 -0.188815
C57   C     C_R   0.212995 0.672782 0.325190 0.089992
C58   C     C_R   0.257136 0.624230 0.403462 -0.021958
C59   C     C_R   0.722893 0.101792 0.086456 -0.025218
C60   C     C_R   0.795682 0.118132 0.106942 -0.106186
C61   C     C_R   0.778985 0.152962 0.145071 0.273060
C62   C     C_R   0.689917 0.168392 0.163279 0.029354
C63   C     C_R   0.612921 0.162165 0.141597 -0.183620
C64   C     C_R   0.629055 0.129657 0.103402 -0.158684
C65   C     C_R   0.592342 0.256889 0.221998 -0.150580
C66   C     C_R   0.588164 0.607024 0.558852 0.539691
C67   C     C_R   0.582670 0.262761 0.261787 -0.107610
C68   C     C_R   0.661034 0.188824 0.285400 0.013311
C69   C     C_R   0.750363 0.110888 0.268656 -0.148720
C70   C     C_R   0.760635 0.106124 0.228938 -0.085603
C71   C     C_R   0.681641 0.179047 0.205354 0.045674
C72   C     C_R   0.733972 0.195467 0.349324 -0.145713
C73   C     C_R   0.723174 0.221580 0.388066 -0.133568
C74   C     C_R   0.551681 0.244935 0.385357 -0.088803
C75   C     C_R   0.562015 0.216713 0.346089 0.164666
C76   C     C_R   0.652636 0.197545 0.327647 0.037724
C77   C     C_R   0.297313 0.589764 0.551408 0.554873
C78   C     C_R   0.630350 0.251218 0.405989 -0.009103
C79   C     C_R   0.692092 0.690022 0.919252 0.020833
C80   C     C_R   0.770008 0.600584 0.901991 -0.181926
C81   C     C_R   0.761195 0.578145 0.863459 -0.141619
C82   C     C_R   0.673842 0.644148 0.841541 -0.010676
C83   C     C_R   0.591155 0.726944 0.859764 -0.100731
C84   C     C_R   0.598606 0.749170 0.898583 0.263467
C85   C     C_R   0.581800 0.653335 0.779335 -0.116116
C86   C     C_R   0.577165 0.654958 0.739345 -0.116393
C87   C     C_R   0.663251 0.636142 0.718525 0.021458
C88   C     C_R   0.735322 0.710608 0.101561 0.026243
C89   C     C_R   0.754935 0.613328 0.738210 -0.130391
C90   C     C_R   0.759372 0.612630 0.778315 -0.115019
C91   C     C_R   0.672435 0.633640 0.799246 0.038394
C92   C     C_R   0.727968 0.554203 0.654703 -0.122550
C93   C     C_R   0.710282 0.547531 0.615387 -0.131963
C94   C     C_R   0.555204 0.713416 0.618298 -0.119806
C95   C     C_R   0.572505 0.719562 0.657555 -0.123982
C96   C     C_R   0.656596 0.638147 0.676273 0.022662
C97   C     C_R   0.621253 0.625119 0.597194 0.020076
C98   C     C_R   0.051179 0.703272 0.899616 -0.010635
C99   C     C_R   0.645730 0.769180 0.123169 0.274545
C100  C     C_R   0.017546 0.787877 0.875479 -0.203334
C101  C     C_R   0.034105 0.774113 0.836444 -0.194869
C102  C     C_R   0.085259 0.675602 0.820553 -0.012064
C103  C     C_R   0.120832 0.588832 0.844197 0.291234
C104  C     C_R   0.104405 0.602932 0.884089 0.293381
C105  C     C_R   0.205686 0.615824 0.766798 -0.096075
C106  C     C_R   0.224290 0.613473 0.727902 -0.082735
C107  C     C_R   0.141985 0.661281 0.701431 0.049271
C108  C     C_R   0.040786 0.708993 0.713876 -0.134946
C109  C     C_R   0.022137 0.712060 0.752897 -0.137495
C110  C     C_R   0.643662 0.741640 0.161015 -0.093287
C111  C     C_R   0.104660 0.666038 0.779428 0.041060
C112  C     C_R   0.222740 0.704123 0.649524 0.265773
C113  C     C_R   0.259799 0.686004 0.612429 -0.142591
C114  C     C_R   0.167555 0.594629 0.596368 0.127395
C115  C     C_R   0.132030 0.611446 0.633961 -0.160616
C116  C     C_R   0.163275 0.661649 0.660860 0.004492
C117  C     C_R   0.236696 0.627518 0.586246 -0.001708
C118  C     C_R   0.675693 0.072169 0.904520 -0.006583
C119  C     C_R   0.616641 0.038651 0.883324 -0.178410
C120  C     C_R   0.593463 0.062331 0.844556 -0.199515
Cr1   Cr    Cr6+3 0.426010 0.422500 0.497000 1.019829
Cr2   Cr    Cr6+3 0.651300 0.426310 0.501970 1.005502
Cr3   Cr    Cr6+3 0.422670 0.651170 0.501050 1.025644
Cr4   Cr    Cr6+3 0.905130 0.911420 0.992650 1.017479
Cr5   Cr    Cr6+3 0.911860 0.682710 0.002320 1.009197
Cr6   Cr    Cr6+3 0.682710 0.906840 0.004710 1.048148
H1    H     H_    0.883821 0.534554 0.169290 0.117054
H2    H     H_    0.771334 0.477731 0.415201 0.133830
H3    H     H_    0.172038 0.564221 0.088111 0.125877
H4    H     H_    0.049328 0.892042 0.091149 0.133528
H5    H     H_    0.187392 0.822474 0.342278 0.096470
H6    H     H_    0.230764 0.554304 0.155058 0.103567
H7    H     H_    0.888796 0.577620 0.102453 0.137038
H8    H     H_    0.024101 0.781525 0.210004 0.128482
H9    H     H_    0.283012 0.474373 0.385908 0.124047
H10   H     H_    0.107636 0.881109 0.158196 0.126289
H11   H     H_    0.225627 0.780567 0.410601 0.125299
H12   H     H_    0.868261 0.098161 0.094330 0.138599
H13   H     H_    0.570962 0.119411 0.088004 0.127379
H14   H     H_    0.514329 0.325394 0.274155 0.174635
H15   H     H_    0.530475 0.312946 0.204129 0.089006
H16   H     H_    0.820948 0.485408 0.350374 0.133688
H17   H     H_    0.811899 0.053531 0.286353 0.105107
H18   H     H_    0.829324 0.044140 0.216511 0.136169
H19   H     H_    0.804108 0.179790 0.335706 0.102937
H20   H     H_    0.785448 0.224916 0.403318 0.134027
H21   H     H_    0.543396 0.175119 0.154971 0.110392
H22   H     H_    0.481248 0.266050 0.399768 0.122819
H23   H     H_    0.841221 0.551742 0.917428 0.123821
H24   H     H_    0.517561 0.785790 0.673700 0.107920
H25   H     H_    0.506312 0.670483 0.724590 0.132007
H26   H     H_    0.514196 0.668426 0.794712 0.103179
H27   H     H_    0.824929 0.512101 0.850293 0.109994
H28   H     H_    0.822070 0.598673 0.722587 0.096537
H29   H     H_    0.829707 0.599119 0.792934 0.094035
H30   H     H_    0.793466 0.490700 0.668695 0.103652
H31   H     H_    0.762744 0.478731 0.599857 0.120715
H32   H     H_    0.522819 0.778931 0.843414 0.116240
H33   H     H_    0.486352 0.774882 0.605103 0.130768
H34   H     H_    0.974915 0.865612 0.886528 0.156121
H35   H     H_    0.723664 0.508253 0.213720 0.092300
H36   H     H_    0.084000 0.581154 0.642743 0.106460
H37   H     H_    0.302823 0.575370 0.718408 0.127627
H38   H     H_    0.269791 0.580862 0.787115 0.123403
H39   H     H_    0.007177 0.840882 0.818478 0.127951
H40   H     H_    0.976839 0.745724 0.693563 0.122887
H41   H     H_    0.943706 0.750948 0.762516 0.107015
H42   H     H_    0.312465 0.712034 0.605119 0.147185
H43   H     H_    0.575640 0.786503 0.177772 0.123459
H44   H     H_    0.593359 0.988887 0.896142 0.181638
H45   H     H_    0.755910 0.200684 0.674620 0.107371
H46   H     H_    0.540773 0.318909 0.716577 0.110502
H47   H     H_    0.550269 0.033148 0.828530 0.128061
H48   H     H_    0.693948 0.972426 0.772504 0.103575
H49   H     H_    0.503187 0.152148 0.644359 0.111222
H50   H     H_    0.717674 0.775461 0.301847 0.111423
H51   H     H_    0.497445 0.213147 0.579225 0.125142
H52   H     H_    0.751910 0.260656 0.609587 0.125075
H53   H     H_    0.733096 0.785725 0.232662 0.111369
H54   H     H_    0.563045 0.789502 0.337738 0.099686
O1    O     O_R   0.324990 0.503440 0.453910 -0.524864
O2    O     O_R   0.639980 0.519500 0.542640 -0.503695
O3    O     O_R   0.500750 0.673190 0.545480 -0.520585
O4    O     O_R   0.336260 0.640450 0.538210 -0.519124
O5    O     O_3   0.499990 0.499990 0.500010 -0.240486
O6    O     O_R   0.834210 0.019400 0.034570 -0.522137
O7    O     O_R   0.002210 0.824620 0.031030 -0.500882
O8    O     O_R   0.024400 0.669340 0.039790 -0.514334
O9    O     O_R   0.830490 0.694950 0.045870 -0.517394
O10   O     O_R   0.675430 0.831160 0.051290 -0.461490
O11   O     O_R   0.698870 0.998880 0.039560 -0.502128
O12   O     O_R   0.522030 0.339050 0.458320 -0.505023
O13   O     O_R   0.811290 0.006780 0.950620 -0.485282
O14   O     O_R   0.980960 0.812920 0.953200 -0.511719
O15   O     O_R   0.001480 0.656720 0.955830 -0.481489
O16   O     O_R   0.809240 0.683250 0.968050 -0.521168
O17   O     O_R   0.652500 0.818540 0.967340 -0.458102
O18   O     O_R   0.677620 0.987170 0.961730 -0.503304
O19   O     O_3   0.833240 0.833660 0.999890 -0.251534
O20   O     O_R   0.676180 0.324490 0.458320 -0.516811
O21   O     O_R   0.643570 0.521510 0.464260 -0.517648
O22   O     O_R   0.504630 0.675350 0.460920 -0.457785
O23   O     O_R   0.339850 0.642450 0.459830 -0.498290
O24   O     O_R   0.321120 0.501280 0.538470 -0.473046
O25   O     O_R   0.518440 0.337050 0.536710 -0.499489
O26   O     O_R   0.672300 0.322330 0.542880 -0.519513
O27   O     O_3   0.559446 0.851466 0.106983 -0.539392
C121  C     C_3   0.545350 0.943235 0.124357 -0.103581
H55   H     H_    0.617294 0.947435 0.124987 0.121450
H56   H     H_    0.515668 0.952614 0.153839 0.097520
H57   H     H_    0.487144 0.008673 0.107148 0.138578
O28   O     O_3   0.490053 0.801299 0.407409 -0.545427
C122  C     C_3   0.401774 0.822332 0.385010 -0.112417
H58   H     H_    0.399400 0.751370 0.377071 0.131818
H59   H     H_    0.396285 0.865591 0.358853 0.091857
H60   H     H_    0.333057 0.871530 0.402181 0.136673
O29   O     O_3   0.385215 0.620978 0.281039 -0.549767
C123  C     C_3   0.415021 0.695911 0.285043 -0.104545
H61   H     H_    0.356255 0.765823 0.300119 0.073880
H62   H     H_    0.431418 0.716288 0.256717 0.157335
H63   H     H_    0.486808 0.663761 0.302752 0.171067
O30   O     O_3   0.368845 0.638950 0.199737 -0.561010
C124  C     C_3   0.430167 0.531179 0.200208 -0.094942
H64   H     H_    0.384007 0.491953 0.197485 0.094255
H65   H     H_    0.479990 0.505523 0.226507 0.179440
H66   H     H_    0.481507 0.506524 0.175289 0.127253
N1    N     N_2   0.014808 0.770060 0.287832 -0.521898
H67   H     H_    0.013196 0.805984 0.313619 0.248567
C125  C     C_3   0.915454 0.805580 0.269209 -0.317391
H68   H     H_    0.857799 0.820215 0.291172 0.138082
H69   H     H_    0.918351 0.746109 0.248923 0.161052
H70   H     H_    0.891114 0.878067 0.253832 0.131933
O31   O     O_3   0.245536 0.501336 0.311456 -0.554440
C126  C     C_3   0.161074 0.485670 0.314153 -0.136096
H71   H     H_    0.087135 0.557910 0.309076 0.144964
H72   H     H_    0.161155 0.452696 0.342375 0.092123
H73   H     H_    0.167042 0.429804 0.291553 0.139038
N2    N     N_2   0.482735 0.209613 0.324491 -0.510754
H74   H     H_    0.508184 0.155787 0.302583 0.250323
C127  C     C_3   0.394278 0.219649 0.343703 -0.303332
H75   H     H_    0.342223 0.211449 0.322334 0.135974
H76   H     H_    0.350520 0.296767 0.357139 0.163447
H77   H     H_    0.418725 0.158973 0.365618 0.136976
O32   O     O_3   0.854782 0.161822 0.165368 -0.581674
C128  C     C_3   0.829509 0.265404 0.164916 -0.130156
H78   H     H_    0.754087 0.316367 0.178223 0.105083
H79   H     H_    0.829438 0.290550 0.135130 0.119209
H80   H     H_    0.888566 0.273677 0.182052 0.132387
O33   O     O_3   0.518835 0.836620 0.914364 -0.558952
C129  C     C_3   0.450387 0.810068 0.930190 -0.108036
H81   H     H_    0.488616 0.752343 0.953316 0.123326
H82   H     H_    0.416391 0.781399 0.907629 0.105493
H83   H     H_    0.386574 0.879713 0.943307 0.145931
O34   O     O_3   0.700407 0.481495 0.289804 -0.565237
C130  C     C_3   0.748318 0.387135 0.269669 -0.118746
H84   H     H_    0.827401 0.365003 0.261011 0.094371
H85   H     H_    0.699945 0.389311 0.244488 0.123388
H86   H     H_    0.755136 0.326572 0.288955 0.156802
O35   O     O_3   0.145972 0.519731 0.908514 -0.533973
C131  C     C_3   0.091642 0.465833 0.904172 -0.068918
H87   H     H_    0.131218 0.400941 0.883709 0.145895
H88   H     H_    0.009641 0.514892 0.895025 0.083953
H89   H     H_    0.092258 0.432756 0.932335 0.132132
O36   O     O_3   0.254491 0.753592 0.675786 -0.574610
C132  C     C_3   0.181489 0.858945 0.675218 -0.127185
H90   H     H_    0.104759 0.873361 0.683865 0.128250
H91   H     H_    0.175991 0.892192 0.646455 0.109077
H92   H     H_    0.206464 0.899104 0.696299 0.133860
O37   O     O_3   0.176513 0.490292 0.829376 -0.575975
C133  C     C_3   0.110454 0.465412 0.807750 -0.150448
H93   H     H_    0.101442 0.491937 0.777719 0.134421
H94   H     H_    0.033601 0.496160 0.820678 0.084652
H95   H     H_    0.146214 0.380776 0.806555 0.128293
N3    N     N_2   0.137876 0.540209 0.569701 -0.489039
H96   H     H_    0.114220 0.494426 0.582262 0.240172
C134  C     C_3   0.067685 0.602599 0.539427 -0.289947
H97   H     H_    0.993896 0.661641 0.551786 0.134186
H98   H     H_    0.052332 0.553365 0.519173 0.138328
H99   H     H_    0.101078 0.640723 0.523019 0.154859
N4    N     N_2   0.756996 0.179505 0.909043 -0.492643
H100  H     H_    0.803101 0.197682 0.893760 0.272023
C135  C     C_3   0.691828 0.261174 0.935039 -0.282710
H101  H     H_    0.738825 0.286548 0.952244 0.137115
H102  H     H_    0.654622 0.234466 0.955182 0.151400
H103  H     H_    0.631872 0.327445 0.918528 0.155811
N5    N     N_2   0.519269 0.322371 0.792015 -0.478592
H104  H     H_    0.517653 0.385869 0.780744 0.248024
C136  C     C_3   0.420519 0.345756 0.806156 -0.275842
H105  H     H_    0.392067 0.412668 0.826059 0.180086
H106  H     H_    0.426682 0.280076 0.822185 0.168906
H107  H     H_    0.364296 0.364773 0.781835 0.146176
O38   O     O_3   0.705996 0.974231 0.694601 -0.563661
C137  C     C_3   0.687971 0.894032 0.704112 -0.127362
H108  H     H_    0.607148 0.922682 0.712416 0.109413
H109  H     H_    0.742723 0.845764 0.727084 0.113412
H110  H     H_    0.702149 0.844040 0.678415 0.148777
O39   O     O_3   0.723309 0.211763 0.829276 -0.549771
C138  C     C_3   0.820110 0.143174 0.814011 -0.140315
H111  H     H_    0.875459 0.092613 0.836512 0.097761
H112  H     H_    0.852103 0.188392 0.801875 0.139242
H113  H     H_    0.813552 0.095815 0.790281 0.122940

loop_
_geom_bond_atom_site_label_1
_geom_bond_atom_site_label_2
_ccdc_geom_bond_type
C24   H7    S    
C8    C9    A    
C15   C18   A    
Cr4   O6    S    
C40   H3    S    
C130  H85   S    
C128  H79   S    
C10   H48   S    
C101  C102  A    
C22   C98   S    
C137  H109  S    
C15   H52   S    
C137  H108  S    
C83   H32   S    
O39   C138  S    
C14   C18   A    
C45   H4    S    
C95   C96   A    
C53   H9    S    
Cr1   O25   S    
C72   C76   A    
C25   C118  S    
O37   C133  S    
Cr1   O12   S    
C114  C115  A    
C85   C91   A    
C124  H66   S    
C7    C8    A    
C85   C86   A    
C56   C57   A    
C47   O29   S    
Cr4   O19   S    
C59   C64   A    
C62   C63   A    
C138  H112  S    
C123  H63   S    
Cr5   O8    S    
C124  H65   S    
C103  O37   S    
Cr2   O21   S    
C74   H22   S    
C36   C37   A    
C6    N5    S    
N4    C135  S    
C21   C59   S    
C125  H70   S    
C77   C117  S    
C69   C70   A    
C109  C111  A    
C20   O10   A    
C79   C84   A    
C80   C81   A    
C98   C104  A    
C21   O11   A    
C54   H11   S    
C106  C107  A    
Cr5   O15   S    
C129  H82   S    
C115  C116  A    
C33   O22   A    
C92   C96   A    
C77   O4    A    
C81   H27   S    
C108  C109  A    
C3    C4    A    
N3    H96   S    
C41   C42   A    
Cr6   O10   S    
C2    C13   A    
Cr2   O26   S    
C118  C119  A    
C127  H75   S    
Cr3   O3    S    
C25   O18   A    
C109  H41   S    
C19   O7    A    
C72   H19   S    
C46   C47   A    
C2    C110  A    
C35   C36   A    
C42   C43   A    
C44   C58   S    
O36   C132  S    
C65   C67   A    
Cr4   O13   S    
C44   O23   A    
C107  C108  A    
C70   C71   A    
C49   N1    S    
C132  H90   S    
C66   C97   S    
C79   C80   A    
C42   C51   S    
C39   C45   A    
Cr6   O18   S    
C61   O32   S    
C66   O2    A    
C130  H86   S    
C59   C60   A    
C7    H46   S    
C1    C78   S    
C133  H95   S    
C102  C111  S    
C61   C62   A    
C5    N4    S    
C126  H72   S    
C113  H42   S    
C131  H89   S    
C9    C10   A    
C63   H21   S    
C112  C113  A    
C132  H92   S    
C125  H68   S    
C52   O31   S    
C81   C82   A    
N2    C127  S    
C122  H59   S    
O32   C128  S    
C80   H23   S    
C55   O25   A    
C54   C56   A    
C74   C75   A    
C90   H29   S    
C39   C40   A    
C67   C68   A    
C114  C117  A    
C136  H107  S    
C48   C57   S    
C35   C38   A    
C36   H16   S    
N4    H100  S    
Cr6   O11   S    
C124  H64   S    
C131  H88   S    
C50   H8    S    
C121  H55   S    
C6    C11   A    
C132  H91   S    
C135  H101  S    
C86   C87   A    
C68   C69   A    
Cr2   O5    S    
C119  H44   S    
C94   C97   A    
O29   C123  S    
C122  H58   S    
C99   C110  A    
C46   C51   A    
C94   H33   S    
C82   C91   S    
O27   C121  S    
C13   C24   A    
C99   O27   S    
C2    C31   S    
C126  H73   S    
C32   C34   A    
C23   O16   A    
C93   H31   S    
C75   C76   A    
C131  H87   S    
C29   C30   A    
C19   O8    A    
C41   H6    S    
C129  H83   S    
C65   H15   S    
C100  H34   S    
C123  H62   S    
N1    H67   S    
C134  H99   S    
Cr2   O2    S    
C30   C31   A    
C73   C78   A    
C87   C96   S    
C127  H76   S    
C50   C51   A    
O33   C129  S    
C105  H38   S    
C108  H40   S    
C94   C95   A    
C92   H30   S    
C95   H24   S    
C32   C37   A    
C134  H97   S    
C119  C120  A    
C101  H39   S    
C67   H14   S    
C43   C45   A    
C19   C39   S    
C18   C55   S    
C112  O36   S    
C12   H49   S    
C130  H84   S    
C35   H2    S    
Cr6   O17   S    
C46   O30   S    
C40   C41   A    
N1    C125  S    
C106  H37   S    
C12   C14   A    
C49   C50   A    
C22   O14   A    
C98   C100  A    
C10   C11   A    
C87   C89   A    
C26   C27   A    
C54   C58   A    
C133  H94   S    
C22   O15   A    
C83   C84   A    
C1    O20   A    
C68   C76   S    
C126  H71   S    
C29   H50   S    
C90   C91   A    
O35   C131  S    
C77   O24   A    
C93   C97   A    
C73   H20   S    
C20   O9    A    
C25   O13   A    
N5    H104  S    
C114  N3    S    
Cr3   O4    S    
Cr1   O1    S    
O31   C126  S    
C113  C117  A    
C3    C120  A    
C55   O26   A    
C122  H60   S    
N2    H74   S    
C28   C29   A    
Cr3   O22   S    
C84   O33   S    
C34   C38   A    
C135  H102  S    
C24   C88   A    
Cr6   O19   S    
C32   H54   S    
C33   C38   S    
Cr1   O24   S    
C134  H98   S    
C72   C73   A    
C47   C48   A    
O38   C137  S    
Cr4   O7    S    
C89   H28   S    
C53   C58   A    
C112  C116  A    
C138  H111  S    
C6    C7    A    
C137  H110  S    
C43   H10   S    
C21   O6    A    
C105  C106  A    
C23   O17   A    
C26   H35   S    
C70   H18   S    
C8    C17   S    
Cr5   O16   S    
Cr3   O23   S    
C5    C118  A    
C14   H51   S    
C23   C79   S    
C69   H17   S    
O34   C130  S    
C52   C53   A    
C66   O3    A    
C129  H81   S    
C85   H26   S    
C125  H69   S    
C65   C71   A    
C86   H25   S    
C136  H105  S    
C12   C17   A    
N5    C136  S    
C16   H45   S    
Cr3   O5    S    
C123  H61   S    
C16   C17   A    
C30   H53   S    
C110  H43   S    
C28   C37   S    
C115  H36   S    
C121  H57   S    
C48   C49   A    
C4    C5    A    
C20   C88   S    
O30   C124  S    
C33   O21   A    
C100  C101  A    
C62   C71   S    
N3    C134  S    
C127  H77   S    
C92   C93   A    
C105  C111  A    
C102  C103  A    
C34   O28   S    
C27   O34   S    
C107  C116  S    
C88   C99   A    
C3    C11   S    
C52   C57   A    
C4    O39   S    
Cr1   O5    S    
C63   C64   A    
C13   H1    S    
C1    O12   A    
C120  H47   S    
C26   C31   A    
O28   C122  S    
Cr5   O19   S    
C135  H103  S    
C121  H56   S    
C82   C83   A    
C74   C78   A    
C128  H80   S    
Cr4   O14   S    
C103  C104  A    
C133  H93   S    
C60   C61   A    
C75   N2    S    
Cr5   O9    S    
C9    O38   S    
Cr2   O20   S    
C89   C90   A    
C128  H78   S    
C44   O1    A    
C104  O35   S    
C56   H5    S    
C15   C16   A    
C138  H113  S    
C136  H106  S    
C27   C28   A    
C64   H13   S    
C60   H12   S    
