data_mof_unit_65303.cif
_audit_creation_date              2012-12-10T18:04:10-0500
_audit_creation_method            fapswitch 2.2
_symmetry_space_group_name_H-M    P1
_symmetry_Int_Tables_number       1
_space_group_crystal_system       triclinic
_cell_length_a                    18.364146
_cell_length_b                    30.694553
_cell_length_c                    30.807876
_cell_angle_alpha                 89.992183
_cell_angle_beta                  90.275283
_cell_angle_gamma                 90.024624
_cell_volume                      17365.558324

loop_
_atom_site_label
_atom_site_type_symbol
_atom_type_description
_atom_site_fract_x
_atom_site_fract_y
_atom_site_fract_z
_atom_type_partial_charge
C1    C     C_R   0.500467 0.690515 0.309275 0.794294
C2    C     C_R   0.499524 0.690511 0.690719 0.794328
C3    C     C_R   0.000477 0.190514 0.309278 0.794023
C4    C     C_R   0.999535 0.190512 0.690721 0.794527
C5    C     C_R   0.000476 0.690515 0.809277 0.794657
C6    C     C_R   0.999527 0.690511 0.190720 0.794450
C7    C     C_R   0.499909 0.190642 0.809208 0.797727
C8    C     C_R   0.499502 0.190501 0.190715 0.794866
C9    C     C_R   0.444333 0.623268 0.404535 0.140406
C10   C     C_R   0.555197 0.623625 0.595109 0.138909
C11   C     C_R   0.944677 0.123493 0.404782 0.138645
C12   C     C_R   0.055483 0.123440 0.595311 0.139710
C13   C     C_R   0.944498 0.623375 0.904653 0.138765
C14   C     C_R   0.055290 0.623566 0.095173 0.138951
C15   C     C_R   0.549540 0.125571 0.906295 0.127156
C16   C     C_R   0.553919 0.124413 0.094262 0.143397
C17   C     C_3   0.420758 0.654246 0.439097 -0.484833
C18   C     C_3   0.577590 0.654758 0.560387 -0.485001
C19   C     C_3   0.921933 0.154568 0.439455 -0.484625
C20   C     C_3   0.078537 0.154499 0.560677 -0.485161
C21   C     C_3   0.921339 0.654400 0.939273 -0.484797
C22   C     C_3   0.077886 0.654676 0.060478 -0.484724
C23   C     C_3   0.613271 0.144624 0.929573 -0.472119
C24   C     C_3   0.573339 0.155887 0.059216 -0.502954
C25   C     C_3   0.422133 0.689815 0.404782 -0.460544
C26   C     C_3   0.576156 0.690322 0.594692 -0.458128
C27   C     C_3   0.923350 0.190138 0.405147 -0.458424
C28   C     C_3   0.077128 0.190064 0.594983 -0.458752
C29   C     C_3   0.922748 0.689972 0.904967 -0.458651
C30   C     C_3   0.076456 0.690241 0.094781 -0.458002
C31   C     C_3   0.612181 0.180543 0.894599 -0.477127
C32   C     C_3   0.571982 0.191411 0.093548 -0.451564
C33   C     C_R   0.443188 0.867333 0.149192 0.074150
C34   C     C_R   0.555834 0.849847 0.868226 0.075659
C35   C     C_R   0.057369 0.347473 0.130597 0.082347
C36   C     C_R   0.942052 0.366356 0.851414 0.073078
C37   C     C_R   0.942486 0.866522 0.648411 0.073267
C38   C     C_R   0.942225 0.867035 0.350842 0.077257
C39   C     C_R   0.556957 0.347154 0.630274 0.082963
C40   C     C_R   0.556152 0.368499 0.349803 0.080485
C41   C     C_R   0.504045 0.842213 0.157866 -0.093405
C42   C     C_R   0.495872 0.842521 0.841880 -0.095282
C43   C     C_R   0.996817 0.341980 0.157126 -0.091394
C44   C     C_R   0.003609 0.342200 0.842131 -0.092351
C45   C     C_R   0.003922 0.842224 0.657915 -0.092817
C46   C     C_R   0.003285 0.842226 0.342095 -0.103967
C47   C     C_R   0.496725 0.341992 0.657128 -0.091783
C48   C     C_R   0.496221 0.342257 0.342095 -0.106287
C49   C     C_R   0.567440 0.849610 0.132620 0.131845
C50   C     C_R   0.433551 0.869274 0.847961 0.132720
C51   C     C_R   0.932220 0.365343 0.147759 0.132993
C52   C     C_R   0.067689 0.350497 0.866797 0.130796
C53   C     C_R   0.068009 0.850499 0.633595 0.131033
C54   C     C_R   0.066958 0.849847 0.367344 0.127220
C55   C     C_R   0.432381 0.365762 0.648148 0.132698
C56   C     C_R   0.433642 0.348536 0.368332 0.126498
C57   C     C_R   0.565654 0.882079 0.099984 -0.238745
C58   C     C_R   0.435372 0.901806 0.880543 -0.239283
C59   C     C_R   0.933726 0.397322 0.115102 -0.236025
C60   C     C_R   0.065905 0.382903 0.899464 -0.238373
C61   C     C_R   0.066289 0.882964 0.600953 -0.237800
C62   C     C_R   0.065282 0.882210 0.400057 -0.233118
C63   C     C_R   0.433917 0.397750 0.615498 -0.237110
C64   C     C_R   0.435290 0.381015 0.400964 -0.229954
C65   C     C_R   0.501805 0.906640 0.092125 -0.136773
C66   C     C_R   0.498254 0.908153 0.906427 -0.135389
C67   C     C_R   0.998358 0.406237 0.092281 -0.134522
C68   C     C_R   0.001409 0.406565 0.907913 -0.138322
C69   C     C_R   0.001849 0.906693 0.592216 -0.137459
C70   C     C_R   0.001294 0.906542 0.407944 -0.139823
C71   C     C_R   0.498336 0.406293 0.592328 -0.134677
C72   C     C_R   0.498253 0.406669 0.407865 -0.139806
C73   C     C_R   0.441746 0.897637 0.117601 0.129897
C74   C     C_R   0.557412 0.881418 0.898548 0.130612
C75   C     C_R   0.058468 0.379329 0.099039 0.123220
C76   C     C_R   0.940667 0.396655 0.883011 0.130099
C77   C     C_R   0.941167 0.896874 0.616865 0.130149
C78   C     C_R   0.940916 0.897297 0.382476 0.130124
C79   C     C_R   0.558102 0.379034 0.598739 0.124137
C80   C     C_R   0.557550 0.398763 0.381431 0.130161
C81   C     C_3   0.364794 0.910081 0.126306 -0.437073
C82   C     C_3   0.632949 0.870756 0.912798 -0.440778
C83   C     C_3   0.136106 0.390604 0.108276 -0.429367
C84   C     C_3   0.862880 0.407951 0.874980 -0.434120
C85   C     C_3   0.863409 0.908228 0.624479 -0.435932
C86   C     C_3   0.863654 0.909382 0.373797 -0.435176
C87   C     C_3   0.636054 0.389848 0.607572 -0.429375
C88   C     C_3   0.633544 0.412469 0.371654 -0.440973
C89   C     C_R   0.360266 0.749937 0.249963 0.841683
C90   C     C_R   0.360262 0.749997 0.749932 0.840090
C91   C     C_R   0.639731 0.750019 0.250055 0.840104
C92   C     C_R   0.639734 0.749946 0.750035 0.842582
C93   C     C_R   0.860270 0.249886 0.250015 0.843806
C94   C     C_R   0.860265 0.250097 0.750034 0.839569
C95   C     C_R   0.139734 0.250092 0.249989 0.838752
C96   C     C_R   0.139736 0.249884 0.749980 0.843573
C97   C     C_R   0.860268 0.749942 0.749956 0.842039
C98   C     C_R   0.860262 0.750090 0.250030 0.839030
C99   C     C_R   0.139735 0.750026 0.750040 0.841023
C100  C     C_R   0.139733 0.749902 0.249994 0.831164
C101  C     C_R   0.360266 0.249882 0.750016 0.841498
C102  C     C_R   0.360266 0.250045 0.249984 0.827601
C103  C     C_R   0.639731 0.250088 0.749993 0.839754
C104  C     C_R   0.639739 0.249944 0.250033 0.842108
C105  C     C_3   0.366373 0.875132 0.162225 -0.487029
C106  C     C_3   0.631267 0.834868 0.877820 -0.485735
C107  C     C_3   0.134967 0.355378 0.142925 -0.498578
C108  C     C_3   0.864428 0.373026 0.839053 -0.488409
C109  C     C_3   0.864892 0.873245 0.660365 -0.487808
C110  C     C_3   0.865089 0.874486 0.337840 -0.486522
C111  C     C_3   0.634864 0.354594 0.642191 -0.499254
C112  C     C_3   0.632065 0.377551 0.335713 -0.486608
C113  C     C_R   0.499748 0.940737 0.940324 0.817766
C114  C     C_R   0.500247 0.940352 0.059310 0.819133
C115  C     C_R   0.000068 0.440325 0.940703 0.820877
C116  C     C_R   0.999911 0.440652 0.059797 0.813897
C117  C     C_R   0.000056 0.940306 0.440725 0.817942
C118  C     C_R   0.000255 0.940361 0.559332 0.818980
C119  C     C_R   0.499746 0.440350 0.440698 0.820719
C120  C     C_R   0.499910 0.440667 0.559808 0.813998
C121  C     C_R   0.499821 0.559487 0.440509 0.798522
C122  C     C_R   0.500197 0.559488 0.559484 0.796885
C123  C     C_R   0.999820 0.059486 0.440512 0.798576
C124  C     C_R   0.000197 0.059486 0.559489 0.798859
C125  C     C_R   0.999820 0.559485 0.940509 0.798850
C126  C     C_R   0.000197 0.559488 0.059485 0.796994
C127  C     C_R   0.499854 0.059317 0.940502 0.803428
C128  C     C_R   0.500202 0.059473 0.059485 0.800218
C129  C     C_R   0.500768 0.809230 0.190838 0.809155
C130  C     C_R   0.499017 0.809264 0.809144 0.809665
C131  C     C_R   0.999753 0.309269 0.190723 0.805610
C132  C     C_R   0.000459 0.309227 0.809159 0.809548
C133  C     C_R   0.000644 0.809228 0.690848 0.809342
C134  C     C_R   0.999889 0.809233 0.309155 0.799577
C135  C     C_R   0.499694 0.309272 0.690722 0.805697
C136  C     C_R   0.499794 0.309242 0.309164 0.798581
C137  C     C_1   0.282666 0.749809 0.249965 -0.182006
C138  C     C_1   0.282665 0.750121 0.749936 -0.185567
C139  C     C_1   0.717325 0.750161 0.250082 -0.180135
C140  C     C_1   0.717332 0.749820 0.750020 -0.183029
C141  C     C_1   0.782676 0.249772 0.250004 -0.180682
C142  C     C_1   0.782667 0.250233 0.750024 -0.182854
C143  C     C_1   0.217334 0.250226 0.250031 -0.181010
C144  C     C_1   0.217332 0.249750 0.749995 -0.185183
C145  C     C_1   0.782671 0.749816 0.749952 -0.182911
C146  C     C_1   0.782663 0.750202 0.250035 -0.187238
C147  C     C_1   0.217330 0.750138 0.750033 -0.184647
C148  C     C_1   0.217328 0.749802 0.250016 -0.182105
C149  C     C_1   0.282668 0.249747 0.749995 -0.184741
C150  C     C_1   0.282671 0.250208 0.250006 -0.181829
C151  C     C_1   0.717328 0.250231 0.750033 -0.183541
C152  C     C_1   0.717339 0.249807 0.250036 -0.187279
C153  C     C_R   0.445390 0.655616 0.373364 0.104939
C154  C     C_R   0.554101 0.655972 0.626280 0.104746
C155  C     C_R   0.945756 0.155843 0.373609 0.104898
C156  C     C_R   0.054401 0.155787 0.626479 0.104361
C157  C     C_R   0.945572 0.655727 0.873483 0.104168
C158  C     C_R   0.054197 0.655914 0.126343 0.104975
C159  C     C_R   0.548257 0.157224 0.875930 0.121668
C160  C     C_R   0.552818 0.156737 0.125463 0.106628
C161  C     C_R   0.499563 0.656509 0.341831 -0.075354
C162  C     C_R   0.500470 0.656505 0.658153 -0.076215
C163  C     C_R   0.999557 0.156510 0.341842 -0.076105
C164  C     C_R   0.000466 0.156503 0.658164 -0.076208
C165  C     C_R   0.999566 0.656512 0.841837 -0.075651
C166  C     C_R   0.000468 0.656505 0.158156 -0.076128
C167  C     C_R   0.498531 0.157296 0.842009 -0.081291
C168  C     C_R   0.500561 0.156471 0.158149 -0.078739
C169  C     C_R   0.548514 0.621409 0.339280 -0.205366
C170  C     C_R   0.452121 0.621100 0.660971 -0.205621
C171  C     C_R   0.048110 0.121225 0.339112 -0.205931
C172  C     C_R   0.951792 0.121247 0.660839 -0.204985
C173  C     C_R   0.048332 0.621326 0.839203 -0.205402
C174  C     C_R   0.952013 0.621149 0.160928 -0.205847
C175  C     C_R   0.446967 0.123248 0.840510 -0.208899
C176  C     C_R   0.453784 0.120364 0.161644 -0.203799
C177  C     C_R   0.548909 0.589336 0.371651 -0.210406
C178  C     C_R   0.451715 0.589038 0.628596 -0.211138
C179  C     C_R   0.048519 0.089160 0.371490 -0.210184
C180  C     C_R   0.951398 0.089179 0.628469 -0.209522
C181  C     C_R   0.048733 0.589258 0.871577 -0.209557
C182  C     C_R   0.951610 0.589086 0.128554 -0.211114
C183  C     C_R   0.446466 0.091080 0.873221 -0.207531
C184  C     C_R   0.453330 0.088312 0.129259 -0.210225
C185  C     C_R   0.498620 0.591450 0.405833 -0.087924
C186  C     C_R   0.501430 0.591462 0.594138 -0.087625
C187  C     C_R   0.998615 0.091462 0.405855 -0.089027
C188  C     C_R   0.001429 0.091449 0.594161 -0.087911
C189  C     C_R   0.998618 0.591455 0.905842 -0.089192
C190  C     C_R   0.001430 0.591458 0.094146 -0.087726
C191  C     C_R   0.499121 0.091946 0.906791 -0.094290
C192  C     C_R   0.501478 0.091475 0.094089 -0.084828
Cu1   Cu    Cu3+1 0.500000 0.780890 0.280900 0.943722
Cu2   Cu    Cu3+1 0.500000 0.780890 0.719100 0.940853
Cu3   Cu    Cu3+1 1.000000 0.280890 0.280900 0.940530
Cu4   Cu    Cu3+1 1.000000 0.280890 0.719100 0.942893
Cu5   Cu    Cu3+1 1.000000 0.780890 0.780900 0.942947
Cu6   Cu    Cu3+1 1.000000 0.780890 0.219100 0.944480
Cu7   Cu    Cu3+1 0.500000 0.280890 0.780900 0.942631
Cu8   Cu    Cu3+1 0.500000 0.280890 0.219100 0.944527
Cu9   Cu    Cu3+1 0.500000 0.719080 0.219090 0.949115
Cu10  Cu    Cu3+1 0.500000 0.719080 0.780910 0.951232
Cu11  Cu    Cu3+1 1.000000 0.219080 0.219090 0.953708
Cu12  Cu    Cu3+1 1.000000 0.219080 0.780910 0.949700
Cu13  Cu    Cu3+1 1.000000 0.719080 0.719090 0.949421
Cu14  Cu    Cu3+1 0.000000 0.719080 0.280910 0.951828
Cu15  Cu    Cu3+1 0.500000 0.219080 0.719090 0.952775
Cu16  Cu    Cu3+1 0.500000 0.219080 0.280910 0.951648
Cu17  Cu    Cu3+1 0.427490 0.999980 0.000000 0.940343
Cu18  Cu    Cu3+1 0.572510 0.999980 0.000000 0.940151
Cu19  Cu    Cu3+1 0.927490 0.499980 0.000000 0.939266
Cu20  Cu    Cu3+1 0.072510 0.499980 0.000000 0.939665
Cu21  Cu    Cu3+1 0.927490 0.999980 0.500000 0.939187
Cu22  Cu    Cu3+1 0.072510 0.999980 0.500000 0.940036
Cu23  Cu    Cu3+1 0.427490 0.499980 0.500000 0.940648
Cu24  Cu    Cu3+1 0.572510 0.499980 0.500000 0.938628
H1    H     H_    0.588505 0.619985 0.313582 0.150955
H2    H     H_    0.412559 0.619418 0.686890 0.151669
H3    H     H_    0.087811 0.119646 0.313264 0.151902
H4    H     H_    0.911992 0.119693 0.686635 0.151996
H5    H     H_    0.088190 0.619831 0.813436 0.151788
H6    H     H_    0.912373 0.619508 0.186807 0.151348
H7    H     H_    0.406824 0.121900 0.814668 0.152821
H8    H     H_    0.415371 0.118097 0.188128 0.152744
H9    H     H_    0.589058 0.563524 0.370449 0.153293
H10   H     H_    0.411992 0.562984 0.630016 0.154443
H11   H     H_    0.088387 0.063203 0.370144 0.156660
H12   H     H_    0.911440 0.063245 0.629771 0.154069
H13   H     H_    0.088758 0.563383 0.870310 0.157029
H14   H     H_    0.911808 0.563073 0.129935 0.154387
H15   H     H_    0.406010 0.065418 0.871911 0.156355
H16   H     H_    0.414772 0.061673 0.131235 0.152387
H17   H     H_    0.365052 0.646853 0.450982 0.204692
H18   H     H_    0.535223 0.658842 0.534815 0.186386
H19   H     H_    0.462601 0.658636 0.464926 0.186424
H20   H     H_    0.633214 0.647756 0.548159 0.205116
H21   H     H_    0.866283 0.147428 0.451583 0.205122
H22   H     H_    0.036464 0.158742 0.534960 0.186371
H23   H     H_    0.964146 0.158755 0.465102 0.186347
H24   H     H_    0.134211 0.147298 0.548642 0.205042
H25   H     H_    0.865658 0.647135 0.951277 0.204427
H26   H     H_    0.035610 0.658807 0.034861 0.186374
H27   H     H_    0.963364 0.658683 0.965014 0.186584
H28   H     H_    0.133527 0.647613 0.048309 0.205314
H29   H     H_    0.598842 0.156617 0.962424 0.191921
H30   H     H_    0.529575 0.159310 0.034364 0.191624
H31   H     H_    0.662029 0.123250 0.928043 0.207692
H32   H     H_    0.628660 0.149737 0.046082 0.201826
H33   H     H_    0.367218 0.702927 0.396919 0.195751
H34   H     H_    0.532818 0.715004 0.589045 0.211211
H35   H     H_    0.464905 0.714810 0.410684 0.211749
H36   H     H_    0.630951 0.703830 0.602203 0.197636
H37   H     H_    0.868518 0.203510 0.397532 0.197653
H38   H     H_    0.034102 0.214907 0.589190 0.211529
H39   H     H_    0.966523 0.214927 0.410867 0.211259
H40   H     H_    0.131988 0.203368 0.602694 0.197680
H41   H     H_    0.867879 0.703221 0.897228 0.197010
H42   H     H_    0.033211 0.714971 0.089087 0.211241
H43   H     H_    0.965728 0.714860 0.910782 0.211807
H44   H     H_    0.131271 0.703688 0.102352 0.197895
H45   H     H_    0.597500 0.213230 0.907365 0.207496
H46   H     H_    0.527396 0.215439 0.088611 0.211324
H47   H     H_    0.660048 0.179686 0.872666 0.197344
H48   H     H_    0.626514 0.205736 0.100176 0.197576
H49   H     H_    0.614060 0.888112 0.080924 0.164695
H50   H     H_    0.387745 0.921956 0.885665 0.164028
H51   H     H_    0.885007 0.416163 0.108557 0.164720
H52   H     H_    0.114860 0.389596 0.918073 0.166166
H53   H     H_    0.115209 0.889630 0.582578 0.165761
H54   H     H_    0.113935 0.888204 0.419192 0.168687
H55   H     H_    0.385423 0.416889 0.609224 0.164560
H56   H     H_    0.387518 0.386014 0.420870 0.168979
H57   H     H_    0.360089 0.943889 0.138917 0.193109
H58   H     H_    0.634817 0.857883 0.946512 0.193137
H59   H     H_    0.327958 0.901870 0.098764 0.202033
H60   H     H_    0.671917 0.897499 0.905652 0.202358
H61   H     H_    0.172261 0.382640 0.080557 0.196860
H62   H     H_    0.856256 0.441671 0.862407 0.197273
H63   H     H_    0.142686 0.424014 0.121709 0.202416
H64   H     H_    0.827529 0.399207 0.902843 0.201100
H65   H     H_    0.856880 0.941937 0.637056 0.193893
H66   H     H_    0.858282 0.943179 0.361218 0.197101
H67   H     H_    0.828019 0.899559 0.596410 0.201066
H68   H     H_    0.827391 0.900964 0.401339 0.201492
H69   H     H_    0.671662 0.381704 0.579651 0.197525
H70   H     H_    0.671818 0.404823 0.398654 0.202011
H71   H     H_    0.643379 0.423204 0.621005 0.202192
H72   H     H_    0.636251 0.446360 0.359035 0.192221
H73   H     H_    0.362280 0.888732 0.195559 0.206372
H74   H     H_    0.632491 0.801298 0.891334 0.206580
H75   H     H_    0.330805 0.846629 0.155305 0.198774
H76   H     H_    0.668915 0.841009 0.850342 0.198321
H77   H     H_    0.170284 0.327069 0.135112 0.204649
H78   H     H_    0.858428 0.386556 0.805761 0.206962
H79   H     H_    0.141088 0.368278 0.176482 0.202488
H80   H     H_    0.830322 0.344013 0.846279 0.199390
H81   H     H_    0.858960 0.886723 0.693644 0.206538
H82   H     H_    0.860245 0.888107 0.304521 0.206780
H83   H     H_    0.830701 0.844278 0.652910 0.199001
H84   H     H_    0.830017 0.845806 0.344739 0.200082
H85   H     H_    0.669600 0.326089 0.634160 0.204816
H86   H     H_    0.669122 0.349624 0.342099 0.198402
H87   H     H_    0.641705 0.367422 0.675729 0.202031
H88   H     H_    0.634262 0.391249 0.302345 0.205461
O1    O     O_R   0.500000 0.731000 0.321180 -0.588313
O2    O     O_R   0.500000 0.731000 0.678820 -0.588384
O3    O     O_R   1.000000 0.231000 0.321180 -0.588482
O4    O     O_R   1.000000 0.231000 0.678820 -0.588120
O5    O     O_R   1.000000 0.731000 0.821180 -0.587855
O6    O     O_R   1.000000 0.731000 0.178820 -0.588239
O7    O     O_R   0.500000 0.231000 0.821180 -0.585398
O8    O     O_R   0.500000 0.231000 0.178820 -0.588295
O9    O     O_R   0.500000 0.678810 0.268980 -0.585292
O10   O     O_R   0.500000 0.678810 0.731020 -0.585408
O11   O     O_R   1.000000 0.178810 0.268980 -0.585161
O12   O     O_R   1.000000 0.178810 0.731020 -0.585427
O13   O     O_R   1.000000 0.678810 0.768980 -0.585440
O14   O     O_R   1.000000 0.678810 0.231020 -0.585513
O15   O     O_R   0.500000 0.178810 0.768980 -0.585962
O16   O     O_R   0.500000 0.178810 0.231020 -0.585587
O17   O     O_R   0.394200 0.776090 0.276090 -0.585691
O18   O     O_R   0.394200 0.776090 0.723910 -0.587852
O19   O     O_R   0.605800 0.776090 0.276090 -0.586095
O20   O     O_R   0.605800 0.776090 0.723910 -0.583573
O21   O     O_R   0.894200 0.276090 0.276090 -0.587008
O22   O     O_R   0.894200 0.276090 0.723910 -0.582942
O23   O     O_R   0.105800 0.276090 0.276090 -0.583776
O24   O     O_R   0.105800 0.276090 0.723910 -0.590504
O25   O     O_R   0.894200 0.776090 0.776090 -0.584988
O26   O     O_R   0.894200 0.776090 0.223910 -0.585966
O27   O     O_R   0.105800 0.776090 0.776090 -0.588751
O28   O     O_R   0.105800 0.776090 0.223910 -0.585217
O29   O     O_R   0.394200 0.276090 0.776090 -0.587013
O30   O     O_R   0.394200 0.276090 0.223910 -0.582899
O31   O     O_R   0.605800 0.276090 0.776090 -0.584891
O32   O     O_R   0.605800 0.276090 0.223910 -0.587562
O33   O     O_R   0.394210 0.723900 0.223890 -0.579693
O34   O     O_R   0.394210 0.723900 0.776110 -0.586045
O35   O     O_R   0.605790 0.723900 0.223890 -0.586780
O36   O     O_R   0.605790 0.723900 0.776110 -0.581351
O37   O     O_R   0.894210 0.223900 0.223890 -0.584032
O38   O     O_R   0.894210 0.223900 0.776110 -0.583920
O39   O     O_R   0.105790 0.223900 0.223890 -0.582993
O40   O     O_R   0.105790 0.223900 0.776110 -0.582352
O41   O     O_R   0.894210 0.723900 0.723890 -0.580139
O42   O     O_R   0.894210 0.723900 0.276110 -0.583165
O43   O     O_R   0.105790 0.723900 0.723890 -0.585942
O44   O     O_R   0.105790 0.723900 0.276110 -0.579374
O45   O     O_R   0.394210 0.223900 0.723890 -0.586756
O46   O     O_R   0.394210 0.223900 0.276110 -0.583101
O47   O     O_R   0.605790 0.223900 0.723890 -0.580582
O48   O     O_R   0.605790 0.223900 0.276110 -0.579783
O49   O     O_R   0.500000 0.821170 0.231010 -0.586789
O50   O     O_R   0.500000 0.821170 0.768990 -0.595213
O51   O     O_R   1.000000 0.321170 0.231010 -0.595467
O52   O     O_R   1.000000 0.321170 0.768990 -0.587309
O53   O     O_R   1.000000 0.821170 0.731010 -0.587129
O54   O     O_R   1.000000 0.821170 0.268990 -0.588884
O55   O     O_R   0.500000 0.321170 0.731010 -0.595499
O56   O     O_R   0.500000 0.321170 0.268990 -0.588298
O57   O     O_R   0.500000 0.768980 0.178810 -0.594870
O58   O     O_R   0.500000 0.768980 0.821190 -0.586377
O59   O     O_R   0.000000 0.268980 0.178810 -0.584880
O60   O     O_R   1.000000 0.268980 0.821190 -0.594175
O61   O     O_R   1.000000 0.768980 0.678810 -0.594572
O62   O     O_R   1.000000 0.768980 0.321190 -0.582989
O63   O     O_R   0.500000 0.268980 0.678810 -0.585002
O64   O     O_R   0.500000 0.268980 0.321190 -0.583227
O65   O     O_R   0.438730 0.954890 0.954890 -0.593249
O66   O     O_R   0.438730 0.954890 0.045110 -0.587325
O67   O     O_R   0.561270 0.954890 0.954890 -0.587793
O68   O     O_R   0.561270 0.954890 0.045110 -0.592495
O69   O     O_R   0.938730 0.454890 0.954890 -0.585354
O70   O     O_R   0.938730 0.454890 0.045110 -0.593447
O71   O     O_R   0.061270 0.454890 0.954890 -0.594116
O72   O     O_R   0.061270 0.454890 0.045110 -0.587344
O73   O     O_R   0.938730 0.954890 0.454890 -0.586032
O74   O     O_R   0.938730 0.954890 0.545110 -0.588607
O75   O     O_R   0.061270 0.954890 0.454890 -0.595794
O76   O     O_R   0.061270 0.954890 0.545110 -0.592555
O77   O     O_R   0.438730 0.454890 0.454890 -0.590970
O78   O     O_R   0.438730 0.454890 0.545110 -0.594147
O79   O     O_R   0.561270 0.454890 0.454890 -0.587992
O80   O     O_R   0.561270 0.454890 0.545110 -0.586620
O81   O     O_R   0.438760 0.545060 0.454900 -0.581655
O82   O     O_R   0.438760 0.545060 0.545100 -0.588842
O83   O     O_R   0.561240 0.545060 0.454900 -0.589128
O84   O     O_R   0.561240 0.545060 0.545100 -0.583565
O85   O     O_R   0.938760 0.045060 0.454900 -0.583720
O86   O     O_R   0.938760 0.045060 0.545100 -0.588959
O87   O     O_R   0.061240 0.045060 0.454900 -0.587254
O88   O     O_R   0.061240 0.045060 0.545100 -0.581614
O89   O     O_R   0.938760 0.545060 0.954900 -0.583865
O90   O     O_R   0.938760 0.545060 0.045100 -0.588968
O91   O     O_R   0.061240 0.545060 0.954900 -0.586957
O92   O     O_R   0.061240 0.545060 0.045100 -0.583360
O93   O     O_R   0.438760 0.045060 0.954900 -0.588719
O94   O     O_R   0.438760 0.045060 0.045100 -0.586706
O95   O     O_R   0.561240 0.045060 0.954900 -0.586161
O96   O     O_R   0.561240 0.045060 0.045100 -0.583155
C193  C     C_3   0.637460 0.824819 0.140460 -0.417472
C194  C     C_3   0.679350 0.843726 0.178983 -0.813627
H89   H     H_    0.646780 0.841286 0.209134 0.255383
H90   H     H_    0.730886 0.825385 0.183684 0.246497
H91   H     H_    0.692793 0.878475 0.172876 0.254457
H92   H     H_    0.626139 0.789756 0.146115 0.215456
H93   H     H_    0.672874 0.826544 0.111338 0.200423
C195  C     C_3   0.364420 0.863056 0.821779 -0.418424
C196  C     C_3   0.319635 0.825189 0.839467 -0.811172
H94   H     H_    0.268976 0.821572 0.819980 0.246852
H95   H     H_    0.350854 0.794299 0.837693 0.253273
H96   H     H_    0.304534 0.831482 0.873772 0.254254
H97   H     H_    0.330464 0.893009 0.822985 0.200751
H98   H     H_    0.377107 0.857393 0.787052 0.217039
C197  C     C_3   0.862047 0.357439 0.172105 -0.419550
C198  C     C_3   0.821548 0.318087 0.153738 -0.816189
H99   H     H_    0.855023 0.288162 0.156937 0.258305
H100  H     H_    0.769975 0.313271 0.171783 0.245460
H101  H     H_    0.808283 0.323457 0.118927 0.253294
H102  H     H_    0.872969 0.352552 0.207240 0.213271
H103  H     H_    0.825801 0.386344 0.169562 0.200205
C199  C     C_3   0.138244 0.326545 0.858448 -0.414374
C200  C     C_3   0.178000 0.345770 0.819502 -0.818430
H104  H     H_    0.229934 0.328009 0.814453 0.246552
H105  H     H_    0.144393 0.342806 0.789621 0.256985
H106  H     H_    0.190529 0.380696 0.825349 0.253007
H107  H     H_    0.174740 0.328804 0.887262 0.201466
H108  H     H_    0.127845 0.291330 0.853018 0.214434
C201  C     C_3   0.138531 0.826520 0.642338 -0.415786
C202  C     C_3   0.178516 0.845931 0.681332 -0.816959
H109  H     H_    0.145059 0.843106 0.711099 0.256829
H110  H     H_    0.230487 0.828203 0.686658 0.246318
H111  H     H_    0.191011 0.880829 0.675361 0.253890
H112  H     H_    0.128083 0.791344 0.647930 0.214055
H113  H     H_    0.174866 0.828597 0.613647 0.200772
C203  C     C_3   0.137151 0.825269 0.359785 -0.392286
C204  C     C_3   0.147817 0.789731 0.393827 -0.797900
H114  H     H_    0.101974 0.766142 0.392514 0.264737
H115  H     H_    0.199330 0.771993 0.387373 0.236048
H116  H     H_    0.150954 0.804196 0.426833 0.241833
H117  H     H_    0.138235 0.810212 0.327050 0.193018
H118  H     H_    0.183858 0.848286 0.361168 0.196948
C205  C     C_3   0.362448 0.358264 0.672871 -0.418385
C206  C     C_3   0.321155 0.319061 0.654820 -0.816682
H119  H     H_    0.354288 0.288987 0.657897 0.257569
H120  H     H_    0.269806 0.314529 0.673163 0.246082
H121  H     H_    0.307417 0.324414 0.620071 0.252874
H122  H     H_    0.373788 0.353433 0.707966 0.213919
H123  H     H_    0.326547 0.387331 0.670425 0.200681
C207  C     C_3   0.364528 0.322445 0.361902 -0.391547
C208  C     C_3   0.357682 0.287042 0.396386 -0.791815
H124  H     H_    0.306936 0.268151 0.390732 0.238231
H125  H     H_    0.404801 0.264436 0.394722 0.264164
H126  H     H_    0.355359 0.301754 0.429291 0.242172
H127  H     H_    0.316637 0.344500 0.363700 0.197769
H128  H     H_    0.362568 0.307062 0.329328 0.194162

loop_
_geom_bond_atom_site_label_1
_geom_bond_atom_site_label_2
_ccdc_geom_bond_type
Cu5   O53   S    
Cu6   Cu14  S    
C34   C42   A    
Cu13  O41   S    
C10   C154  A    
C6    C166  S    
C5    O13   A    
C52   C199  S    
C204  H114  S    
C31   H47   S    
C7    O15   A    
C14   C158  A    
C56   C207  S    
C119  O77   A    
C95   O23   A    
C82   H58   S    
C87   H71   S    
C83   H63   S    
C88   H72   S    
C127  O93   A    
C18   H20   S    
Cu3   Cu11  S    
C70   C117  S    
Cu1   Cu9   S    
C100  O44   A    
Cu18  O96   S    
C169  C177  A    
C32   H48   S    
C15   C191  A    
C8    C168  S    
C25   H33   S    
C109  H83   S    
C116  O70   A    
C94   O22   A    
C110  H84   S    
C112  H86   S    
C2    O10   A    
Cu11  O59   S    
Cu4   Cu12  S    
C37   C109  S    
C90   O18   A    
C124  O86   A    
Cu13  O13   S    
C39   C111  S    
C175  H7    S    
Cu8   Cu16  S    
C85   H65   S    
C173  C181  A    
Cu16  O16   S    
C76   C84   S    
C79   C87   S    
C99   O43   A    
C98   O42   A    
C166  C174  A    
Cu24  O84   S    
Cu1   O49   S    
C34   C106  S    
Cu7   O7    S    
Cu8   O8    S    
Cu8   O30   S    
C38   C78   A    
C83   H61   S    
C111  H85   S    
C21   C29   S    
Cu4   O4    S    
C29   H41   S    
C153  C161  A    
C23   C31   S    
Cu17  O66   S    
Cu23  Cu24  S    
C24   C32   S    
C46   C134  S    
Cu14  O44   S    
C207  H127  S    
C12   C20   S    
C13   C21   S    
C125  O91   A    
C126  O92   A    
C193  H93   S    
C123  O85   A    
C33   C73   A    
C63   C71   A    
C36   C44   A    
C37   C45   A    
C154  C162  A    
C203  C204  S    
C39   C47   A    
C204  H116  S    
C176  C184  A    
C117  O73   A    
C89   O33   A    
C86   C110  S    
C97   C145  S    
Cu6   O6    S    
C87   H69   S    
Cu21  O85   S    
C115  O69   A    
C140  C145  T    
C18   H18   S    
C44   C132  S    
C45   C133  S    
C59   H51   S    
C31   H45   S    
C17   C25   S    
C198  H99   S    
C104  C152  S    
C106  H74   S    
C32   C160  S    
C99   C147  S    
C80   C88   S    
Cu13  O61   S    
C136  O56   A    
C128  O94   A    
C10   C18   S    
C20   H22   S    
C110  H82   S    
Cu23  O82   S    
C43   C131  S    
C114  O66   A    
C159  C167  A    
C160  C168  A    
Cu22  O76   S    
C202  H110  S    
C35   C107  S    
C124  O88   A    
C178  C186  A    
Cu7   O29   S    
C87   C111  S    
C85   H67   S    
C101  O45   A    
C96   O24   A    
C86   H68   S    
C182  C190  A    
C103  O47   A    
C196  H94   S    
C21   H25   S    
C97   O25   A    
C66   C113  S    
C16   C160  A    
C25   H35   S    
C137  C148  T    
C69   C77   A    
C43   C51   A    
C2    C162  S    
C71   C79   A    
C193  C194  S    
C49   C193  S    
C40   C112  S    
C201  C202  S    
C100  O28   A    
C62   C70   A    
C29   H43   S    
Cu20  O71   S    
C30   H44   S    
Cu4   O22   S    
C106  H76   S    
C134  O54   A    
C94   O38   A    
C40   C80   A    
Cu17  O65   S    
C66   C74   A    
C131  O51   A    
C49   C57   A    
C126  C190  S    
C63   H55   S    
C126  O90   A    
C52   C60   A    
C59   C67   A    
C53   C61   A    
C182  H14   S    
Cu23  O78   S    
C129  O57   A    
C84   H62   S    
Cu9   O9    S    
C56   C64   A    
Cu11  O39   S    
C180  C188  A    
C81   H57   S    
Cu12  O12   S    
C11   C155  A    
C21   H27   S    
C208  H126  S    
C161  C169  A    
C6    O14   A    
C117  O75   A    
C77   C85   S    
C199  H107  S    
Cu14  O42   S    
C132  O60   A    
C171  C179  A    
Cu1   O1    S    
C12   C156  A    
Cu22  O88   S    
C90   C138  S    
Cu18  O67   S    
Cu24  O79   S    
C105  H73   S    
C178  H10   S    
C81   C105  S    
C94   C142  S    
C198  H101  S    
Cu19  O89   S    
C102  O46   A    
C65   C73   A    
C157  C165  A    
C124  C188  S    
C155  C163  A    
C20   H24   S    
C1    O1    A    
C98   O26   A    
C127  C191  S    
C206  H119  S    
C128  C192  S    
C3    O11   A    
C67   C116  S    
C105  H75   S    
Cu5   O25   S    
C19   H23   S    
C134  O62   A    
C114  O68   A    
Cu14  O14   S    
C8    O8    A    
C120  O80   A    
Cu17  Cu18  S    
C86   H66   S    
C135  O55   A    
C196  H96   S    
C26   H36   S    
C4    O4    A    
C5    O5    A    
C42   C50   A    
C199  C200  S    
C164  C172  A    
C67   C75   A    
C170  C178  A    
C183  H15   S    
C91   O19   A    
Cu20  O92   S    
C167  C175  A    
C194  H89   S    
C168  C176  A    
C7    C167  S    
C195  H97   S    
Cu7   O55   S    
C22   C30   S    
C47   C135  S    
C30   H42   S    
C48   C136  S    
Cu4   O52   S    
Cu15  O47   S    
C3    C163  S    
C68   C76   A    
Cu9   O57   S    
C14   C22   S    
Cu21  O74   S    
C72   C80   A    
C101  O29   A    
C121  O83   A    
C84   H64   S    
Cu7   O31   S    
C10   C186  A    
C103  O31   A    
Cu1   O17   S    
C82   C106  S    
C23   H31   S    
C97   O41   A    
C38   C46   A    
C24   H32   S    
C203  H117  S    
C177  H9    S    
C208  H124  S    
C14   C190  A    
Cu15  O15   S    
C92   O20   A    
C171  H3    S    
C141  C152  T    
Cu10  O36   S    
C169  H1    S    
Cu6   O54   S    
C139  C146  T    
C95   C143  S    
C133  O53   A    
Cu5   Cu13  S    
C18   C26   S    
C28   H38   S    
C173  H5    S    
Cu2   O50   S    
C22   H28   S    
C200  H105  S    
C127  O95   A    
Cu21  Cu22  S    
C128  O96   A    
C11   C19   S    
C133  O61   A    
C206  H121  S    
C174  H6    S    
C60   H52   S    
Cu5   O27   S    
C85   C109  S    
C19   H21   S    
C107  H79   S    
C179  C187  A    
C201  H113  S    
Cu9   O35   S    
C61   C69   A    
Cu2   Cu10  S    
C69   C118  S    
C177  C185  A    
C30   C158  S    
C73   C81   S    
C26   H34   S    
C181  C189  A    
C207  H128  S    
C184  C192  A    
C38   C110  S    
C163  C171  A    
C193  H92   S    
C103  C151  S    
C172  C180  A    
C204  H115  S    
C1    C161  S    
Cu17  O93   S    
C102  O30   A    
C174  C182  A    
C74   C82   S    
C61   H53   S    
Cu17  O94   S    
C54   C203  S    
Cu15  O45   S    
C136  O64   A    
C27   C155  S    
C25   C153  S    
C50   C58   A    
C33   C105  S    
Cu8   O32   S    
C108  H78   S    
C29   C157  S    
C54   C62   A    
C37   C77   A    
C122  O82   A    
C197  H103  S    
C183  C191  A    
C96   O40   A    
Cu10  O10   S    
C39   C79   A    
C23   H29   S    
C15   C159  A    
C200  H106  S    
C50   C195  S    
Cu16  O48   S    
Cu19  Cu20  S    
C162  C170  A    
C7    O7    A    
C46   C54   A    
Cu8   O56   S    
C53   C201  S    
Cu12  O60   S    
C176  H8    S    
Cu2   O2    S    
C202  H111  S    
C205  H122  S    
C102  C150  S    
C91   C139  S    
Cu4   O24   S    
C55   C205  S    
C92   C140  S    
C22   H26   S    
C93   C141  S    
C158  C166  A    
C58   C66   A    
C118  O74   A    
C4    O12   A    
C2    O2    A    
Cu24  O83   S    
C131  O59   A    
Cu9   O33   S    
C57   C65   A    
C107  H77   S    
C17   H17   S    
C20   C28   S    
Cu3   O23   S    
Cu20  O72   S    
C33   C41   A    
Cu14  O62   S    
C75   C83   S    
C6    O6    A    
C118  O76   A    
C84   C108  S    
C180  H12   S    
C113  O65   A    
C132  O52   A    
Cu6   O28   S    
C122  C186  S    
C68   C115  S    
C88   C112  S    
Cu12  O38   S    
Cu23  O77   S    
C195  C196  S    
C60   C68   A    
C197  H102  S    
Cu18  O95   S    
Cu1   O19   S    
C27   H39   S    
C112  H88   S    
C198  H100  S    
C208  H125  S    
C142  C151  T    
C199  H108  S    
C1    O9    A    
C70   C78   A    
C65   C114  S    
C24   H30   S    
Cu15  O63   S    
Cu21  O86   S    
C108  H80   S    
Cu18  O68   S    
Cu24  O80   S    
C35   C75   A    
C71   C120  S    
C8    O16   A    
C11   C187  A    
C91   O35   A    
C135  O63   A    
C9    C185  A    
C130  O58   A    
C96   C144  S    
C165  C173  A    
C12   C188  A    
C13   C189  A    
C130  O50   A    
C206  H120  S    
C122  O84   A    
Cu22  O75   S    
C40   C48   A    
C202  H109  S    
C36   C76   A    
C90   O34   A    
C41   C49   A    
C143  C150  T    
C64   H56   S    
C181  H13   S    
Cu2   O20   S    
C4    C164  S    
Cu3   O51   S    
C62   H54   S    
C196  H95   S    
C16   C192  A    
C51   C197  S    
C78   C86   S    
C15   C23   S    
C207  C208  S    
C57   H49   S    
C16   C24   S    
C179  H11   S    
Cu23  O81   S    
Cu5   O5    S    
Cu19  O70   S    
C19   C27   S    
C104  O48   A    
C194  H90   S    
C17   H19   S    
C195  H98   S    
C36   C108  S    
C184  H16   S    
C121  O81   A    
C200  H104  S    
C98   C146  S    
C99   O27   A    
Cu16  O46   S    
C9    C153  A    
C55   C63   A    
C81   H59   S    
C121  C185  S    
C119  O79   A    
Cu6   O26   S    
C82   H60   S    
Cu21  O73   S    
C144  C149  T    
C88   H70   S    
C194  H91   S    
Cu12  O40   S    
C197  C198  S    
C138  C147  T    
C58   H50   S    
Cu7   Cu15  S    
C42   C130  S    
C32   H46   S    
C27   H37   S    
C203  H118  S    
C9    C17   S    
C109  H81   S    
C5    C165  S    
C120  O78   A    
C26   C154  S    
C51   C59   A    
Cu22  O87   S    
C35   C43   A    
C47   C55   A    
C129  O49   A    
C48   C56   A    
C175  C183  A    
Cu19  O90   S    
Cu11  O11   S    
C28   H40   S    
Cu19  O69   S    
Cu3   O21   S    
C172  H4    S    
C93   O21   A    
Cu10  O58   S    
C95   O39   A    
C89   C137  S    
C89   O17   A    
Cu16  O64   S    
Cu11  O37   S    
C205  C206  S    
Cu10  O34   S    
Cu3   O3    S    
C41   C129  S    
C44   C52   A    
C201  H112  S    
C100  C148  S    
C111  H87   S    
C72   C119  S    
C101  C149  S    
Cu2   O18   S    
C83   C107  S    
C64   C72   A    
C123  C187  S    
C31   C159  S    
C92   O36   A    
C45   C53   A    
C34   C74   A    
C156  C164  A    
C115  O71   A    
C113  O67   A    
C28   C156  S    
C3    O3    A    
Cu13  O43   S    
C125  C189  S    
C125  O89   A    
C13   C157  A    
C93   O37   A    
C205  H123  S    
C116  O72   A    
Cu20  O91   S    
C123  O87   A    
C170  H2    S    
C104  O32   A    
