data_mof_unit_30800.cif
_audit_creation_date              2013-03-05T15:46:21-0500
_audit_creation_method            fapswitch 2.2
_symmetry_space_group_name_H-M    P1
_symmetry_Int_Tables_number       1
_space_group_crystal_system       triclinic
_cell_length_a                    8.79245
_cell_length_b                    15.302258
_cell_length_c                    18.997506
_cell_angle_alpha                 97.52491
_cell_angle_beta                  94.846409
_cell_angle_gamma                 99.285211
_cell_volume                      2486.17976196

loop_
_atom_site_label
_atom_site_type_symbol
_atom_site_description
_atom_site_fract_x
_atom_site_fract_y
_atom_site_fract_z
_atom_type_partial_charge
P1    P     P_3+3 0.990700 0.707490 0.561920 0.483580
O1    O     O_2   0.165020 0.721890 0.541560 -0.283958
O2    O     O_3   0.893030 0.608480 0.539180 -0.431517
O3    O     O_3   0.389120 0.667500 0.413900 -0.329141
O4    O     O_2   0.329502 0.828774 0.441171 -0.384168
O5    O     O_3   0.028590 0.740549 0.658793 -0.573113
O6    O     O_3   0.441292 0.797691 0.319524 -0.606035
H1    H     H_    0.642188 0.741287 0.314421 0.021560
C1    C     C_3   0.543545 0.748654 0.209034 -0.459157
H2    H     H_    0.644747 0.720441 0.191226 0.200857
H3    H     H_    0.443382 0.692761 0.203231 0.206853
P2    P     P_3+3 0.340130 0.430100 0.338870 0.620310
P3    P     P_3+3 0.898274 0.608375 0.286070 0.388094
O7    O     O_2   0.172060 0.457600 0.329040 -0.411582
O8    O     O_3   0.964390 0.622060 0.377370 -0.388416
O9    O     O_2   0.001239 0.550563 0.245374 -0.452226
O10   O     O_3   0.326444 0.320453 0.287984 -0.566647
O11   O     O_3   0.938590 0.711913 0.256209 -0.570709
C2    C     C_3   0.094132 0.750624 0.275137 0.590837
H4    H     H_    0.173279 0.702742 0.260816 0.101861
H5    H     H_    0.113287 0.774824 0.333431 0.110856
C3    C     C_3   0.129422 0.830576 0.234991 -0.452860
H6    H     H_    0.248776 0.866337 0.252661 0.218173
C4    C     C_3   0.829340 0.339091 0.307723 0.383804
H7    H     H_    0.929272 0.386320 0.335505 0.134073
C5    C     C_3   0.865682 0.310253 0.230773 -0.869276
H8    H     H_    0.782781 0.250779 0.203990 0.286090
H9    H     H_    0.859910 0.365344 0.198354 0.222984
H10   H     H_    0.983950 0.295558 0.229034 0.238882
Ba1   Ba    Ba6+2 0.161760 0.544680 0.467770 1.579776
C6    C     C_3   0.091742 0.683546 0.703574 0.420764
H11   H     H_    0.202614 0.670097 0.685044 0.080967
C7    C     C_3   0.117587 0.723423 0.789524 0.165586
C8    C     C_3   0.274534 0.234884 0.308541 0.046000
C9    C     C_3   0.287226 0.164320 0.241177 -0.261242
H12   H     H_    0.222605 0.187330 0.195952 0.193050
P4    P     P_3+3 0.819590 0.292500 0.438020 0.548656
O12   O     O_2   0.645270 0.278050 0.458420 -0.281203
O13   O     O_3   0.917270 0.391510 0.460760 -0.413114
O14   O     O_3   0.421180 0.332490 0.586040 -0.355480
O15   O     O_3   0.785997 0.265636 0.343528 -0.566215
P5    P     P_3+3 0.885297 0.379144 0.715764 0.482987
O16   O     O_3   0.383630 0.545490 0.584580 -0.395802
O17   O     O_3   0.845910 0.377930 0.622570 -0.342454
O18   O     O_2   0.802485 0.453113 0.750277 -0.372764
O19   O     O_3   0.776321 0.284302 0.740373 -0.526859
Ba2   Ba    Ba6+2 0.648420 0.455310 0.532170 1.595975
P6    P     P_3+3 0.456553 0.781161 0.409910 0.440047
C10   C     C_3   0.580717 0.788922 0.288859 0.372266
O20   O     O_3   0.426670 0.454500 0.415370 -0.288259
C11   C     C_3   0.559130 0.747992 0.677609 0.405521
C12   C     C_3   0.580363 0.839889 0.728127 -0.235009
H13   H     H_    0.639617 0.893080 0.700726 0.194130
H14   H     H_    0.466298 0.857038 0.736514 0.204456
P7    P     P_3+3 0.467415 0.565316 0.674259 0.437865
O21   O     O_2   0.638230 0.542350 0.670940 -0.375935
O22   O     O_3   0.482697 0.679360 0.712772 -0.561374
H15   H     H_    0.051157 0.878792 0.248029 0.241186
C13   C     C_3   0.857842 0.212489 0.740984 0.278544
H16   H     H_    0.973285 0.227373 0.721370 -0.064893
C14   C     C_3   0.884526 0.190782 0.819345 -0.266304
H17   H     H_    0.993681 0.235503 0.843699 0.117990
P8    P     P_3+3 0.370523 0.216313 0.574607 0.522860
C15   C     C_3   0.331181 0.224412 0.709555 0.662111
H18   H     H_    0.246676 0.262991 0.687106 -0.007929
O23   O     O_2   0.497947 0.183048 0.532810 -0.282334
O24   O     O_3   0.414608 0.184555 0.658229 -0.518638
H19   H     H_    0.154474 0.106798 0.702037 0.191290
C16   C     C_3   0.237068 0.151754 0.744088 -0.512396
H20   H     H_    0.171756 0.185758 0.782688 0.181876
C17   C     C_R   0.168725 0.166500 0.530095 0.187301
C18   C     C_R   0.099639 0.074534 0.526996 -0.087124
C19   C     C_R   0.955155 0.891607 0.526860 -0.130223
C20   C     C_R   0.095636 0.929343 0.566883 -0.036590
C21   C     C_R   0.179746 0.008511 0.550843 0.080589
C22   C     C_R   0.894096 0.796716 0.518773 0.237702
C23   C     C_R   0.746608 0.768525 0.480533 -0.432743
C24   C     C_R   0.920532 0.202006 0.477379 0.261828
C25   C     C_R   0.854175 0.108630 0.472861 -0.035850
C26   C     C_R   0.940834 0.046216 0.500157 0.033864
C27   C     C_R   0.704790 0.074577 0.440004 -0.039573
C28   C     C_R   0.636023 0.984840 0.437944 -0.172401
C29   C     C_R   0.717387 0.922311 0.465407 -0.006569
C30   C     C_R   0.871275 0.952985 0.496715 0.077567
C31   C     C_R   0.653848 0.829207 0.457847 0.192448
C32   C     C_R   0.077928 0.226582 0.504886 -0.433770
H21   H     H_    0.520638 0.964090 0.410518 0.178889
H22   H     H_    0.643138 0.117038 0.412808 0.215291
H23   H     H_    0.701998 0.697623 0.469037 0.151682
H24   H     H_    0.133715 0.294396 0.503975 0.199877
C33   C     C_R   0.575279 0.560512 0.300279 -0.475773
C34   C     C_R   0.432255 0.504332 0.276540 0.415922
C35   C     C_R   0.387793 0.482769 0.200971 0.149149
C36   C     C_R   0.497401 0.506899 0.152821 0.002653
C37   C     C_R   0.649907 0.544932 0.180220 -0.300670
C38   C     C_R   0.690964 0.568404 0.253763 0.268389
C39   C     C_R   0.468358 0.567948 0.037317 -0.204968
C40   C     C_R   0.418379 0.558040 0.964331 -0.164864
C41   C     C_R   0.354100 0.473249 0.926292 0.195943
C42   C     C_R   0.346027 0.398182 0.962102 -0.197079
C43   C     C_R   0.399499 0.407981 0.034821 -0.133536
C44   C     C_R   0.455967 0.493453 0.073793 0.167966
C45   C     C_R   0.148498 0.419538 0.822275 -0.340078
C46   C     C_R   0.098695 0.408964 0.748987 0.197730
C47   C     C_R   0.352069 0.491412 0.728804 0.294876
C48   C     C_R   0.398909 0.500987 0.802122 -0.293104
C49   C     C_R   0.300435 0.462869 0.848955 0.004240
C50   C     C_R   0.206330 0.437992 0.701546 -0.132476
H25   H     H_    0.511277 0.540170 0.823049 0.174138
H26   H     H_    0.427194 0.616886 0.937816 0.155116
H27   H     H_    0.514627 0.634085 0.065685 0.137367
H28   H     H_    0.300189 0.331856 0.933563 0.126141
H29   H     H_    0.395453 0.348867 0.060704 0.162934
H30   H     H_    0.067215 0.398121 0.858917 0.189241
H31   H     H_    0.737213 0.557077 0.143981 0.171673
H32   H     H_    0.606917 0.583132 0.356762 0.177590
C51   C     C_3   0.980816 0.596369 0.695447 -0.733750
H33   H     H_    0.040265 0.551648 0.721612 0.176536
H34   H     H_    0.880035 0.606130 0.723756 0.264849
H35   H     H_    0.944049 0.562043 0.641677 0.273688
C52   C     C_2   0.273624 0.782237 0.815817 1.000772
O25   O     O_2   0.386412 0.746955 0.827372 -0.638152
O26   O     O_R   0.283081 0.873767 0.841078 -0.836202
H36   H     H_    0.386463 0.903060 0.868359 0.329713
C53   C     C_3   0.107445 0.649721 0.839695 -0.944412
H37   H     H_    0.990434 0.608177 0.836138 0.269786
H38   H     H_    0.191424 0.605667 0.826903 0.257202
H39   H     H_    0.136470 0.679748 0.896873 0.254469
C54   C     C_3   0.993836 0.777829 0.811241 -0.891097
H40   H     H_    0.985084 0.827257 0.774407 0.297886
H41   H     H_    0.883593 0.732542 0.813210 0.235286
H42   H     H_    0.021556 0.814633 0.866575 0.267950
C55   C     C_2   0.112121 0.227796 0.324643 0.904975
O27   O     O_2   0.085584 0.284245 0.370372 -0.640294
O28   O     O_R   0.995768 0.156467 0.293188 -0.801275
H43   H     H_    0.909819 0.142284 0.324132 0.344084
C56   C     C_2   0.359464 0.222951 0.377975 1.011778
O29   O     O_2   0.372710 0.283696 0.427554 -0.512177
O30   O     O_R   0.391435 0.140802 0.393594 -0.821174
H44   H     H_    0.390521 0.092860 0.352143 0.320863
C57   C     C_3   0.209390 0.064981 0.238959 -0.976329
H45   H     H_    0.288198 0.017728 0.223011 0.260678
H46   H     H_    0.169440 0.049883 0.290532 0.267912
H47   H     H_    0.106065 0.048050 0.198545 0.293815
C58   C     C_2   0.451057 0.167897 0.221724 1.148911
O31   O     O_2   0.487556 0.199021 0.168213 -0.633554
O32   O     O_R   0.556776 0.129519 0.261460 -0.790407
H48   H     H_    0.655162 0.125166 0.238161 0.351796
C59   C     C_2   0.689705 0.877555 0.297942 0.976540
O33   O     O_2   0.644341 0.943900 0.280486 -0.626307
O34   O     O_R   0.842392 0.883942 0.327834 -0.841954
H49   H     H_    0.902682 0.947276 0.333685 0.317542
C60   C     C_3   0.509401 0.814371 0.157827 -0.816129
H50   H     H_    0.451835 0.777046 0.105945 0.233689
H51   H     H_    0.433491 0.859568 0.179668 0.291159
H52   H     H_    0.619102 0.855543 0.147568 0.263677
C61   C     C_3   0.717618 0.733862 0.661575 -0.906591
H53   H     H_    0.777122 0.793467 0.641726 0.237147
H54   H     H_    0.779079 0.723742 0.710413 0.291040
H55   H     H_    0.718142 0.674441 0.622758 0.247042
C62   C     C_2   0.467141 0.757984 0.609078 0.949904
O35   O     O_2   0.406197 0.823432 0.606170 -0.627270
O36   O     O_R   0.456784 0.698354 0.546645 -0.675219
H56   H     H_    0.535840 0.657825 0.544222 0.297952
C63   C     C_3   0.670410 0.848454 0.801808 -0.751689
H57   H     H_    0.667252 0.782834 0.820604 0.291451
H58   H     H_    0.789540 0.883801 0.800991 0.247871
H59   H     H_    0.621634 0.892539 0.841531 0.235929
C64   C     C_2   0.767217 0.137232 0.687178 1.058459
O37   O     O_2   0.770224 0.142484 0.623579 -0.640269
O38   O     O_R   0.674125 0.064710 0.708358 -0.817157
H60   H     H_    0.616710 0.021613 0.665886 0.323186
C65   C     C_2   0.764862 0.217184 0.867016 1.137816
O39   O     O_2   0.664992 0.160258 0.883749 -0.659554
O40   O     O_R   0.771233 0.307929 0.893273 -0.799721
H61   H     H_    0.685623 0.317890 0.924413 0.320768
C66   C     C_3   0.912285 0.094398 0.825043 -0.919099
H62   H     H_    0.988491 0.094222 0.874866 0.253393
H63   H     H_    0.802585 0.047476 0.826489 0.313694
H64   H     H_    0.967910 0.066631 0.779036 0.267306
C67   C     C_3   0.444510 0.288327 0.765310 -0.757245
H65   H     H_    0.383968 0.312983 0.810279 0.177883
H66   H     H_    0.532149 0.252673 0.787299 0.267586
H67   H     H_    0.502757 0.344950 0.741003 0.267203
C68   C     C_3   0.331554 0.096587 0.786161 -0.637054
H68   H     H_    0.385831 0.136852 0.837462 0.253909
H69   H     H_    0.252729 0.038266 0.799492 0.263181
H70   H     H_    0.421316 0.072694 0.755118 0.318047
C69   C     C_2   0.107584 0.923122 0.643014 1.060513
O41   O     O_2   0.992230 0.919073 0.674961 -0.701516
O42   O     O_R   0.251907 0.928895 0.679933 -0.778589
H71   H     H_    0.239976 0.897134 0.723666 0.328653
C70   C     C_3   0.347864 0.008307 0.543986 -0.656369
H72   H     H_    0.421384 0.045974 0.591141 0.268378
H73   H     H_    0.375349 0.940743 0.540988 0.274324
H74   H     H_    0.376758 0.031777 0.493417 0.247670
C71   C     C_3   0.230349 0.429985 0.170175 -0.865987
H75   H     H_    0.143885 0.428128 0.208096 0.281292
H76   H     H_    0.181389 0.460738 0.125581 0.236026
H77   H     H_    0.240063 0.359700 0.151038 0.244041
C72   C     C_3   0.154341 0.417029 0.623290 -0.735495
H78   H     H_    0.085523 0.465463 0.605115 0.245488
H79   H     H_    0.244054 0.415873 0.588645 0.273810
H80   H     H_    0.091609 0.347538 0.612811 0.189680
C73   C     C_3   0.108639 0.801757 0.154127 -0.844407
H81   H     H_    0.148106 0.860139 0.127107 0.251838
H82   H     H_    0.176973 0.748506 0.139169 0.256448
H83   H     H_    0.984495 0.775937 0.135209 0.279140
C74   C     C_2   0.699307 0.385945 0.306480 0.912679
O43   O     O_2   0.601111 0.369165 0.255180 -0.610933
O44   O     O_R   0.681418 0.442430 0.367390 -0.776836
H84   H     H_    0.782198 0.474650 0.395622 0.321489

loop_
_geom_bond_atom_site_label_1
_geom_bond_atom_site_label_2
_geom_bond_distance
_ccdc_geom_bond_type
O14   Ba2   2.865147 S    
P7    O21   1.601141 D    
C14   C66   1.549233 S    
C63   H57   1.105966 S    
C40   H26   1.083272 S    
O19   C13   1.406266 S    
O2    Ba1   3.052118 S    
C37   C38   1.397436 A    
C72   H79   1.069985 S    
C64   O37   1.223556 D    
C47   C48   1.400465 A    
C2    H4    1.113312 S    
C26   C30   1.449442 A    
C51   H34   1.094954 S    
C62   O35   1.214848 D    
O26   H36   1.011861 S    
C73   H81   1.110040 S    
C56   O30   1.394601 S    
C23   H23   1.079274 S    
C5    H8    1.104736 S    
C35   C36   1.422824 A    
O14   P8    1.741554 S    
P3    O11   1.745227 S    
P7    C47   1.869654 S    
P1    Ba1   3.487801 S    
C2    H5    1.110337 S    
P4    O12   1.600533 D    
C4    C5    1.545742 S    
C8    C9    1.586584 S    
C59   O34   1.395934 S    
C9    C58   1.511412 S    
C39   H27   1.080477 S    
C68   H69   1.109149 S    
C48   C49   1.408757 A    
C28   H21   1.079324 S    
C20   C69   1.457906 S    
C67   H65   1.101249 S    
C43   H29   1.081824 S    
C33   H32   1.081572 S    
C71   H76   1.110251 S    
P1    O1    1.600262 D    
P5    O19   1.745730 S    
C69   O42   1.381004 S    
C42   C43   1.401892 A    
C45   C46   1.404109 A    
C58   O32   1.397307 S    
C33   C38   1.403672 A    
C61   H53   1.103291 S    
C6    C51   1.501800 S    
O32   H48   1.012045 S    
C37   H31   1.083748 S    
H19   C16   1.111585 S    
C70   H73   1.094570 S    
P2    O10   1.804034 S    
C53   H39   1.113902 S    
O34   H49   1.014228 S    
C6    C7    1.649761 S    
C11   O22   1.425714 S    
C60   H51   1.102975 S    
C1    H2    1.108686 S    
C19   C30   1.430765 A    
C39   C44   1.403951 A    
O17   Ba2   2.838806 S    
C56   O29   1.217354 D    
C54   H42   1.113096 S    
C70   H74   1.103895 S    
C67   H66   1.098595 S    
O5    C6    1.436584 S    
Ba1   O20   3.064256 S    
P8    O23   1.540558 D    
C1    C60   1.533650 S    
C13   H16   1.110196 S    
C61   H54   1.075513 S    
C7    C52   1.519781 S    
C4    O15   1.406117 S    
C64   O38   1.393873 S    
C63   H58   1.100939 S    
C71   H75   1.090256 S    
P5    O17   1.772143 S    
O7    Ba1   2.808784 S    
C18   C21   1.420446 A    
C51   H33   1.072029 S    
C62   O36   1.385336 S    
C12   H14   1.095929 S    
C39   C40   1.399682 A    
Ba2   O20   2.824734 S    
C65   O40   1.403198 S    
C19   C20   1.390450 A    
O4    P6    1.546872 D    
P8    O24   1.751859 S    
C13   C14   1.573904 S    
C20   C21   1.397509 A    
P3    C38   1.850988 S    
O42   H71   1.020549 S    
C27   H22   1.066399 S    
C43   C44   1.407125 A    
Ba1   Ba2   4.808150 S    
O28   H43   1.009608 S    
C2    C3    1.528612 S    
C14   C65   1.514165 S    
C22   C23   1.404887 A    
O6    C10   1.418964 S    
C32   H24   1.076863 S    
C57   H47   1.111752 S    
C33   C34   1.406266 A    
C25   C27   1.393465 A    
C24   C25   1.442152 A    
O11   C2    1.396502 S    
C68   H70   1.104364 S    
C8    C55   1.475487 S    
C66   H63   1.110301 S    
C65   O39   1.226289 D    
C11   C61   1.494350 S    
C27   C28   1.402406 A    
C11   C12   1.570004 S    
C3    C73   1.528710 S    
P1    O2    1.601743 S    
C9    H12   1.116365 S    
C71   H77   1.108451 S    
C35   C71   1.513136 S    
C15   O24   1.403659 S    
O44   H84   1.012616 S    
C50   C72   1.495001 S    
C12   C63   1.527914 S    
C17   C32   1.414040 A    
C29   C30   1.410951 A    
P3    O8    1.756532 S    
C4    C74   1.444349 S    
C66   H64   1.107099 S    
C45   H30   1.082108 S    
C7    C53   1.565812 S    
C74   O43   1.217341 D    
O12   Ba2   2.880123 S    
C1    C10   1.546847 S    
C36   C37   1.399484 A    
C47   C50   1.420326 A    
C4    H7    1.090742 S    
C60   H52   1.110437 S    
C1    H3    1.111348 S    
O38   H60   1.012505 S    
C52   O25   1.220701 D    
C9    C57   1.556761 S    
C15   C67   1.518953 S    
C21   C70   1.495278 S    
O16   P7    1.765704 S    
C29   C31   1.427773 A    
P8    C17   1.893536 S    
C40   C41   1.404951 A    
C61   H55   1.094029 S    
P7    O22   1.781055 S    
C53   H37   1.110455 S    
C19   C22   1.447864 A    
Ba1   O16   2.825530 S    
C51   H35   1.082921 S    
P4    Ba2   3.488372 S    
O10   C8    1.430579 S    
C16   C68   1.527249 S    
C58   O31   1.223049 D    
C46   C50   1.420741 A    
C41   C49   1.484575 S    
C12   H13   1.106737 S    
O8    Ba1   2.838144 S    
O13   Ba2   3.053030 S    
C54   H40   1.102709 S    
O3    P6    1.758326 S    
C73   H83   1.110886 S    
C7    C54   1.524937 S    
C69   O41   1.222486 D    
C67   H67   1.108074 S    
P2    Ba1   3.455723 S    
C3    H6    1.104734 S    
P1    C22   1.951226 S    
P2    C34   1.888386 S    
C6    H11   1.104691 S    
P2    O7    1.603219 D    
P5    C46   1.890827 S    
C3    H15   1.106361 S    
C14   H17   1.110655 S    
P2    O20   1.552365 S    
O30   H44   1.002036 S    
C42   H28   1.083251 S    
C72   H80   1.100602 S    
C63   H59   1.105981 S    
C15   C16   1.528783 S    
P4    C24   1.954493 S    
C8    C56   1.507173 S    
C5    H9    1.112237 S    
C41   C42   1.404949 A    
C10   C59   1.509617 S    
O1    Ba1   2.879551 S    
C15   H18   1.111922 S    
C57   H46   1.108131 S    
C17   C18   1.431538 A    
C18   C26   1.422653 A    
O40   H61   1.014120 S    
C13   C64   1.504629 S    
C59   O33   1.223220 D    
O6    P6    1.765291 S    
C24   C32   1.409981 A    
C68   H68   1.107466 S    
C55   O27   1.207491 D    
O2    Ba2   2.894840 S    
C34   C35   1.436029 A    
C74   O44   1.386891 S    
Ba1   O13   2.894197 S    
C11   C62   1.512176 S    
P4    O15   1.776684 S    
C16   H20   1.098135 S    
C52   O26   1.406611 S    
O36   H56   1.003462 S    
C66   H62   1.113071 S    
C23   C31   1.415263 A    
C25   C26   1.435066 A    
C72   H78   1.100498 S    
C36   C44   1.493835 S    
C5    H10   1.101039 S    
P4    O13   1.601774 S    
C70   H72   1.095115 S    
P3    O9    1.548381 D    
P1    O5    1.830826 S    
C53   H38   1.098527 S    
C55   O28   1.400199 S    
P6    C31   1.877553 S    
C45   C49   1.411705 A    
C28   C29   1.409990 A    
C60   H50   1.108528 S    
C57   H45   1.111101 S    
C73   H82   1.109925 S    
O16   Ba2   3.063410 S    
H1    C10   1.111190 S    
P5    O18   1.547075 D    
O3    Ba1   2.865804 S    
Ba2   O21   2.809050 S    
C54   H41   1.103332 S    
C48   H25   1.083386 S    
