data_mof_unit_23945.cif
_audit_creation_date              2012-12-10T17:56:43-0500
_audit_creation_method            fapswitch 2.2
_symmetry_space_group_name_H-M    P1
_symmetry_Int_Tables_number       1
_space_group_crystal_system       triclinic
_cell_length_a                    10.859065
_cell_length_b                    9.496939
_cell_length_c                    10.816024
_cell_angle_alpha                 87.14667
_cell_angle_beta                  90.804182
_cell_angle_gamma                 89.297719
_cell_volume                      1113.84725773

loop_
_atom_site_label
_atom_site_type_symbol
_atom_type_description
_atom_site_fract_x
_atom_site_fract_y
_atom_site_fract_z
_atom_type_partial_charge
C1    C     C_R   0.262427 0.500241 0.510884 0.854577
C2    C     C_R   0.737912 0.499244 0.491385 0.843023
C3    C     C_R   0.938254 0.621793 0.464007 -0.088816
C4    C     C_R   0.059802 0.628391 0.508400 -0.061761
C5    C     C_R   0.415731 0.080049 0.430741 -0.086052
C6    C     C_R   0.583261 0.069961 0.570488 -0.102541
C7    C     C_R   0.414552 0.930237 0.430986 0.467615
C8    C     C_R   0.583952 0.920081 0.570999 0.455107
C9    C     C_R   0.499143 0.504757 0.261525 0.757944
C10   C     C_R   0.503869 0.496206 0.737855 0.882907
C11   C     C_R   0.646684 0.710002 0.098957 -0.048475
C12   C     C_R   0.722678 0.576422 0.887521 0.022659
C13   C     C_R   0.759435 0.743595 0.044849 -0.221166
C14   C     C_R   0.799497 0.672783 0.943369 -0.169632
C15   C     C_R   0.603882 0.549737 0.937250 0.048116
C16   C     C_R   0.578391 0.594428 0.056057 0.073163
C17   C     C_R   0.489378 0.517295 0.126192 -0.138750
C18   C     C_R   0.507448 0.485795 0.872541 -0.129136
C19   C     C_R   0.401734 0.434377 0.066131 -0.065701
C20   C     C_R   0.405253 0.429424 0.936446 -0.023223
C21   C     C_R   0.065239 0.371278 0.538272 0.332384
C22   C     C_R   0.937133 0.369328 0.523618 0.444818
C23   C     C_R   0.872984 0.495877 0.488080 -0.300274
C24   C     C_R   0.127949 0.500798 0.524040 -0.270781
Cu1   Cu    Cu3+1 0.500000 0.640660 0.500000 1.042706
Cu2   Cu    Cu3+1 0.500000 0.359340 0.500000 1.016115
H1    H     H_    0.814260 0.828978 0.077937 0.176319
H2    H     H_    0.889661 0.695938 0.906349 0.159694
H3    H     H_    0.348957 0.141947 0.375506 0.175512
H4    H     H_    0.648891 0.123886 0.626895 0.199070
N1    N     N_R   0.500000 0.852070 0.500000 -0.205975
N2    N     N_R   0.500000 0.147940 0.500000 -0.206737
O1    O     O_R   0.319640 0.618740 0.499990 -0.561215
O2    O     O_R   0.680360 0.618740 0.500010 -0.580912
O3    O     O_R   0.319620 0.381170 0.499990 -0.573728
O4    O     O_R   0.680380 0.381170 0.500010 -0.495318
O5    O     O_R   0.500000 0.618810 0.319650 -0.540898
O6    O     O_R   0.500000 0.618810 0.680350 -0.545743
O7    O     O_R   0.499970 0.381240 0.319640 -0.587372
O8    O     O_R   0.500030 0.381240 0.680360 -0.572008
C25   C     C_2   0.300575 0.366473 0.138871 0.406890
H5    H     H_    0.270629 0.410961 0.224113 0.076721
O9    O     O_2   0.252228 0.258532 0.106885 -0.541772
C26   C     C_2   0.298935 0.374858 0.867168 0.390259
H6    H     H_    0.277077 0.263673 0.874566 0.132859
O10   O     O_2   0.234016 0.455595 0.802861 -0.603726
C27   C     C_2   0.589311 0.822129 0.169252 0.452846
H7    H     H_    0.645506 0.888241 0.225828 0.043158
O11   O     O_2   0.479301 0.848096 0.157408 -0.488563
C28   C     C_2   0.778438 0.491853 0.791441 0.371147
H8    H     H_    0.854773 0.534261 0.738513 0.072560
O12   O     O_2   0.746770 0.370790 0.777167 -0.531310
O13   O     O_3   0.125944 0.246110 0.570962 -0.703681
H9    H     H_    0.184885 0.264643 0.638758 0.353598
O14   O     O_3   0.872503 0.245413 0.543419 -0.677992
H10   H     H_    0.927994 0.166345 0.571074 0.392080
C29   C     C_2   0.886810 0.736329 0.377661 0.511154
H11   H     H_    0.793307 0.732846 0.342672 0.027811
O15   O     O_2   0.951673 0.830741 0.335567 -0.500788
C30   C     C_2   0.105790 0.761606 0.560338 0.530317
H12   H     H_    0.193025 0.763792 0.609742 0.093423
O16   O     O_2   0.042140 0.868567 0.558810 -0.505950
O17   O     O_3   0.327951 0.861336 0.362876 -0.647869
H13   H     H_    0.272293 0.932085 0.319951 0.346776
O18   O     O_3   0.667297 0.841060 0.643403 -0.691237
H14   H     H_    0.721142 0.905348 0.688536 0.315771

loop_
_geom_bond_atom_site_label_1
_geom_bond_atom_site_label_2
_ccdc_geom_bond_type
C7    O17   S    
Cu1   N1    S    
C15   C18   A    
C28   O12   D    
O14   H10   S    
C11   C27   S    
Cu2   N2    S    
C22   O14   S    
Cu1   O6    S    
C11   C13   A    
C25   H5    S    
C6    N2    A    
C19   C20   A    
C12   C15   A    
Cu1   O2    S    
C10   O6    A    
C5    N2    A    
Cu2   O8    S    
C2    O2    A    
Cu1   O1    S    
C9    O5    A    
C28   H8    S    
C1    O1    A    
C8    O18   S    
C27   O11   D    
C21   C22   A    
C21   O13   S    
C25   O9    D    
C4    C30   S    
C29   H11   S    
C10   C18   S    
C3    C29   S    
C9    C17   S    
C17   C19   A    
C12   C14   A    
C20   C26   S    
C18   C20   A    
C4    C24   A    
Cu2   O7    S    
C29   O15   D    
C7    N1    A    
C2    O4    A    
O17   H13   S    
C5    H3    S    
C19   C25   S    
Cu2   O3    S    
C9    O7    A    
C26   H6    S    
C1    O3    A    
C1    C24   S    
C30   O16   D    
O18   H14   S    
C11   C16   A    
C21   C24   A    
Cu2   O4    S    
C2    C23   S    
C5    C7    A    
C12   C28   S    
C22   C23   A    
C30   H12   S    
C10   O8    A    
C6    C8    A    
C14   H2    S    
Cu1   Cu2   S    
C13   C14   A    
C8    N1    A    
C3    C23   A    
C6    H4    S    
C13   H1    S    
C3    C4    A    
C15   C16   A    
O13   H9    S    
C26   O10   D    
C16   C17   A    
C27   H7    S    
Cu1   O5    S    
