data_mof_unit_18104.cif
_audit_creation_date              2012-12-11T14:42:12-0500
_audit_creation_method            fapswitch 2.2
_symmetry_space_group_name_H-M    P1
_symmetry_Int_Tables_number       1
_space_group_crystal_system       triclinic
_cell_length_a                    19.011883
_cell_length_b                    10.925454
_cell_length_c                    18.762189
_cell_angle_alpha                 90.075202
_cell_angle_beta                  90.020953
_cell_angle_gamma                 90.116953
_cell_volume                      3897.14732608

loop_
_atom_site_label
_atom_site_type_symbol
_atom_type_description
_atom_site_fract_x
_atom_site_fract_y
_atom_site_fract_z
_atom_type_partial_charge
C1    C     C_R   0.725575 0.958977 0.855091 0.560683
C2    C     C_R   0.274411 0.958877 0.144949 0.556650
C3    C     C_R   0.227396 0.455653 0.853229 0.561763
C4    C     C_R   0.774577 0.459273 0.144808 0.557278
C5    C     C_R   0.697283 0.460179 0.038126 -0.137671
C6    C     C_R   0.296758 0.485288 0.963301 -0.133287
C7    C     C_R   0.197512 0.962321 0.037914 -0.147775
C8    C     C_R   0.802487 0.963025 0.962188 -0.136751
C9    C     C_R   0.761939 0.433052 0.070222 0.033583
C10   C     C_R   0.248193 0.415504 0.923487 0.027772
C11   C     C_R   0.261399 0.931544 0.070538 0.034193
C12   C     C_R   0.738581 0.931863 0.929507 0.033228
C13   C     C_R   0.820146 0.402176 0.028096 -0.126543
C14   C     C_R   0.208652 0.324145 0.956172 -0.139973
C15   C     C_R   0.319078 0.896286 0.028903 -0.130343
C16   C     C_R   0.680908 0.896183 0.971106 -0.126605
C17   C     C_R   0.814074 0.397015 0.955271 -0.129386
C18   C     C_R   0.212438 0.310009 0.028729 -0.123824
C19   C     C_R   0.313566 0.892152 0.956071 -0.132013
C20   C     C_R   0.686483 0.891756 0.043933 -0.128742
C21   C     C_R   0.748501 0.414584 0.923235 0.031250
C22   C     C_R   0.257371 0.384739 0.069762 0.036917
C23   C     C_R   0.248677 0.913905 0.923417 0.031999
C24   C     C_R   0.751408 0.913733 0.076608 0.030905
C25   C     C_R   0.478155 0.275802 0.543602 -0.127162
C26   C     C_R   0.479244 0.279342 0.470950 -0.120180
C27   C     C_R   0.978161 0.775804 0.543600 -0.127099
C28   C     C_R   0.979251 0.779343 0.470949 -0.120131
C29   C     C_R   0.486046 0.170941 0.431490 0.032209
C30   C     C_R   0.492949 0.166184 0.578360 0.037959
C31   C     C_R   0.986049 0.670941 0.431488 0.032275
C32   C     C_R   0.992952 0.666185 0.578358 0.038033
C33   C     C_R   0.492615 0.058354 0.466404 -0.145380
C34   C     C_R   0.495036 0.055819 0.540292 -0.139218
C35   C     C_R   0.992616 0.558354 0.466403 -0.145325
C36   C     C_R   0.995039 0.555820 0.540291 -0.139224
C37   C     C_R   0.820679 0.393155 0.545702 -0.183216
C38   C     C_R   0.177507 0.413139 0.450325 -0.179611
C39   C     C_R   0.320681 0.893158 0.545703 -0.183187
C40   C     C_R   0.677505 0.913146 0.450323 -0.179694
C41   C     C_R   0.831594 0.422827 0.475226 -0.157319
C42   C     C_R   0.166593 0.440264 0.521460 -0.140803
C43   C     C_R   0.331595 0.922831 0.475227 -0.157277
C44   C     C_R   0.666591 0.940272 0.521458 -0.140817
C45   C     C_R   0.529554 0.177562 0.850751 0.554327
C46   C     C_R   0.470486 0.177587 0.149278 0.558117
C47   C     C_R   0.030064 0.677422 0.851074 0.555397
C48   C     C_R   0.970729 0.677680 0.149474 0.558654
C49   C     C_R   0.780560 0.486929 0.437056 -0.015586
C50   C     C_R   0.221339 0.485862 0.563365 -0.009033
C51   C     C_R   0.280561 0.986932 0.437057 -0.015679
C52   C     C_R   0.721338 0.985865 0.563364 -0.009338
C53   C     C_R   0.723134 0.537996 0.473911 -0.117532
C54   C     C_R   0.285990 0.515311 0.531377 -0.106711
C55   C     C_R   0.223136 0.038001 0.473913 -0.117526
C56   C     C_R   0.785990 0.015306 0.531378 -0.106791
C57   C     C_R   0.712208 0.509399 0.546363 0.262045
C58   C     C_R   0.297778 0.488024 0.459602 0.241705
C59   C     C_R   0.212211 0.009406 0.546365 0.262033
C60   C     C_R   0.797778 0.988016 0.459604 0.241991
C61   C     C_R   0.758757 0.428550 0.580488 0.048234
C62   C     C_R   0.244312 0.428807 0.420016 0.028846
C63   C     C_R   0.258759 0.928554 0.580490 0.048120
C64   C     C_R   0.744311 0.928808 0.420016 0.029178
C65   C     C_R   0.738326 0.365218 0.852305 0.551697
C66   C     C_R   0.263338 0.357753 0.144998 0.548756
C67   C     C_R   0.238361 0.865184 0.852331 0.551078
C68   C     C_R   0.761678 0.865163 0.147664 0.545973
C69   C     C_R   0.709577 0.002450 0.639920 0.571175
C70   C     C_R   0.290795 0.003018 0.360053 0.576250
C71   C     C_R   0.209578 0.502449 0.639919 0.570914
C72   C     C_R   0.790795 0.503018 0.360053 0.575732
C73   C     C_R   0.527100 0.175587 0.646669 0.541299
C74   C     C_R   0.468131 0.176652 0.356924 0.547567
C75   C     C_R   0.027101 0.675587 0.646668 0.541496
C76   C     C_R   0.968131 0.676652 0.356924 0.548097
C77   C     C_R   0.740844 0.366220 0.647571 0.557880
C78   C     C_R   0.259926 0.365082 0.353033 0.552384
C79   C     C_R   0.240844 0.866222 0.647572 0.557991
C80   C     C_R   0.759926 0.865082 0.353034 0.549996
C81   C     C_2   0.497288 0.168689 0.921197 -0.107870
C82   C     C_2   0.502835 0.168739 0.078875 -0.107655
C83   C     C_2   0.998937 0.667223 0.921976 -0.111658
C84   C     C_2   0.004340 0.669510 0.079703 -0.108024
C85   C     C_2   0.493261 0.068480 0.038490 -0.163540
C86   C     C_2   0.506828 0.068509 0.961467 -0.164148
C87   C     C_2   0.997917 0.568258 0.039715 -0.160529
C88   C     C_2   0.012979 0.569295 0.963027 -0.162524
C89   C     C_R   0.690317 0.449709 0.964580 -0.133627
C90   C     C_R   0.301517 0.469439 0.036560 -0.141581
C91   C     C_R   0.190879 0.952272 0.964297 -0.141514
C92   C     C_R   0.809201 0.952538 0.035780 -0.134895
Cr1   Cr    Cr6+3 0.769270 0.163730 0.750710 1.009009
Cr2   Cr    Cr6+3 0.230730 0.163730 0.249290 1.001856
Cr3   Cr    Cr6+3 0.269270 0.663730 0.750710 1.006434
Cr4   Cr    Cr6+3 0.730730 0.663730 0.249290 1.004505
Cr5   Cr    Cr6+3 0.612620 0.009790 0.748780 1.012883
Cr6   Cr    Cr6+3 0.387380 0.009790 0.251220 0.977586
Cr7   Cr    Cr6+3 0.112620 0.509790 0.748780 1.013227
Cr8   Cr    Cr6+3 0.887380 0.509790 0.251220 0.980337
Cr9   Cr    Cr6+3 0.614160 0.322500 0.747710 1.024222
Cr10  Cr    Cr6+3 0.385840 0.322500 0.252290 1.006803
Cr11  Cr    Cr6+3 0.114160 0.822500 0.747710 1.022399
Cr12  Cr    Cr6+3 0.885840 0.822500 0.252290 1.004870
H1    H     H_    0.474217 0.984068 0.061960 0.139646
H2    H     H_    0.525849 0.984185 0.937901 0.140253
H3    H     H_    0.980427 0.482744 0.063126 0.141315
H4    H     H_    0.037212 0.487947 0.940591 0.155971
H5    H     H_    0.879205 0.391365 0.449830 0.124451
H6    H     H_    0.116127 0.420353 0.544671 0.127107
H7    H     H_    0.379206 0.891368 0.449831 0.124476
H8    H     H_    0.616124 0.920364 0.544668 0.127047
H9    H     H_    0.687228 0.599236 0.446917 0.133412
H10   H     H_    0.328659 0.553489 0.562569 0.138717
H11   H     H_    0.187231 0.099243 0.446920 0.133354
H12   H     H_    0.828660 0.053480 0.562571 0.138614
H13   H     H_    0.525176 0.251481 0.056043 0.105561
H14   H     H_    0.475011 0.251340 0.944129 0.110513
H15   H     H_    0.025331 0.753248 0.056740 0.105712
H16   H     H_    0.973165 0.747267 0.944272 0.105006
H17   H     H_    0.638980 0.462784 0.940754 0.132814
H18   H     H_    0.338135 0.524516 0.067167 0.121275
H19   H     H_    0.140068 0.968620 0.940019 0.129454
H20   H     H_    0.860047 0.968981 0.060073 0.129912
H21   H     H_    0.652410 0.487869 0.069803 0.121804
H22   H     H_    0.327962 0.556738 0.938708 0.136642
H23   H     H_    0.153033 0.993055 0.069198 0.116821
H24   H     H_    0.846948 0.994177 0.930958 0.123700
H25   H     H_    0.871213 0.383956 0.051121 0.128279
H26   H     H_    0.171696 0.268369 0.926358 0.130055
H27   H     H_    0.369461 0.874104 0.052281 0.125082
H28   H     H_    0.630482 0.873879 0.947707 0.127317
H29   H     H_    0.859911 0.370932 0.924490 0.132738
H30   H     H_    0.179932 0.239452 0.052441 0.139689
H31   H     H_    0.359180 0.863350 0.925781 0.130546
H32   H     H_    0.640866 0.862657 0.074186 0.130889
H33   H     H_    0.472995 0.361449 0.572220 0.124580
H34   H     H_    0.473121 0.367748 0.445975 0.178743
H35   H     H_    0.973002 0.861451 0.572218 0.124557
H36   H     H_    0.973130 0.867749 0.445973 0.178764
H37   H     H_    0.495737 0.973364 0.436848 0.104064
H38   H     H_    0.502678 0.969361 0.567266 0.113998
H39   H     H_    0.995737 0.473363 0.436848 0.104166
H40   H     H_    0.002680 0.469361 0.567265 0.113970
H41   H     H_    0.859527 0.336939 0.571964 0.138019
H42   H     H_    0.134823 0.371564 0.420586 0.129103
H43   H     H_    0.359528 0.836940 0.571964 0.138047
H44   H     H_    0.634821 0.871576 0.420582 0.128836
O1    O     O_R   0.784320 0.290430 0.830510 -0.522158
O2    O     O_R   0.215680 0.290430 0.169490 -0.528781
O3    O     O_R   0.284320 0.790430 0.830510 -0.525941
O4    O     O_R   0.715680 0.790430 0.169490 -0.523169
O5    O     O_R   0.554640 0.080370 0.673500 -0.526762
O6    O     O_R   0.445360 0.080370 0.326500 -0.525392
O7    O     O_R   0.054640 0.580370 0.673500 -0.526657
O8    O     O_R   0.945360 0.580370 0.326500 -0.525242
O9    O     O_R   0.543920 0.282180 0.666790 -0.538849
O10   O     O_R   0.456080 0.282180 0.333210 -0.522216
O11   O     O_R   0.043920 0.782180 0.666790 -0.538970
O12   O     O_R   0.956080 0.782180 0.333210 -0.521938
O13   O     O_R   0.679040 0.374160 0.674430 -0.468896
O14   O     O_R   0.320960 0.374160 0.325570 -0.464389
O15   O     O_R   0.179040 0.874160 0.674430 -0.469145
O16   O     O_R   0.820960 0.874160 0.325570 -0.465175
O17   O     O_3   0.665350 0.165340 0.749070 -0.269903
O18   O     O_3   0.334650 0.165340 0.250930 -0.262326
O19   O     O_3   0.165350 0.665340 0.749070 -0.268413
O20   O     O_3   0.834650 0.665340 0.250930 -0.260842
O21   O     O_R   0.762640 0.040960 0.825200 -0.495988
O22   O     O_R   0.237360 0.040960 0.174800 -0.500241
O23   O     O_R   0.262640 0.540960 0.825200 -0.500763
O24   O     O_R   0.737360 0.540960 0.174800 -0.494155
O25   O     O_R   0.667400 0.923970 0.829950 -0.520079
O26   O     O_R   0.332600 0.923970 0.170050 -0.531419
O27   O     O_R   0.167400 0.423970 0.829950 -0.518729
O28   O     O_R   0.832600 0.423970 0.170050 -0.531148
O29   O     O_R   0.553960 0.081340 0.821780 -0.499616
O30   O     O_R   0.446040 0.081340 0.178220 -0.497471
O31   O     O_R   0.053960 0.581340 0.821780 -0.497439
O32   O     O_R   0.946040 0.581340 0.178220 -0.495698
O33   O     O_R   0.543180 0.283240 0.826740 -0.516164
O34   O     O_R   0.456820 0.283240 0.173260 -0.518499
O35   O     O_R   0.043180 0.783240 0.826740 -0.516516
O36   O     O_R   0.956820 0.783240 0.173260 -0.521777
O37   O     O_R   0.678360 0.375140 0.822710 -0.500286
O38   O     O_R   0.321640 0.375140 0.177290 -0.508165
O39   O     O_R   0.178360 0.875140 0.822710 -0.500426
O40   O     O_R   0.821640 0.875140 0.177290 -0.511044
O41   O     O_R   0.785050 0.289380 0.670560 -0.548098
O42   O     O_R   0.214950 0.289380 0.329440 -0.543895
O43   O     O_R   0.285050 0.789380 0.670560 -0.547548
O44   O     O_R   0.714950 0.789380 0.329440 -0.545996
O45   O     O_R   0.763320 0.039990 0.676930 -0.505187
O46   O     O_R   0.236680 0.039990 0.323070 -0.501402
O47   O     O_R   0.263320 0.539990 0.676930 -0.505629
O48   O     O_R   0.736680 0.539990 0.323070 -0.502112
O49   O     O_R   0.668130 0.922920 0.670000 -0.496817
O50   O     O_R   0.331870 0.922920 0.330000 -0.539026
O51   O     O_R   0.168130 0.422920 0.670000 -0.498574
O52   O     O_R   0.831870 0.422920 0.330000 -0.539433
O53   O     O_3   0.663439 0.572320 0.586861 -0.549762
C93   C     C_3   0.593985 0.547524 0.564439 0.019864
H45   H     H_    0.566718 0.501662 0.609385 0.185102
H46   H     H_    0.589461 0.485896 0.517068 0.100233
C94   C     C_3   0.557122 0.668507 0.548907 -0.279259
H47   H     H_    0.570517 0.736330 0.590985 0.199084
H48   H     H_    0.575492 0.704017 0.496661 0.143899
C95   C     C_3   0.477635 0.653190 0.547275 -0.502743
H49   H     H_    0.462977 0.571786 0.515429 0.183538
H50   H     H_    0.453939 0.735573 0.522813 0.131605
H51   H     H_    0.456847 0.641930 0.602200 0.150915
O54   O     O_3   0.365126 0.499532 0.432964 -0.586522
C96   C     C_3   0.370115 0.607782 0.392350 0.015946
H52   H     H_    0.368293 0.687840 0.428514 0.132533
H53   H     H_    0.326634 0.615354 0.352662 0.144451
C97   C     C_3   0.440261 0.607092 0.352219 -0.267149
H54   H     H_    0.484296 0.593553 0.390294 0.152816
H55   H     H_    0.440637 0.529734 0.313751 0.195418
C98   C     C_3   0.452622 0.725961 0.311638 -0.453444
H56   H     H_    0.409920 0.740906 0.272214 0.176076
H57   H     H_    0.503444 0.720699 0.282662 0.125543
H58   H     H_    0.455122 0.804337 0.349253 0.159557
O55   O     O_3   0.163445 0.072331 0.586865 -0.550264
C99   C     C_3   0.093990 0.047529 0.564449 0.019682
H59   H     H_    0.066728 0.001666 0.609397 0.184965
H60   H     H_    0.089463 0.985902 0.517078 0.100465
C100  C     C_3   0.057123 0.168509 0.548921 -0.279368
H61   H     H_    0.070515 0.236331 0.591001 0.198874
H62   H     H_    0.075492 0.204026 0.496676 0.143989
C101  C     C_3   0.977636 0.153184 0.547287 -0.502759
H63   H     H_    0.962982 0.071781 0.515438 0.183556
H64   H     H_    0.953937 0.235567 0.522826 0.131631
H65   H     H_    0.956847 0.141917 0.602211 0.150710
O56   O     O_3   0.865127 0.999516 0.432968 -0.586307
C102  C     C_3   0.870120 0.107768 0.392357 0.015895
H66   H     H_    0.868299 0.187824 0.428524 0.132505
H67   H     H_    0.826642 0.115347 0.352667 0.144008
C103  C     C_3   0.940268 0.107073 0.352230 -0.267381
H68   H     H_    0.984300 0.093507 0.390306 0.152878
H69   H     H_    0.940639 0.029731 0.313752 0.195450
C104  C     C_3   0.952641 0.225956 0.311668 -0.452892
H70   H     H_    0.909945 0.240923 0.272241 0.176536
H71   H     H_    0.003467 0.220694 0.282698 0.126775
H72   H     H_    0.955141 0.304316 0.349294 0.159391

loop_
_geom_bond_atom_site_label_1
_geom_bond_atom_site_label_2
_ccdc_geom_bond_type
C58   C62   A    
C87   C88   S    
Cr6   O6    S    
Cr11  O19   S    
C95   H50   S    
C55   C59   A    
C80   O44   A    
O53   C93   S    
C14   C18   A    
Cr1   O1    S    
C35   C36   A    
C78   O42   A    
C84   C87   D    
Cr11  O11   S    
C99   H59   S    
Cr2   O18   S    
C32   C75   S    
Cr4   O20   S    
C31   C76   S    
C45   O33   A    
C21   C89   A    
C96   H52   S    
C15   C19   A    
C103  C104  S    
Cr1   O21   S    
C50   C54   A    
C93   H46   S    
C46   O30   A    
C37   C41   A    
Cr11  O35   S    
C32   C36   A    
C56   C60   A    
C97   H55   S    
C66   O2    A    
C92   H20   S    
C85   C86   S    
Cr6   O26   S    
C85   H1    S    
C96   C97   S    
Cr12  O20   S    
C49   C53   A    
C19   H31   S    
Cr4   O4    S    
C103  H69   S    
C73   O9    A    
C74   O6    A    
C101  H65   S    
C104  H70   S    
Cr7   O31   S    
C23   C67   S    
C57   C61   A    
C9    C13   A    
C22   C66   S    
C47   O31   A    
C52   C69   S    
C46   C82   S    
C11   C15   A    
C8    H24   S    
C38   H42   S    
C12   C16   A    
C29   C33   A    
C67   O39   A    
C95   H49   S    
C93   C94   S    
Cr7   O7    S    
Cr8   O28   S    
C102  H66   S    
C97   C98   S    
C8    C92   A    
C51   C70   S    
Cr5   O5    S    
Cr6   O30   S    
C18   C22   A    
C95   H51   S    
C81   C86   D    
C2    O26   A    
C16   C20   A    
C71   O47   A    
C88   H4    S    
C70   O46   A    
C44   C52   A    
C96   H53   S    
C83   C88   D    
Cr1   O17   S    
Cr10  O18   S    
C91   H19   S    
C69   O49   A    
C64   C80   S    
Cr10  O10   S    
C86   H2    S    
C1    C12   S    
C43   H7    S    
Cr12  O12   S    
Cr9   O37   S    
C2    C11   S    
C24   C92   A    
C41   C49   A    
C53   H9    S    
C60   C64   A    
Cr7   O19   S    
C94   H48   S    
C77   O13   A    
Cr12  O40   S    
C65   O37   A    
Cr5   O25   S    
C93   H45   S    
Cr6   O50   S    
C67   O3    A    
Cr10  O34   S    
C57   O53   S    
Cr5   O49   S    
C60   O56   S    
C97   H54   S    
C6    H22   S    
O55   C99   S    
C47   O35   A    
C10   C14   A    
C61   C77   S    
C98   H56   S    
C48   O36   A    
C30   C73   S    
C30   C34   A    
C19   C23   A    
C63   C79   S    
C29   C74   S    
C41   H5    S    
C51   C55   A    
C33   H37   S    
C25   C26   A    
C6    C90   A    
C81   H14   S    
C49   C72   S    
C80   O16   A    
C25   H33   S    
C48   C84   S    
Cr3   O19   S    
C104  H71   S    
C83   H16   S    
C7    C11   A    
C50   C71   S    
Cr2   O42   S    
C37   H41   S    
C5    C9    A    
C68   O4    A    
C72   O52   A    
C34   H38   S    
C22   C90   A    
Cr5   O29   S    
C100  H61   S    
Cr4   O48   S    
C8    C12   A    
C1    O25   A    
C69   O45   A    
C33   C34   A    
C56   H12   S    
Cr11  O39   S    
Cr10  O38   S    
C20   H32   S    
C74   O10   A    
C101  H64   S    
C68   O40   A    
Cr6   O18   S    
C59   O55   S    
C42   C50   A    
Cr8   O52   S    
C3    O27   A    
Cr12  O36   S    
C2    O22   A    
C78   O14   A    
Cr1   O41   S    
Cr2   O22   S    
C66   O38   A    
C102  H67   S    
C76   O8    A    
C54   C58   A    
C102  C103  S    
C23   C91   A    
Cr3   O3    S    
O56   C102  S    
C73   O5    A    
Cr8   O32   S    
C99   C100  S    
C44   H8    S    
C7    C91   A    
C48   O32   A    
Cr9   O33   S    
Cr10  O14   S    
C14   H26   S    
C94   C95   S    
C75   O11   A    
C25   C30   A    
C94   H47   S    
C103  H68   S    
C76   O12   A    
C40   H44   S    
Cr3   O47   S    
Cr3   O43   S    
C4    O24   A    
C21   C65   S    
C27   C32   A    
Cr2   O46   S    
C59   C63   A    
C62   C78   S    
C28   C31   A    
Cr1   O45   S    
C79   O15   A    
C28   H36   S    
C26   H34   S    
C87   H3    S    
C99   H60   S    
Cr4   O24   S    
C72   O48   A    
C37   C61   A    
C71   O51   A    
C58   O54   S    
Cr2   O2    S    
C82   C85   D    
C39   C63   A    
C39   H43   S    
Cr11  O15   S    
C40   C64   A    
C13   C17   A    
C90   H18   S    
Cr8   O20   S    
C104  H72   S    
C77   O41   A    
C46   O34   A    
Cr9   O13   S    
C42   H6    S    
C101  H63   S    
C100  H62   S    
Cr9   O17   S    
C98   H58   S    
C17   H29   S    
C45   O29   A    
C55   H11   S    
C3    O23   A    
Cr12  O16   S    
C89   H17   S    
C43   C51   A    
C84   H15   S    
Cr5   O17   S    
C54   H10   S    
C31   C35   A    
C1    O21   A    
C53   C57   A    
C5    H21   S    
C18   H30   S    
C45   C81   S    
C98   H57   S    
C65   O1    A    
Cr4   O44   S    
C16   H28   S    
C27   H35   S    
Cr7   O27   S    
C6    C10   A    
C24   C68   S    
Cr9   O9    S    
C47   C83   S    
C38   C42   A    
C75   O7    A    
C40   C44   A    
C100  C101  S    
C15   H27   S    
O54   C96   S    
C39   C43   A    
C26   C29   A    
C70   O50   A    
C4    O28   A    
Cr7   O51   S    
C27   C28   A    
C3    C10   S    
C13   H25   S    
C79   O43   A    
C82   H13   S    
C7    H23   S    
C4    C9    S    
C36   H40   S    
Cr8   O8    S    
Cr3   O23   S    
C20   C24   A    
C5    C89   A    
C52   C56   A    
C35   H39   S    
C38   C62   A    
C17   C21   A    
