data_mof_unit_33219.cif
_audit_creation_date              2012-12-11T16:24:25-0500
_audit_creation_method            fapswitch 2.2
_symmetry_space_group_name_H-M    P1
_symmetry_Int_Tables_number       1
_space_group_crystal_system       triclinic
_cell_length_a                    14.704485
_cell_length_b                    14.681612
_cell_length_c                    33.292679
_cell_angle_alpha                 95.874143
_cell_angle_beta                  96.051644
_cell_angle_gamma                 61.237829
_cell_volume                      6254.55397867

loop_
_atom_site_label
_atom_site_type_symbol
_atom_type_description
_atom_site_fract_x
_atom_site_fract_y
_atom_site_fract_z
_atom_type_partial_charge
C1    C     C_R   0.390978 0.700208 0.446071 0.596289
C2    C     C_1   0.341481 0.325983 0.228227 0.135468
C3    C     C_1   0.346250 0.329010 0.264569 0.132886
C4    C     C_R   0.404258 0.385318 0.434220 0.565176
C5    C     C_R   0.297053 0.300111 0.100702 0.007628
C6    C     C_R   0.761852 0.371212 0.410920 -0.043631
C7    C     C_R   0.781841 0.441082 0.392525 -0.137232
C8    C     C_R   0.807957 0.423271 0.352195 0.226999
C9    C     C_R   0.814617 0.333896 0.329994 0.027225
C10   C     C_R   0.805508 0.257784 0.349292 0.113044
C11   C     C_R   0.783127 0.274342 0.390156 0.231073
C12   C     C_R   0.348224 0.337270 0.308039 0.026838
C13   C     C_R   0.838664 0.312714 0.205289 0.416519
C14   C     C_R   0.823618 0.325405 0.286200 0.384292
C15   C     C_R   0.828458 0.394031 0.141362 0.205646
C16   C     C_R   0.702747 0.408944 0.447867 0.558427
C17   C     C_R   0.849535 0.383400 0.100230 0.056392
C18   C     C_R   0.901779 0.198213 0.098613 0.041901
C19   C     C_R   0.880760 0.208819 0.139680 0.202257
C20   C     C_R   0.848378 0.305567 0.161270 0.070287
C21   C     C_R   0.898874 0.283106 0.080456 -0.042679
C22   C     C_R   0.372086 0.754474 0.408508 0.011524
C23   C     C_R   0.409371 0.249881 0.330698 0.067886
C24   C     C_R   0.269958 0.824727 0.394228 0.029613
C25   C     C_R   0.251314 0.853655 0.353694 0.230148
C26   C     C_R   0.335172 0.816305 0.329033 0.029984
C27   C     C_R   0.437814 0.756354 0.344424 0.035520
C28   C     C_R   0.393097 0.702078 0.561072 0.579647
C29   C     C_R   0.456778 0.726299 0.384514 0.214328
C30   C     C_R   0.308117 0.845232 0.205138 0.360874
C31   C     C_R   0.315570 0.831734 0.285805 0.420813
C32   C     C_R   0.241787 0.831822 0.133102 0.073179
C33   C     C_R   0.238932 0.850897 0.092074 0.233399
C34   C     C_R   0.418286 0.262407 0.373257 0.090874
C35   C     C_R   0.372974 0.903797 0.108722 0.034464
C36   C     C_R   0.377972 0.881031 0.148657 -0.119325
C37   C     C_R   0.309263 0.851303 0.161565 -0.017060
C38   C     C_R   0.295767 0.898714 0.080846 0.037427
C39   C     C_R   0.367054 0.365453 0.583518 -0.003140
C40   C     C_R   0.406529 0.388265 0.548805 0.577730
C41   C     C_R   0.271397 0.438438 0.599467 0.218880
C42   C     C_R   0.246273 0.422243 0.637157 0.198332
C43   C     C_R   0.320340 0.338892 0.659772 0.079482
C44   C     C_R   0.411421 0.262010 0.642309 0.198406
C45   C     C_R   0.415494 0.258742 0.161663 0.036102
C46   C     C_R   0.432521 0.275043 0.603904 -0.169522
C47   C     C_R   0.295622 0.337538 0.783445 0.345945
C48   C     C_R   0.306411 0.337880 0.702848 0.418438
C49   C     C_R   0.201287 0.399579 0.847433 0.075583
C50   C     C_R   0.199949 0.386898 0.888829 0.221013
C51   C     C_R   0.380422 0.249130 0.888632 0.043075
C52   C     C_R   0.705110 0.411168 0.562039 0.558594
C53   C     C_R   0.382011 0.265622 0.848399 -0.117520
C54   C     C_R   0.292385 0.336052 0.827143 -0.015301
C55   C     C_R   0.286368 0.303798 0.908359 0.036402
C56   C     C_R   0.399013 0.247507 0.119188 0.234806
C57   C     C_R   0.765913 0.373179 0.601220 -0.025363
C58   C     C_R   0.817268 0.425694 0.623026 0.076041
C59   C     C_R   0.844592 0.412045 0.664735 0.104732
C60   C     C_R   0.819960 0.347406 0.684473 -0.011926
C61   C     C_R   0.779345 0.287112 0.662289 0.090046
C62   C     C_R   0.760249 0.293637 0.620171 0.069450
C63   C     C_R   0.909831 0.216014 0.820134 0.059634
C64   C     C_R   0.366622 0.363442 0.392786 -0.035305
C65   C     C_R   0.920771 0.202390 0.861861 0.064628
C66   C     C_R   0.854555 0.389623 0.875806 0.066853
C67   C     C_R   0.216979 0.379794 0.123596 0.015890
C68   C     C_R   0.837919 0.403521 0.833685 0.248264
C69   C     C_R   0.868817 0.316294 0.806345 0.036549
C70   C     C_1   0.853267 0.330544 0.763554 0.135485
C71   C     C_1   0.838938 0.339790 0.727606 0.094974
C72   C     C_R   0.905271 0.287589 0.889908 -0.032036
C73   C     C_R   0.376739 0.754719 0.601924 0.010183
C74   C     C_R   0.276170 0.813778 0.616242 0.233518
C75   C     C_R   0.265378 0.846013 0.658025 0.232127
C76   C     C_R   0.290816 0.446707 0.369758 0.041922
C77   C     C_R   0.354578 0.811597 0.684739 0.050423
C78   C     C_R   0.232945 0.387751 0.166102 0.240463
C79   C     C_R   0.453923 0.756390 0.670024 0.048874
C80   C     C_R   0.464398 0.730428 0.628843 -0.164971
C81   C     C_R   0.372447 0.918113 0.828944 0.099836
C82   C     C_R   0.354963 0.943460 0.869833 -0.147410
C83   C     C_R   0.248932 0.856359 0.866191 0.254820
C84   C     C_R   0.267282 0.830635 0.824859 -0.104562
C85   C     C_R   0.326383 0.863682 0.806205 0.009459
C86   C     C_1   0.335795 0.845126 0.763419 0.075129
C87   C     C_1   0.343832 0.830658 0.727527 0.123303
C88   C     C_R   0.286816 0.434613 0.327141 0.243403
C89   C     C_R   0.330764 0.324519 0.184757 0.022858
C90   C     C_R   0.290523 0.916355 0.888520 0.041176
C91   C     C_R   0.960338 0.265032 0.044915 0.564151
C92   C     C_R   0.273812 0.261370 0.059702 0.585045
C93   C     C_R   0.259885 0.958011 0.043646 0.580911
C94   C     C_R   0.960013 0.268591 0.931013 0.564477
C95   C     C_R   0.270941 0.264766 0.945199 0.576014
C96   C     C_R   0.256490 0.964696 0.929040 0.577396
Cr1   Cr    Cr6+3 0.576280 0.580550 0.506370 1.101501
Cr2   Cr    Cr6+3 0.346780 0.572400 0.496520 1.149614
Cr3   Cr    Cr6+3 0.576960 0.347070 0.497150 1.107844
Cr4   Cr    Cr6+3 0.087320 0.083240 0.984860 1.146276
Cr5   Cr    Cr6+3 0.087720 0.316210 0.996740 1.143147
Cr6   Cr    Cr6+3 0.317350 0.090340 0.995890 1.118257
H1    H     H_    0.434044 0.889982 0.170282 0.184160
H2    H     H_    0.815932 0.552183 0.353073 0.345232
H3    H     H_    0.807632 0.535972 0.149853 0.366736
H4    H     H_    0.942678 0.060668 0.147218 0.366955
H5    H     H_    0.606348 0.674853 0.386311 0.345661
H6    H     H_    0.165767 0.773136 0.071532 0.361862
H7    H     H_    0.099944 0.920514 0.353861 0.371499
H8    H     H_    0.167349 0.584356 0.598510 0.347803
H9    H     H_    0.074629 0.518556 0.897874 0.358710
H10   H     H_    0.097884 0.515617 0.630159 0.362870
H11   H     H_    0.541451 0.132316 0.647633 0.357626
H12   H     H_    0.504449 0.217448 0.591265 0.173008
H13   H     H_    0.798437 0.551242 0.838640 0.370260
H14   H     H_    0.133172 0.841792 0.604088 0.348549
H15   H     H_    0.166492 0.784694 0.864991 0.344984
H16   H     H_    0.121584 0.953940 0.652356 0.351924
H17   H     H_    0.086465 0.471236 0.176526 0.360145
H18   H     H_    0.211526 0.582513 0.317988 0.359445
H19   H     H_    0.453342 0.220325 0.833070 0.187329
H20   H     H_    0.387304 0.989864 0.886374 0.173202
H21   H     H_    0.542008 0.684106 0.618412 0.178015
H22   H     H_    0.233283 0.787261 0.806996 0.141729
H23   H     H_    0.771011 0.513087 0.408700 0.163919
H24   H     H_    0.547262 0.167438 0.109795 0.370253
H25   H     H_    0.803266 0.198127 0.437098 0.344384
I1    I     I_    0.789312 0.519952 0.066436 -0.170304
I2    I     I_    0.059534 0.499344 0.814528 -0.198895
I3    I     I_    0.525649 0.140227 0.915873 -0.195769
I4    I     I_    0.945829 0.055848 0.880495 -0.128970
I5    I     I_    0.964716 0.083844 0.777532 -0.196676
I6    I     I_    0.738875 0.191908 0.693345 -0.195516
I7    I     I_    0.737732 0.172211 0.586449 -0.232434
I8    I     I_    0.864500 0.517076 0.592872 -0.214599
I9    I     I_    0.788272 0.522664 0.917792 -0.184353
I10   I     I_    0.501644 0.126426 0.407573 -0.152736
I11   I     I_    0.920344 0.490766 0.699183 -0.108564
I12   I     I_    0.816186 0.119783 0.317231 -0.065939
I13   I     I_    0.463370 0.970348 0.802708 -0.205342
I14   I     I_    0.591696 0.704225 0.708786 -0.203456
I15   I     I_    0.169906 0.585762 0.397089 -0.193200
I16   I     I_    0.077834 0.499003 0.095485 -0.192082
I17   I     I_    0.919417 0.059169 0.064096 -0.142878
I18   I     I_    0.147058 0.894520 0.434987 -0.197169
I19   I     I_    0.565314 0.171643 0.192185 -0.191326
I20   I     I_    0.562916 0.701358 0.305005 -0.176922
I21   I     I_    0.130413 0.793353 0.152440 -0.155413
I22   I     I_    0.486870 0.944067 0.095169 -0.157202
I23   I     I_    0.489639 0.100251 0.299578 -0.157599
N1    N     N_R   0.759974 0.396563 0.223320 -0.119925
N2    N     N_R   0.312018 0.915976 0.270980 -0.149671
N3    N     N_R   0.308088 0.922669 0.231234 -0.195913
N4    N     N_R   0.261577 0.428320 0.765661 -0.173820
N5    N     N_R   0.266898 0.428423 0.726060 -0.144441
N6    N     N_R   0.340896 0.247033 0.720751 -0.123730
N7    N     N_R   0.335561 0.246894 0.760363 -0.184981
N8    N     N_R   0.752692 0.402824 0.263088 -0.136550
N9    N     N_R   0.902746 0.241878 0.268331 -0.169725
N10   N     N_R   0.910050 0.235705 0.228556 -0.147203
N11   N     N_R   0.312215 0.760814 0.220111 -0.153072
N12   N     N_R   0.315999 0.754142 0.259829 -0.167855
O1    O     O_R   0.679450 0.499830 0.463150 -0.473461
O2    O     O_R   0.340240 0.172500 0.045430 -0.422829
O3    O     O_R   0.309670 0.000990 0.032050 -0.488794
O4    O     O_R   0.480650 0.664000 0.464630 -0.436909
O5    O     O_R   0.168330 0.982130 0.939200 -0.426881
O6    O     O_R   0.000140 0.178170 0.944610 -0.481911
O7    O     O_R   0.983010 0.336750 0.948660 -0.453139
O8    O     O_R   0.181800 0.312190 0.959860 -0.431364
O9    O     O_R   0.338500 0.175680 0.956950 -0.493246
O10   O     O_R   0.308050 0.003930 0.950020 -0.518799
O11   O     O_3   0.164130 0.163270 0.992500 -0.307117
O12   O     O_R   0.356040 0.477400 0.534170 -0.434731
O13   O     O_R   0.323930 0.675950 0.455370 -0.478196
O14   O     O_R   0.354700 0.475360 0.451930 -0.477163
O15   O     O_R   0.494470 0.320860 0.448390 -0.464059
O16   O     O_R   0.662580 0.357570 0.460050 -0.480032
O17   O     O_R   0.680900 0.502040 0.551870 -0.486502
O18   O     O_R   0.481990 0.666040 0.546870 -0.521208
O19   O     O_R   0.325370 0.678160 0.544080 -0.428882
O20   O     O_3   0.479838 0.185492 0.094773 -0.620626
O21   O     O_3   0.778969 0.196180 0.408268 -0.617671
O22   O     O_3   0.823743 0.493779 0.333400 -0.621993
O23   O     O_R   0.495910 0.323070 0.537100 -0.507440
O24   O     O_3   0.791859 0.488695 0.163305 -0.631055
O25   O     O_3   0.889229 0.126611 0.159527 -0.623703
O26   O     O_3   0.556598 0.663595 0.400086 -0.662089
O27   O     O_3   0.178014 0.828254 0.062596 -0.627868
O28   O     O_3   0.152868 0.915872 0.336646 -0.632405
O29   O     O_3   0.206384 0.526329 0.578781 -0.651287
O30   O     O_3   0.113197 0.450424 0.910119 -0.640227
O31   O     O_3   0.150900 0.486638 0.652827 -0.646223
O32   O     O_3   0.481658 0.178124 0.664115 -0.626573
O33   O     O_3   0.792892 0.500547 0.818001 -0.634928
O34   O     O_R   0.663920 0.359620 0.542290 -0.477586
O35   O     O_3   0.191141 0.835414 0.589294 -0.648876
O36   O     O_3   0.189823 0.825328 0.884969 -0.630283
O37   O     O_3   0.169759 0.909126 0.673693 -0.663201
O38   O     O_3   0.154561 0.455877 0.190536 -0.613992
O39   O     O_3   0.223401 0.516303 0.303090 -0.616187
O40   O     O_3   0.500010 0.500010 0.500010 -0.292620
O41   O     O_R   0.170070 0.978950 0.027680 -0.429205
O42   O     O_R   0.001760 0.175230 0.026640 -0.480465
O43   O     O_R   0.984760 0.333570 0.037150 -0.467972
O44   O     O_R   0.183410 0.309240 0.041890 -0.490837

loop_
_geom_bond_atom_site_label_1
_geom_bond_atom_site_label_2
_ccdc_geom_bond_type
C81   I13   S    
C66   C68   A    
C63   C65   A    
C60   C71   S    
C22   C29   A    
C27   C29   A    
C18   C21   A    
H25   O21   S    
C41   C42   A    
C5    C56   A    
Cr5   O11   S    
C35   C36   A    
C52   O34   A    
Cr1   O40   S    
C5    C67   A    
C67   I16   S    
C81   C82   A    
C61   I6    S    
C7    C8    A    
C39   C41   A    
C53   C54   A    
Cr6   O11   S    
C12   C23   A    
C1    O13   A    
C26   C27   A    
C14   N8    A    
C36   H1    S    
C36   C37   A    
H4    O25   S    
Cr3   O15   S    
C25   O28   S    
C94   O7    A    
C21   C91   S    
Cr2   O12   S    
Cr4   O41   S    
Cr1   O17   S    
C28   C73   S    
Cr1   O4    S    
H8    O29   S    
C33   O27   S    
C18   C19   A    
H11   O32   S    
C2    C89   S    
C3    C12   S    
C91   O43   A    
C30   N3    A    
C66   C72   A    
C63   C69   A    
C45   C56   A    
C16   O16   A    
C8    C9    A    
Cr1   O1    S    
Cr5   O7    S    
C70   C71   T    
C88   O39   S    
C50   O30   S    
C43   C48   S    
C76   C88   A    
C13   N10   A    
C1    C22   S    
C91   O42   A    
C72   C94   S    
C92   O2    A    
C48   N6    A    
C31   N12   A    
C93   O3    A    
C59   C60   A    
C16   O1    A    
H18   O39   S    
N9    N10   A    
C61   C62   A    
C67   C78   A    
C78   O38   S    
H16   O37   S    
C65   I4    S    
C51   I3    S    
C44   C46   A    
C28   O18   A    
N11   N12   A    
C31   N2    A    
C77   C79   A    
C78   C89   A    
Cr6   O10   S    
C15   C20   A    
C15   O24   S    
C32   C37   A    
C74   C75   A    
C41   O29   S    
C45   I19   S    
N1    N8    A    
C57   C62   A    
C35   C38   A    
C11   O21   S    
C24   C25   A    
C13   N1    A    
Cr3   O16   S    
C55   C95   S    
C10   C11   A    
C94   O6    A    
C6    C11   A    
C9    C14   S    
C46   H12   S    
C86   C87   T    
C68   C69   A    
Cr1   O18   S    
C40   O23   A    
C59   I11   S    
C25   C26   A    
C85   C86   S    
C49   I2    S    
H5    O26   S    
C17   C21   A    
H17   O38   S    
C30   C37   S    
C60   C61   A    
C51   C53   A    
H3    O24   S    
C42   O31   S    
C43   C44   A    
Cr2   O14   S    
C83   C84   A    
C74   O35   S    
H7    O28   S    
C23   C34   A    
C34   C64   A    
C64   C76   A    
C96   O5    A    
Cr5   O8    S    
C63   I5    S    
C84   C85   A    
C83   O36   S    
C75   C77   A    
N4    N5    A    
Cr5   O43   S    
C39   C46   A    
C66   I9    S    
C27   I20   S    
C7    H23   S    
C48   N5    A    
C47   N7    A    
Cr6   O3    S    
C47   C54   S    
Cr3   O40   S    
C96   O10   A    
C22   C24   A    
H6    O27   S    
H24   O20   S    
C42   C43   A    
C52   C57   S    
C73   C74   A    
Cr3   O23   S    
C45   C89   A    
C9    C10   A    
H9    O30   S    
Cr6   O9    S    
C15   C17   A    
C83   C90   A    
H13   O33   S    
N6    N7    A    
C13   C20   S    
H2    O22   S    
C23   I23   S    
C50   C55   A    
C17   I1    S    
C90   C96   S    
C6    C7    A    
C32   I21   S    
C47   N4    A    
C75   O37   S    
C58   I8    S    
C84   H22   S    
C65   C72   A    
C4    C64   S    
C34   I10   S    
C44   O32   S    
C33   C38   A    
C82   C90   A    
C29   O26   S    
Cr4   O6    S    
C14   N9    A    
C24   I18   S    
C32   C33   A    
C62   I7    S    
C19   C20   A    
C18   I17   S    
C2    C3    T    
C58   C59   A    
C52   O17   A    
C53   H19   S    
C40   O12   A    
H14   O35   S    
Cr4   O42   S    
C8    O22   S    
C57   C58   A    
C79   I14   S    
C56   O20   S    
C1    O4    A    
Cr2   O19   S    
C28   O19   A    
Cr2   O40   S    
Cr3   O34   S    
C38   C93   S    
Cr4   O5    S    
C73   C80   A    
C4    O15   A    
C68   O33   S    
C51   C55   A    
C10   I12   S    
C69   C70   S    
C93   O41   A    
C95   O8    A    
C81   C85   A    
H10   O31   S    
C5    C92   S    
C92   O44   A    
Cr5   O44   S    
C6    C16   S    
C79   C80   A    
C39   C40   S    
C26   C31   S    
N2    N3    A    
C77   C87   S    
Cr6   O2    S    
C49   C50   A    
C4    O14   A    
Cr4   O11   S    
C19   O25   S    
C35   I22   S    
C30   N11   A    
C95   O9    A    
C82   H20   S    
C12   C88   A    
H15   O36   S    
C49   C54   A    
Cr2   O13   S    
C80   H21   S    
C76   I15   S    
