data_mof_unit_64107.cif
_audit_creation_date              2013-03-05T16:09:17-0500
_audit_creation_method            fapswitch 2.2
_symmetry_space_group_name_H-M    P1
_symmetry_Int_Tables_number       1
_space_group_crystal_system       monoclinic
_cell_length_a                    37.41622
_cell_length_b                    30.38854
_cell_length_c                    21.928177
_cell_angle_alpha                 90.0
_cell_angle_beta                  125.687588
_cell_angle_gamma                 90.0
_cell_volume                      20250.7244119

loop_
_atom_site_label
_atom_site_type_symbol
_atom_site_description
_atom_site_fract_x
_atom_site_fract_y
_atom_site_fract_z
_atom_type_partial_charge
O1    O     O_R   0.435730 0.537200 0.935720 -0.575837
O2    O     O_R   0.564270 0.537200 0.064280 -0.575837
O3    O     O_R   0.935730 0.037200 0.935720 -0.575837
O4    O     O_R   0.064270 0.037200 0.064280 -0.575837
O5    O     O_R   0.435730 0.462800 0.935730 -0.592798
O6    O     O_R   0.564270 0.462800 0.064270 -0.592797
O7    O     O_R   0.935730 0.962800 0.935730 -0.592797
O8    O     O_R   0.064270 0.962800 0.064270 -0.592797
C1    C     C_R   0.414881 0.499964 0.914670 0.789885
C2    C     C_R   0.585119 0.499964 0.085330 0.789883
C3    C     C_R   0.914881 0.999964 0.914670 0.789884
C4    C     C_R   0.085119 0.999964 0.085330 0.789882
O9    O     O_R   0.500010 0.537200 0.910980 -0.525363
O10   O     O_R   0.499990 0.537200 0.089020 -0.525364
O11   O     O_R   0.000010 0.037200 0.910980 -0.525363
O12   O     O_R   0.999990 0.037200 0.089020 -0.525363
O13   O     O_R   0.500010 0.462800 0.910980 -0.589627
O14   O     O_R   0.499990 0.462800 0.089020 -0.589627
O15   O     O_R   0.000010 0.962800 0.910980 -0.589627
O16   O     O_R   0.999990 0.962800 0.089020 -0.589627
C5    C     C_R   0.501844 0.499947 0.884366 0.869020
C6    C     C_R   0.498156 0.499947 0.115634 0.869021
C7    C     C_R   0.001844 0.999947 0.884366 0.869020
C8    C     C_R   0.998156 0.999947 0.115634 0.869021
Cu1   Cu    Cu3+1 0.500000 0.544050 0.000000 1.091740
Cu2   Cu    Cu3+1 0.000000 0.044050 0.000000 1.091740
Cu3   Cu    Cu3+1 0.500000 0.455950 0.000000 0.990331
Cu4   Cu    Cu3+1 0.000000 0.955950 0.000000 0.990331
C9    C     C_R   1.000000 0.274099 0.500000 0.150035
C10   C     C_R   0.500000 0.774099 0.500000 0.150035
C11   C     C_R   0.995883 0.297353 0.440925 -0.155572
C12   C     C_R   0.004117 0.297353 0.559075 -0.155571
C13   C     C_R   0.495883 0.797353 0.440925 -0.155572
C14   C     C_R   0.504117 0.797353 0.559075 -0.155571
C15   C     C_R   0.000000 0.366499 0.500000 -0.017319
C16   C     C_R   0.500000 0.866499 0.500000 -0.017318
C17   C     C_R   0.995955 0.343187 0.440970 -0.134344
C18   C     C_R   0.004044 0.343187 0.559030 -0.134344
C19   C     C_R   0.495955 0.843187 0.440970 -0.134342
C20   C     C_R   0.504044 0.843187 0.559030 -0.134344
C21   C     C_2   0.533106 0.519280 0.748986 -0.221933
C22   C     C_2   0.466894 0.519280 0.251014 -0.221934
C23   C     C_2   0.033106 0.019280 0.748986 -0.221933
C24   C     C_2   0.966894 0.019280 0.251014 -0.221932
C25   C     C_2   0.498402 0.505417 0.681997 -0.375680
C26   C     C_2   0.501598 0.505417 0.318003 -0.375680
C27   C     C_2   0.998402 0.005417 0.681997 -0.375681
C28   C     C_2   0.001598 0.005417 0.318003 -0.375680
H1    H     H_    0.563344 0.528672 0.756088 0.203906
H2    H     H_    0.436656 0.528672 0.243912 0.203906
H3    H     H_    0.063344 0.028672 0.756088 0.203906
H4    H     H_    0.936656 0.028672 0.243912 0.203906
H5    H     H_    0.466792 0.500027 0.672415 0.166886
H6    H     H_    0.533208 0.500027 0.327585 0.166886
H7    H     H_    0.966792 0.000027 0.672415 0.166886
H8    H     H_    0.033208 0.000027 0.327585 0.166886
C29   C     C_2   0.530053 0.525819 0.812539 0.376670
C30   C     C_2   0.469947 0.525819 0.187461 0.376670
C31   C     C_2   0.030053 0.025819 0.812539 0.376670
C32   C     C_2   0.969947 0.025819 0.187461 0.376670
C33   C     C_2   0.504521 0.498728 0.820720 -0.417859
C34   C     C_2   0.495479 0.498728 0.179280 -0.417859
C35   C     C_2   0.004521 0.998728 0.820720 -0.417859
C36   C     C_2   0.995479 0.998728 0.179280 -0.417859
H9    H     H_    0.488451 0.470847 0.783162 0.141848
H10   H     H_    0.511548 0.470847 0.216838 0.141848
H11   H     H_    0.988452 0.970847 0.783162 0.141847
H12   H     H_    0.011548 0.970847 0.216838 0.141847
C37   C     C_R   0.296663 0.536900 0.809593 -0.138544
C38   C     C_R   0.703337 0.536900 0.190406 -0.138544
C39   C     C_R   0.796663 0.036899 0.809595 -0.138543
C40   C     C_R   0.203337 0.036898 0.190403 -0.138542
H13   H     H_    0.278593 0.566482 0.803136 0.160727
H14   H     H_    0.721407 0.566482 0.196864 0.160727
H15   H     H_    0.778593 0.066481 0.803138 0.160727
H16   H     H_    0.221408 0.066480 0.196857 0.160727
C41   C     C_R   0.342551 0.537777 0.855594 -0.144860
C42   C     C_R   0.657448 0.537777 0.144406 -0.144860
C43   C     C_R   0.842551 0.037777 0.855595 -0.144860
C44   C     C_R   0.157449 0.037776 0.144403 -0.144859
H17   H     H_    0.359200 0.568116 0.883959 0.181491
H18   H     H_    0.640799 0.568116 0.116041 0.181490
H19   H     H_    0.859200 0.068116 0.883961 0.181491
H20   H     H_    0.140800 0.068115 0.116035 0.181491
C45   C     C_R   0.366541 0.499590 0.865559 -0.036107
C46   C     C_R   0.633459 0.499590 0.134440 -0.036107
C47   C     C_R   0.866541 0.999590 0.865559 -0.036107
C48   C     C_R   0.133459 0.999590 0.134440 -0.036108
C49   C     C_R   0.343952 0.460778 0.827970 -0.189442
C50   C     C_R   0.656048 0.460778 0.172030 -0.189441
C51   C     C_R   0.843952 0.960779 0.827969 -0.189441
C52   C     C_R   0.156048 0.960779 0.172034 -0.189441
H21   H     H_    0.361649 0.431040 0.833782 0.161968
H22   H     H_    0.638351 0.431040 0.166218 0.161968
H23   H     H_    0.861649 0.931040 0.833779 0.161968
H24   H     H_    0.138351 0.931041 0.166225 0.161967
C53   C     C_R   0.298164 0.460085 0.781476 -0.097795
C54   C     C_R   0.701836 0.460085 0.218524 -0.097795
C55   C     C_R   0.798164 0.960085 0.781475 -0.097795
C56   C     C_R   0.201836 0.960085 0.218527 -0.097796
H25   H     H_    0.281489 0.430152 0.751603 0.132132
H26   H     H_    0.718510 0.430152 0.248397 0.132132
H27   H     H_    0.781490 0.930152 0.751601 0.132131
H28   H     H_    0.218510 0.930152 0.248403 0.132130
C57   C     C_R   0.274245 0.497922 0.772852 0.188914
C58   C     C_R   0.725755 0.497922 0.227148 0.188914
C59   C     C_R   0.774245 0.997922 0.772852 0.188914
C60   C     C_R   0.225755 0.997921 0.227148 0.188913
C61   C     C_R   0.203198 0.526739 0.664806 -0.289879
C62   C     C_R   0.796802 0.526739 0.335194 -0.289879
C63   C     C_R   0.703198 0.026739 0.664806 -0.289880
C64   C     C_R   0.296802 0.026739 0.335193 -0.289878
H29   H     H_    0.221583 0.549415 0.654701 0.206255
H30   H     H_    0.778417 0.549415 0.345299 0.206255
H31   H     H_    0.721583 0.049415 0.654702 0.206256
H32   H     H_    0.278416 0.049415 0.345296 0.206256
C65   C     C_R   0.157279 0.528331 0.618963 0.309678
C66   C     C_R   0.842721 0.528331 0.381036 0.309677
C67   C     C_R   0.657279 0.028331 0.618964 0.309675
C68   C     C_R   0.342720 0.028331 0.381035 0.309674
C69   C     C_R   0.133401 0.499265 0.633220 -0.322062
C70   C     C_R   0.866599 0.499265 0.366780 -0.322062
C71   C     C_R   0.633401 0.999265 0.633220 -0.322061
C72   C     C_R   0.366599 0.999265 0.366780 -0.322061
C73   C     C_R   0.156108 0.469362 0.694097 0.200226
C74   C     C_R   0.843892 0.469362 0.305903 0.200226
C75   C     C_R   0.656108 0.969362 0.694097 0.200225
C76   C     C_R   0.343892 0.969361 0.305904 0.200222
C77   C     C_R   0.202495 0.467590 0.738753 0.445315
C78   C     C_R   0.797505 0.467590 0.261247 0.445315
C79   C     C_R   0.702495 0.967589 0.738752 0.445315
C80   C     C_R   0.297505 0.967588 0.261249 0.445317
C81   C     C_R   0.225836 0.497110 0.724612 -0.123714
C82   C     C_R   0.774164 0.497110 0.275388 -0.123715
C83   C     C_R   0.725836 0.997109 0.724612 -0.123714
C84   C     C_R   0.274164 0.997109 0.275388 -0.123717
H33   H     H_    0.993136 0.280056 0.395171 0.142613
H34   H     H_    0.006864 0.280056 0.604829 0.142613
H35   H     H_    0.493136 0.780056 0.395171 0.142613
H36   H     H_    0.506864 0.780056 0.604829 0.142613
O17   O     O_R   0.537200 0.435730 0.537210 -0.585097
O18   O     O_R   0.462800 0.435730 0.462790 -0.585097
O19   O     O_R   0.037200 0.935730 0.537210 -0.585098
O20   O     O_R   0.962800 0.935730 0.462790 -0.585097
C85   C     C_R   0.500000 0.414843 0.500000 0.834003
C86   C     C_R   1.000000 0.914843 0.500000 0.834003
O21   O     O_R   0.537190 0.500000 0.626220 -0.570400
O22   O     O_R   0.462810 0.500000 0.373780 -0.570401
O23   O     O_R   0.037190 0.000000 0.626220 -0.570400
O24   O     O_R   0.962810 1.000000 0.373780 -0.570401
O25   O     O_R   0.462790 0.500000 0.551820 -0.586591
O26   O     O_R   0.537210 0.500000 0.448180 -0.586591
O27   O     O_R   0.962790 0.000000 0.551820 -0.586591
O28   O     O_R   0.037210 0.000000 0.448180 -0.586590
C87   C     C_R   0.499819 0.501327 0.617321 0.863452
C88   C     C_R   0.500181 0.501327 0.382678 0.863453
C89   C     C_R   0.999819 0.001327 0.617321 0.863452
C90   C     C_R   0.000181 0.001327 0.382678 0.863453
Cu5   Cu    Cu3+1 0.544050 0.500000 0.544060 1.025866
Cu6   Cu    Cu3+1 0.455950 0.500000 0.455940 1.025866
Cu7   Cu    Cu3+1 0.044050 0.000000 0.544060 1.025867
Cu8   Cu    Cu3+1 0.955950 0.000000 0.455940 1.025866
O29   O     O_R   0.537200 0.564270 0.537200 -0.549809
O30   O     O_R   0.462800 0.564270 0.462800 -0.549809
O31   O     O_R   0.037200 0.064270 0.537200 -0.549809
O32   O     O_R   0.962800 0.064270 0.462800 -0.549809
C91   C     C_R   0.500000 0.584998 0.500000 0.836939
C92   C     C_R   0.000000 0.084998 0.500000 0.836939
O33   O     O_R   0.000000 0.435740 0.448480 -0.580616
O34   O     O_R   0.000000 0.435740 0.551520 -0.580617
O35   O     O_R   0.500000 0.935740 0.448480 -0.580616
O36   O     O_R   0.500000 0.935740 0.551520 -0.580617
C93   C     C_R   0.000000 0.414870 0.500000 0.845772
C94   C     C_R   0.500000 0.914870 0.500000 0.845776
O37   O     O_R   0.064280 0.500010 0.512760 -0.565901
O38   O     O_R   0.935720 0.500010 0.487240 -0.565902
O39   O     O_R   0.564280 0.000010 0.512760 -0.565901
O40   O     O_R   0.435720 0.000010 0.487240 -0.565903
O41   O     O_R   0.064270 0.500010 0.615800 -0.547401
O42   O     O_R   0.935730 0.500010 0.384200 -0.547400
O43   O     O_R   0.564270 0.000010 0.615800 -0.547402
O44   O     O_R   0.435730 0.000010 0.384200 -0.547401
C95   C     C_R   0.085038 0.499949 0.584981 0.930473
C96   C     C_R   0.914962 0.499949 0.415019 0.930473
C97   C     C_R   0.585038 0.999949 0.584981 0.930473
C98   C     C_R   0.414962 0.999949 0.415019 0.930475
Cu9   Cu    Cu3+1 0.000010 0.500010 0.438990 1.090298
Cu10  Cu    Cu3+1 0.999990 0.500010 0.561010 1.090297
Cu11  Cu    Cu3+1 0.500010 0.000010 0.438990 1.090296
Cu12  Cu    Cu3+1 0.499990 0.000010 0.561010 1.090295
O45   O     O_R   0.000010 0.564280 0.448470 -0.579965
O46   O     O_R   0.999990 0.564280 0.551530 -0.579965
O47   O     O_R   0.500010 0.064280 0.448470 -0.579965
O48   O     O_R   0.499990 0.064280 0.551530 -0.579966
C99   C     C_R   0.000000 0.585137 0.500000 0.859371
C100  C     C_R   0.500000 0.085137 0.500000 0.859372
C101  C     C_R   0.539940 0.297181 0.531305 0.311009
C102  C     C_R   0.460060 0.297181 0.468695 0.311009
C103  C     C_R   0.960059 0.797180 0.468684 0.311008
C104  C     C_R   0.039941 0.797180 0.531316 0.311009
C105  C     C_R   0.539284 0.343210 0.530195 -0.223011
C106  C     C_R   0.460716 0.343210 0.469805 -0.223010
C107  C     C_R   0.960715 0.843210 0.469795 -0.223011
C108  C     C_R   0.039285 0.843210 0.530205 -0.223011
H37   H     H_    0.569831 0.360967 0.554120 0.205435
H38   H     H_    0.430169 0.360967 0.445880 0.205435
H39   H     H_    0.930167 0.860966 0.445861 0.205438
H40   H     H_    0.069833 0.860966 0.554139 0.205438
C109  C     C_R   0.500000 0.366407 0.500000 -0.156575
C110  C     C_R   1.000000 0.866407 0.500000 -0.156578
C111  C     C_R   0.500000 0.273919 0.500000 -0.170899
C112  C     C_R   0.000000 0.773919 0.500000 -0.170899
C113  C     C_R   0.007628 0.702632 0.453300 -0.055421
C114  C     C_R   0.992372 0.702632 0.546700 -0.055420
C115  C     C_R   0.492377 0.202632 0.546707 -0.055420
C116  C     C_R   0.507623 0.202632 0.453293 -0.055420
H41   H     H_    0.013534 0.720244 0.417013 0.145913
H42   H     H_    0.986466 0.720244 0.582987 0.145912
H43   H     H_    0.486476 0.220244 0.582999 0.145913
H44   H     H_    0.513524 0.220244 0.417001 0.145913
C117  C     C_R   0.007492 0.656793 0.453089 -0.117420
C118  C     C_R   0.992508 0.656793 0.546911 -0.117421
C119  C     C_R   0.492513 0.156793 0.546917 -0.117422
C120  C     C_R   0.507487 0.156793 0.453082 -0.117423
H45   H     H_    0.013513 0.639646 0.416602 0.177712
H46   H     H_    0.986487 0.639646 0.583398 0.177712
H47   H     H_    0.486496 0.139647 0.583410 0.177707
H48   H     H_    0.513504 0.139647 0.416590 0.177707
C121  C     C_R   1.000000 0.633490 0.500000 -0.026986
C122  C     C_R   0.500000 0.133490 0.500000 -0.026979
H49   H     H_    0.992783 0.360311 0.394727 0.178001
H50   H     H_    0.007216 0.360311 0.605273 0.178001
H51   H     H_    0.492783 0.860311 0.394727 0.178001
H52   H     H_    0.507216 0.860311 0.605273 0.178001
C123  C     C_R   0.000000 0.725622 0.500000 0.185504
C124  C     C_R   0.500000 0.225623 0.500000 0.185502
C125  C     C_R   0.530606 0.702459 0.565848 -0.236683
C126  C     C_R   0.469393 0.702459 0.434151 -0.236682
C127  C     C_R   0.030606 0.202459 0.565848 -0.236682
C128  C     C_R   0.969394 0.202459 0.434151 -0.236682
H53   H     H_    0.554861 0.719970 0.616867 0.172330
H54   H     H_    0.445139 0.719971 0.383133 0.172330
H55   H     H_    0.054861 0.219971 0.616867 0.172330
H56   H     H_    0.945139 0.219971 0.383133 0.172330
C129  C     C_R   0.530364 0.656488 0.566661 0.432570
C130  C     C_R   0.469636 0.656488 0.433339 0.432570
C131  C     C_R   0.030364 0.156488 0.566661 0.432570
C132  C     C_R   0.969636 0.156488 0.433339 0.432571
C133  C     C_R   0.500000 0.633239 0.500000 -0.233147
C134  C     C_R   0.000000 0.133239 0.500000 -0.233147
C135  C     C_R   0.500000 0.725647 0.500000 -0.043538
C136  C     C_R   1.000000 0.225647 0.500000 -0.043538
N1    N     N_R   0.135666 0.561136 0.560833 0.150824
O49   O     O_R   0.103763 0.584512 0.551818 -0.361676
O50   O     O_R   0.152187 0.572438 0.524814 -0.323360
N2    N     N_R   0.864334 0.561136 0.439167 0.150824
O51   O     O_R   0.896237 0.584512 0.448182 -0.361676
O52   O     O_R   0.847813 0.572438 0.475186 -0.323360
N3    N     N_R   0.635666 0.061136 0.560834 0.150825
O53   O     O_R   0.603763 0.084512 0.551819 -0.361671
O54   O     O_R   0.652187 0.072439 0.524815 -0.323357
N4    N     N_R   0.364334 0.061137 0.439165 0.150824
O55   O     O_R   0.396237 0.084512 0.448179 -0.361672
O56   O     O_R   0.347813 0.072440 0.475183 -0.323357
N5    N     N_R   0.132358 0.440803 0.710922 0.135327
O57   O     O_R   0.103085 0.413655 0.660344 -0.400628
O58   O     O_R   0.142324 0.439489 0.778520 -0.291117
N6    N     N_R   0.867642 0.440803 0.289077 0.135328
O59   O     O_R   0.896915 0.413655 0.339656 -0.400628
O60   O     O_R   0.857676 0.439489 0.221480 -0.291117
N7    N     N_R   0.632358 0.940803 0.710922 0.135326
O61   O     O_R   0.603084 0.913655 0.660343 -0.400630
O62   O     O_R   0.642324 0.939488 0.778519 -0.291116
N8    N     N_R   0.367642 0.940802 0.289079 0.135325
O63   O     O_R   0.396916 0.913655 0.339659 -0.400631
O64   O     O_R   0.357675 0.939485 0.221481 -0.291113
O65   O     O_3   0.225625 0.439281 0.799632 -0.538377
C137  C     C_3   0.220490 0.395368 0.774314 -0.206264
H57   H     H_    0.215972 0.392258 0.719506 0.111262
H58   H     H_    0.192571 0.379405 0.770418 0.225090
H59   H     H_    0.250651 0.376755 0.816441 0.181247
O66   O     O_3   0.774375 0.439281 0.200368 -0.538377
C138  C     C_3   0.779510 0.395368 0.225686 -0.206265
H60   H     H_    0.784028 0.392258 0.280494 0.111263
H61   H     H_    0.807429 0.379405 0.229581 0.225090
H62   H     H_    0.749349 0.376755 0.183559 0.181247
O67   O     O_3   0.725625 0.939280 0.799630 -0.538376
C139  C     C_3   0.720490 0.895367 0.774312 -0.206266
H63   H     H_    0.715976 0.892258 0.719507 0.111260
H64   H     H_    0.692569 0.879405 0.770408 0.225087
H65   H     H_    0.750649 0.876753 0.816442 0.181253
O68   O     O_3   0.274375 0.939278 0.200372 -0.538373
C140  C     C_3   0.279509 0.895365 0.225693 -0.206267
H66   H     H_    0.284018 0.892258 0.280494 0.111256
H67   H     H_    0.307435 0.879404 0.229607 0.225082
H68   H     H_    0.249352 0.876750 0.183559 0.181260
N9    N     N_R   0.581407 0.274792 0.565258 0.133776
O69   O     O_R   0.590219 0.239453 0.605242 -0.320764
O70   O     O_R   0.612554 0.292569 0.563820 -0.325904
N10   N     N_R   0.418593 0.274792 0.434742 0.133776
O71   O     O_R   0.409780 0.239453 0.394758 -0.320763
O72   O     O_R   0.387446 0.292569 0.436180 -0.325903
N11   N     N_R   0.918591 0.774792 0.434720 0.133777
O73   O     O_R   0.909783 0.739452 0.394739 -0.320767
O74   O     O_R   0.887440 0.792569 0.436145 -0.325902
N12   N     N_R   0.081409 0.774792 0.565280 0.133777
O75   O     O_R   0.090217 0.739452 0.605261 -0.320767
O76   O     O_R   0.112560 0.792569 0.563855 -0.325902
O77   O     O_3   0.560984 0.634431 0.632343 -0.553986
C141  C     C_3   0.543871 0.629859 0.674740 -0.225752
H69   H     H_    0.568315 0.612045 0.727382 0.212950
H70   H     H_    0.513014 0.610099 0.644022 0.134774
H71   H     H_    0.538118 0.662483 0.690689 0.163710
O78   O     O_3   0.439015 0.634431 0.367657 -0.553986
C142  C     C_3   0.456128 0.629859 0.325259 -0.225751
H72   H     H_    0.431684 0.612045 0.272618 0.212949
H73   H     H_    0.486986 0.610099 0.355978 0.134773
H74   H     H_    0.461882 0.662483 0.309311 0.163710
O79   O     O_3   0.060984 0.134431 0.632343 -0.553986
C143  C     C_3   0.043871 0.129859 0.674740 -0.225753
H75   H     H_    0.068315 0.112045 0.727382 0.212949
H76   H     H_    0.013014 0.110099 0.644022 0.134774
H77   H     H_    0.038118 0.162483 0.690689 0.163710
O80   O     O_3   0.939015 0.134431 0.367657 -0.553986
C144  C     C_3   0.956128 0.129859 0.325259 -0.225754
H78   H     H_    0.931684 0.112045 0.272618 0.212950
H79   H     H_    0.986986 0.110099 0.355978 0.134775
H80   H     H_    0.961882 0.162483 0.309311 0.163711
N13   N     N_R   0.557593 0.558559 0.867736 0.124639
O81   O     O_R   0.599535 0.558833 0.897662 -0.351401
O82   O     O_R   0.539806 0.593357 0.874222 -0.327846
N14   N     N_R   0.442407 0.558559 0.132264 0.124639
O83   O     O_R   0.400465 0.558833 0.102338 -0.351401
O84   O     O_R   0.460193 0.593357 0.125778 -0.327846
N15   N     N_R   0.057593 0.058559 0.867736 0.124638
O85   O     O_R   0.099535 0.058833 0.897662 -0.351403
O86   O     O_R   0.039806 0.093357 0.874222 -0.327847
N16   N     N_R   0.942407 0.058559 0.132264 0.124639
O87   O     O_R   0.900465 0.058833 0.102338 -0.351402
O88   O     O_R   0.960193 0.093357 0.125778 -0.327846

loop_
_geom_bond_atom_site_label_1
_geom_bond_atom_site_label_2
_geom_bond_distance
_ccdc_geom_bond_type
C55   H27   1.081179 S    
C47   C51   1.404288 A    
N13   O82   1.300680 A    
O28   Cu7   1.964205 S    
O48   C100  1.295775 A    
C114  C123  1.399732 A    
O9    Cu1   1.963329 S    
C22   C30   1.476622 S    
C43   C47   1.404011 A    
N11   O74   1.301481 A    
C101  N9    1.441082 S    
O66   C138  1.414741 S    
C57   C81   1.471330 S    
O28   C90   1.289357 A    
C129  O77   1.382415 S    
N7    O61   1.301167 A    
C117  H45   1.082901 S    
C128  H56   1.083423 S    
C99   C121  1.469380 S    
N8    O63   1.301168 A    
O22   Cu6   1.962459 S    
C114  C118  1.392981 A    
O26   C88   1.289357 A    
C118  C121  1.405230 A    
O80   C144  1.410035 S    
C38   H14   1.083330 S    
C107  C110  1.400103 A    
O25   C87   1.289355 A    
C11   H33   1.083134 S    
O21   C87   1.294813 A    
N13   O81   1.300753 A    
O17   C85   1.296504 A    
C53   C57   1.400487 A    
C62   C66   1.396293 A    
C78   C82   1.406974 A    
C120  H48   1.082901 S    
C21   H1    1.086386 S    
C132  C134  1.410323 A    
O38   Cu10  1.964927 S    
C141  H70   1.113546 S    
C61   C81   1.397144 A    
C143  H77   1.113268 S    
O33   Cu9   1.964152 S    
C46   C50   1.404285 A    
C64   C68   1.396293 A    
C34   H10   1.086220 S    
O41   Cu10  1.963835 S    
O16   Cu4   1.963331 S    
O36   Cu12  1.964153 S    
O78   C142  1.410035 S    
C54   H26   1.081179 S    
C28   C90   1.455103 S    
O13   C5    1.290862 A    
O7    Cu4   1.964229 S    
C11   C17   1.392824 A    
C15   C93   1.469927 S    
C71   C97   1.469883 S    
O15   C7    1.290862 A    
C116  C120  1.392981 A    
C101  C111  1.416762 A    
O42   Cu9   1.963834 S    
O43   Cu12  1.963835 S    
C42   H18   1.082994 S    
N11   O73   1.301316 A    
N12   O75   1.301316 A    
O9    C5    1.293656 A    
C77   C81   1.406974 A    
C100  C122  1.469380 S    
O8    Cu4   1.964223 S    
N10   O71   1.301318 A    
O37   C95   1.294677 A    
C131  C134  1.410321 A    
O38   C96   1.294675 A    
C102  N10   1.441082 S    
C113  H41   1.083305 S    
C73   N5    1.435789 S    
C32   N16   1.435791 S    
O3    Cu2   1.964230 S    
N3    O54   1.301380 A    
C29   C33   1.349998 D    
C67   C71   1.414922 A    
C9    C12   1.402969 A    
C31   C35   1.349996 D    
C54   C58   1.400489 A    
C32   C36   1.349996 D    
C44   C48   1.404014 A    
C72   C98   1.469883 S    
C13   H35   1.083134 S    
C14   H36   1.083135 S    
C75   C79   1.411111 A    
O3    C3    1.296868 A    
N15   O85   1.300753 A    
O40   C98   1.294675 A    
C73   C77   1.411111 A    
C139  H65   1.109276 S    
C21   C25   1.340118 D    
C127  H55   1.083422 S    
C113  C123  1.399733 A    
C23   C27   1.340118 D    
O19   Cu7   1.964134 S    
Cu7   O31   1.964131 S    
O42   C96   1.293537 A    
C139  H64   1.108935 S    
C37   C41   1.394810 A    
C56   H28   1.081181 S    
C63   C83   1.397146 A    
C39   C43   1.394810 A    
C130  O78   1.382415 S    
C12   H34   1.083135 S    
C36   H12   1.086220 S    
C22   C26   1.340118 D    
N1    O49   1.301247 A    
C119  H47   1.082903 S    
C80   C84   1.406976 A    
C52   H24   1.083026 S    
C10   C135  1.472395 S    
C63   C67   1.396293 A    
C66   C70   1.414918 A    
C144  H79   1.113545 S    
C1    C45   1.469237 S    
O5    Cu3   1.964229 S    
C65   N1    1.438726 S    
O17   Cu5   1.964134 S    
C40   C60   1.402577 A    
C3    C47   1.469237 S    
N2    O52   1.301378 A    
C102  C106  1.398950 A    
C62   H30   1.083969 S    
C119  C122  1.405231 A    
C23   C31   1.476621 S    
C24   H4    1.086388 S    
O26   Cu5   1.964205 S    
C41   C45   1.404013 A    
C75   N7    1.435790 S    
O65   C137  1.414741 S    
C138  H62   1.109274 S    
O32   C92   1.294153 A    
N9    O70   1.301481 A    
C74   N6    1.435793 S    
C144  H78   1.109177 S    
C64   C84   1.397144 A    
C105  C109  1.400099 A    
O36   C94   1.295576 A    
C85   C109  1.471902 S    
C56   C60   1.400486 A    
C10   C14   1.402969 A    
O13   Cu3   1.963329 S    
C108  H40   1.083110 S    
C15   C18   1.404184 A    
N14   O83   1.300753 A    
C114  H42   1.083309 S    
C143  H76   1.113546 S    
C69   C73   1.416452 A    
C140  H66   1.115746 S    
C33   H9    1.086220 S    
C71   C75   1.416451 A    
O8    C4    1.294976 A    
C4    C48   1.469237 S    
O15   Cu4   1.963329 S    
N5    O58   1.301129 A    
C22   H2    1.086386 S    
C131  O79   1.382415 S    
N16   O88   1.300681 A    
C62   C82   1.397144 A    
O4    C4    1.296870 A    
C106  C109  1.400102 A    
N7    O62   1.301128 A    
C64   H32   1.083968 S    
C27   C89   1.455103 S    
N15   O86   1.300680 A    
C17   H49   1.082925 S    
C129  C133  1.410321 A    
C2    C46   1.469237 S    
C142  H74   1.113268 S    
C127  C136  1.401301 A    
O14   C6    1.290861 A    
C16   C19   1.404183 A    
C115  C124  1.399736 A    
C116  H44   1.083309 S    
N4    O55   1.301248 A    
C26   C88   1.455103 S    
C125  H53   1.083423 S    
Cu10  O46   1.964101 S    
O10   C6    1.293655 A    
O46   C99   1.295773 A    
C40   C44   1.394807 A    
N8    O64   1.301128 A    
C49   H21   1.083025 S    
O45   C99   1.295773 A    
O37   Cu9   1.964930 S    
Cu11  O47   1.964100 S    
C58   C82   1.471330 S    
O34   Cu10  1.964153 S    
C138  H60   1.115739 S    
C105  H37   1.083112 S    
C137  H57   1.115739 S    
C51   C55   1.391785 A    
O34   C93   1.295576 A    
C130  C133  1.410323 A    
C30   C34   1.349998 D    
O19   C86   1.296505 A    
C67   N3    1.438728 S    
C16   C94   1.469927 S    
C39   C59   1.402575 A    
C44   H20   1.082995 S    
C139  H63   1.115740 S    
Cu7   Cu8   2.677363 S    
C61   C65   1.396293 A    
O5    C1    1.294974 A    
Cu6   O30   1.964132 S    
C140  H68   1.109281 S    
O40   Cu12  1.964927 S    
C138  H61   1.108935 S    
C74   C78   1.411111 A    
O39   C97   1.294677 A    
C127  C131  1.397196 A    
C103  C112  1.416765 A    
O44   C98   1.293537 A    
C59   C83   1.471330 S    
Cu8   O32   1.964132 S    
C113  C117  1.392981 A    
C137  H59   1.109277 S    
N12   O76   1.301481 A    
C37   H13   1.083330 S    
Cu5   O29   1.964131 S    
C104  N12   1.441083 S    
C5    C33   1.456832 S    
C72   C76   1.416451 A    
C7    C35   1.456832 S    
C142  H72   1.109176 S    
C8    C36   1.456832 S    
C39   H15   1.083329 S    
C103  C107  1.398947 A    
O18   C85   1.296506 A    
N10   O72   1.301484 A    
C50   H22   1.083025 S    
O12   Cu2   1.963331 S    
O24   Cu8   1.962459 S    
O35   C94   1.295579 A    
O1    C1    1.296868 A    
O20   C86   1.296508 A    
C38   C58   1.402574 A    
C45   C49   1.404285 A    
C18   H50   1.082925 S    
C9    C136  1.472395 S    
C120  C122  1.405230 A    
Cu5   Cu6   2.677363 S    
C41   H17   1.082995 S    
C26   H6    1.086220 S    
C30   N14   1.435787 S    
C13   C19   1.392824 A    
C76   N8    1.435791 S    
C132  O80   1.382415 S    
C66   N2    1.438728 S    
C20   H52   1.082925 S    
C128  C136  1.401299 A    
C68   N4    1.438727 S    
C116  C124  1.399733 A    
O23   Cu7   1.962457 S    
C92   C134  1.465961 S    
C19   H51   1.082927 S    
C141  H69   1.109176 S    
C37   C57   1.402574 A    
O24   C90   1.294809 A    
O30   C91   1.294153 A    
O6    C2    1.294976 A    
O4    Cu2   1.964224 S    
C55   C59   1.400485 A    
C79   C83   1.406975 A    
O27   Cu8   1.964203 S    
C78   O66   1.386794 S    
C21   C29   1.476622 S    
Cu9   Cu10  2.676115 S    
O25   Cu6   1.964203 S    
O47   C100  1.295775 A    
C43   H19   1.082994 S    
C23   H3    1.086386 S    
C24   C32   1.476621 S    
C103  N11   1.441083 S    
O2    Cu1   1.964224 S    
O10   Cu1   1.963331 S    
O27   C89   1.289355 A    
Cu11  Cu12  2.676115 S    
O79   C143  1.410035 S    
N6    O59   1.301166 A    
C140  H67   1.108944 S    
C117  C121  1.405230 A    
C128  C132  1.397196 A    
O22   C88   1.294809 A    
O23   C89   1.294813 A    
C141  H71   1.113268 S    
C24   C28   1.340118 D    
C126  C135  1.401301 A    
C38   C42   1.394810 A    
N9    O69   1.301318 A    
C40   H16   1.083330 S    
O21   Cu5   1.962457 S    
O77   C141  1.410035 S    
O7    C3    1.294974 A    
C104  C112  1.416762 A    
C14   C20   1.392824 A    
O68   C140  1.414739 S    
C15   C17   1.404184 A    
N14   O84   1.300680 A    
C60   C84   1.471330 S    
C115  H43   1.083307 S    
C118  H46   1.082902 S    
C111  C124  1.467663 S    
O35   Cu11  1.964152 S    
C65   C69   1.414920 A    
C48   C52   1.404288 A    
C80   O68   1.386794 S    
C101  C105  1.398950 A    
C25   C87   1.455103 S    
O44   Cu11  1.963834 S    
C12   C18   1.392824 A    
N5    O57   1.301169 A    
Cu9   O45   1.964100 S    
C61   H29   1.083971 S    
C69   C95   1.469883 S    
C42   C46   1.404013 A    
C70   C96   1.469883 S    
O12   C8    1.293655 A    
O1    Cu1   1.964230 S    
C126  C130  1.397196 A    
C76   C80   1.411112 A    
C86   C110  1.471902 S    
O41   C95   1.293535 A    
C35   H11   1.086220 S    
C142  H73   1.113548 S    
O39   Cu11  1.964930 S    
C125  C129  1.397196 A    
O16   C8    1.290861 A    
C16   C20   1.404184 A    
N1    O50   1.301378 A    
O43   C97   1.293535 A    
O11   Cu2   1.963329 S    
N4    O56   1.301379 A    
C107  H39   1.083110 S    
C49   C53   1.391785 A    
C70   C74   1.416452 A    
C144  H80   1.113268 S    
O29   C91   1.294153 A    
C104  C108  1.398947 A    
C6    C34   1.456832 S    
O6    Cu3   1.964223 S    
N2    O51   1.301247 A    
C77   O65   1.386794 S    
C102  C111  1.416762 A    
O31   C92   1.294153 A    
O67   C139  1.414739 S    
C137  H58   1.108933 S    
C31   N15   1.435789 S    
N3    O53   1.301247 A    
O2    C2    1.296870 A    
C112  C123  1.467660 S    
C52   C56   1.391785 A    
C27   H7    1.086220 S    
C29   N13   1.435787 S    
C28   H8    1.086220 S    
O33   C93   1.295579 A    
C10   C13   1.402971 A    
O20   Cu8   1.964134 S    
N6    O60   1.301128 A    
O14   Cu3   1.963331 S    
O18   Cu6   1.964134 S    
C115  C119  1.392981 A    
Cu1   Cu3   2.677227 S    
C126  H54   1.083423 S    
Cu2   Cu4   2.677227 S    
C91   C133  1.465961 S    
C143  H75   1.109176 S    
C9    C11   1.402971 A    
C79   O67   1.386793 S    
O11   C7    1.293656 A    
Cu12  O48   1.964101 S    
C25   H5    1.086220 S    
C51   H23   1.083025 S    
N16   O87   1.300753 A    
C106  H38   1.083111 S    
C108  C110  1.400100 A    
C125  C135  1.401298 A    
C63   H31   1.083968 S    
C50   C54   1.391785 A    
C53   H25   1.081182 S    
C68   C72   1.414921 A    
