data_mof_unit_68367.cif
_audit_creation_date              2012-12-10T16:53:55-0500
_audit_creation_method            fapswitch 2.2
_symmetry_space_group_name_H-M    P1
_symmetry_Int_Tables_number       1
_space_group_crystal_system       triclinic
_cell_length_a                    7.990344
_cell_length_b                    8.688624
_cell_length_c                    10.873213
_cell_angle_alpha                 93.482945
_cell_angle_beta                  86.165105
_cell_angle_gamma                 93.62872
_cell_volume                      750.461813344

loop_
_atom_site_label
_atom_site_type_symbol
_atom_type_description
_atom_site_fract_x
_atom_site_fract_y
_atom_site_fract_z
_atom_type_partial_charge
C1    C     C_R   0.544329 0.793582 0.497086 0.834113
C2    C     C_3   0.502827 0.505770 0.120838 -0.523333
C3    C     C_3   0.379580 0.368129 0.067811 0.671019
C4    C     C_3   0.690746 0.482170 0.062119 0.419877
C5    C     C_2   0.565417 0.958122 0.510213 0.208108
C6    C     C_2   0.433056 0.044189 0.495080 0.057760
C7    C     C_R   0.502859 0.500420 0.741053 0.957738
C8    C     C_R   0.455684 0.207098 0.504246 0.881012
C9    C     C_R   0.499717 0.503659 0.258521 0.873644
C10   C     C_3   0.413812 0.647981 0.938645 0.431994
C11   C     C_3   0.447412 0.667479 0.079823 0.479417
C12   C     C_3   0.415762 0.346468 0.924376 0.704799
C13   C     C_3   0.696600 0.508286 0.919582 0.369064
C14   C     C_3   0.508200 0.501185 0.877385 -0.519687
N1    N     N_2   0.950330 0.457950 0.465890 0.087135
N2    N     N_2   0.049670 0.542050 0.534110 0.100628
O1    O     O_R   0.389250 0.738570 0.508370 -0.573125
O2    O     O_R   0.678390 0.711620 0.486510 -0.603043
O3    O     O_R   0.355430 0.513500 0.696140 -0.532702
O4    O     O_R   0.644580 0.486550 0.674270 -0.584321
O5    O     O_R   0.321610 0.288380 0.513490 -0.580163
O6    O     O_R   0.610750 0.261430 0.491630 -0.548590
O7    O     O_R   0.355420 0.513450 0.325730 -0.620184
O8    O     O_R   0.644570 0.486500 0.303860 -0.560795
Zn1   Zn    Zn3+2 0.306940 0.517990 0.514600 1.153995
Zn2   Zn    Zn3+2 0.693060 0.482010 0.485400 1.157571
Br1   Br    Br    0.177213 0.627937 0.910127 -0.163221
Br2   Br    Br    0.762994 0.276045 0.100240 -0.161188
O9    O     O_3   0.518453 0.221313 0.896369 -0.649709
H1    H     H_    0.520108 0.197648 0.805754 0.363125
O10   O     O_3   0.401340 0.226155 0.120180 -0.632594
H2    H     H_    0.357479 0.231609 0.207680 0.346402
O11   O     O_3   0.714338 0.025976 0.552332 -0.672314
H3    H     H_    0.807281 0.959669 0.525581 0.405769
Br3   Br    Br    0.217142 0.973026 0.436869 -0.306096
Br4   Br    Br    0.024286 0.282897 0.377109 -0.238659
Br5   Br    Br    0.979482 0.726339 0.608383 -0.190387
Br6   Br    Br    0.454813 0.844712 0.856783 -0.228303
O12   O     O_3   0.577095 0.782376 0.096345 -0.638276
H4    H     H_    0.587290 0.802991 0.186461 0.362306
Br7   Br    Br    0.256474 0.753015 0.177923 -0.243657
O13   O     O_3   0.263594 0.310903 0.866606 -0.659044
H5    H     H_    0.218124 0.208266 0.893250 0.416084
O14   O     O_3   0.209771 0.403101 0.089000 -0.669264
H6    H     H_    0.179134 0.407571 0.177926 0.389444
Br8   Br    Br    0.851921 0.363858 0.828066 -0.184000
Br9   Br    Br    0.802251 0.710472 0.878856 -0.170940
Br10  Br    Br    0.868461 0.616452 0.140474 -0.217411

loop_
_geom_bond_atom_site_label_1
_geom_bond_atom_site_label_2
_ccdc_geom_bond_type
C10   Br1   S    
C2    C4    S    
C9    O8    A    
O9    H1    S    
C12   O9    S    
C1    O1    A    
O10   H2    S    
O2    Zn2   S    
C10   Br6   S    
N2    Br5   S    
C3    O10   S    
O1    Zn1   S    
C2    C3    S    
C13   C14   S    
O14   H6    S    
C11   O12   S    
C5    O11   S    
C1    O2    A    
C5    C6    D    
O4    Zn2   S    
C1    C5    S    
C2    C11   S    
C6    C8    S    
C4    Br2   S    
O8    Zn2   S    
C11   Br7   S    
C7    O3    A    
C10   C11   S    
O7    Zn1   S    
C10   C14   S    
C13   Br8   S    
O3    Zn1   S    
C3    O14   S    
O13   H5    S    
N1    N2    D    
N1    Br4   S    
N2    Zn1   S    
O11   H3    S    
C6    Br3   S    
C4    Br10  S    
C7    O4    A    
O6    Zn2   S    
O12   H4    S    
C13   Br9   S    
O5    Zn1   S    
C9    O7    A    
N1    Zn2   S    
C12   O13   S    
C3    C12   S    
C2    C9    S    
C8    O6    A    
C7    C14   S    
C4    C13   S    
C12   C14   S    
C8    O5    A    
