data_mof_unit_59955.cif
_audit_creation_date              2012-12-10T17:08:43-0500
_audit_creation_method            fapswitch 2.2
_symmetry_space_group_name_H-M    P1
_symmetry_Int_Tables_number       1
_space_group_crystal_system       triclinic
_cell_length_a                    27.757913
_cell_length_b                    10.854158
_cell_length_c                    9.889138
_cell_angle_alpha                 109.801634
_cell_angle_beta                  98.888885
_cell_angle_gamma                 91.559228
_cell_volume                      2759.48257866

loop_
_atom_site_label
_atom_site_type_symbol
_atom_type_description
_atom_site_fract_x
_atom_site_fract_y
_atom_site_fract_z
_atom_type_partial_charge
C1    C     C_R   0.495436 0.253542 0.442171 0.869648
C2    C     C_R   0.500834 0.746151 0.557167 0.823464
C3    C     C_R   0.102756 0.517073 0.522864 -0.084373
C4    C     C_R   0.896481 0.481239 0.467714 -0.083717
C5    C     C_R   0.129275 0.418992 0.555611 -0.039361
C6    C     C_R   0.869966 0.579821 0.436179 -0.046230
C7    C     C_R   0.105721 0.326430 0.598123 -0.263519
C8    C     C_R   0.893447 0.672486 0.393624 -0.262580
C9    C     C_R   0.127867 0.622271 0.501366 -0.091158
C10   C     C_R   0.871403 0.375786 0.488786 -0.094058
C11   C     C_R   0.354458 0.503841 0.503079 -0.108648
C12   C     C_R   0.645353 0.496373 0.496849 -0.125337
C13   C     C_R   0.974464 0.387214 0.504826 -0.006737
C14   C     C_R   0.024750 0.610865 0.484848 -0.007679
C15   C     C_R   0.972620 0.594896 0.455600 0.065227
C16   C     C_R   0.026573 0.403338 0.534476 0.064752
C17   C     C_R   0.948054 0.488480 0.477695 -0.094006
C18   C     C_R   0.051160 0.509703 0.512345 -0.096643
C19   C     C_R   0.947760 0.267625 0.486502 0.501943
C20   C     C_R   0.051485 0.730290 0.502669 0.501745
C21   C     C_R   0.897237 0.265454 0.492564 0.033076
C22   C     C_R   0.102008 0.732296 0.496570 0.032339
C23   C     C_R   0.407529 0.500458 0.500525 0.898163
C24   C     C_R   0.592420 0.500083 0.499684 0.828712
C25   C     C_R   0.055230 0.323590 0.597611 0.475016
C26   C     C_R   0.943883 0.674898 0.393050 0.476780
C27   C     C_2   0.491537 0.111855 0.413644 -0.090405
C28   C     C_2   0.495473 0.886246 0.581974 -0.074840
C29   C     C_2   0.467557 0.063182 0.495542 0.353241
C30   C     C_2   0.468512 0.922607 0.477457 0.364679
C31   C     C_2   0.508760 0.496031 0.075898 0.539966
C32   C     C_2   0.499974 0.476712 0.915306 0.638391
C33   C     C_R   0.179521 0.419809 0.552918 0.565593
C34   C     C_R   0.819787 0.579394 0.440030 0.609473
C35   C     C_R   0.178435 0.615661 0.494419 0.565161
C36   C     C_R   0.820906 0.382588 0.496675 0.579886
C37   C     C_R   0.287652 0.588148 0.631313 -0.228110
C38   C     C_R   0.711483 0.400438 0.371964 -0.265767
C39   C     C_R   0.338015 0.586294 0.628763 0.354823
C40   C     C_R   0.661324 0.402913 0.377449 0.384923
C41   C     C_R   0.320030 0.425146 0.380932 0.074247
C42   C     C_R   0.680145 0.586200 0.610274 -0.002444
C43   C     C_R   0.269655 0.429210 0.384768 0.150324
C44   C     C_R   0.730275 0.581720 0.602726 0.216895
C45   C     C_R   0.253711 0.510453 0.510968 0.253204
C46   C     C_R   0.745696 0.488941 0.483295 0.277662
Cu1   Cu    Cu3+1 0.508480 0.521810 0.644910 1.051815
Cu2   Cu    Cu3+1 0.491520 0.478190 0.355090 1.039144
H1    H     H_    0.126829 0.259239 0.637717 0.184874
H2    H     H_    0.872308 0.740008 0.354707 0.183438
H3    H     H_    0.724225 0.329354 0.280910 0.155165
H4    H     H_    0.274525 0.650621 0.727034 0.152420
N1    N     N_R   0.202517 0.514572 0.517924 -0.451715
N2    N     N_R   0.796782 0.484112 0.474299 -0.436405
N3    N     N_2   0.478780 0.445430 0.137360 -0.088987
N4    N     N_2   0.521220 0.554570 0.862640 -0.048140
O1    O     O_R   0.504520 0.332330 0.577400 -0.511211
O2    O     O_R   0.495480 0.667670 0.422600 -0.554416
O3    O     O_R   0.490210 0.295500 0.332650 -0.592567
O4    O     O_R   0.509790 0.704500 0.667350 -0.602715
O5    O     O_R   0.437420 0.518430 0.622370 -0.494133
O6    O     O_R   0.562580 0.481570 0.377630 -0.522391
O7    O     O_R   0.423110 0.481600 0.377610 -0.572153
O8    O     O_R   0.576890 0.518400 0.622390 -0.615823
O9    O     O_2   0.205290 0.326158 0.584003 -0.530217
O10   O     O_2   0.794077 0.673749 0.410386 -0.529272
O11   O     O_2   0.795911 0.290640 0.528281 -0.549955
O12   O     O_2   0.203603 0.707584 0.463233 -0.548104
N5    N     N_3   0.336350 0.338331 0.254462 -0.565612
H5    H     H_    0.321459 0.363106 0.164270 0.262564
H6    H     H_    0.322858 0.242324 0.237085 0.246631
N6    N     N_3   0.665557 0.685169 0.731695 -0.584814
H7    H     H_    0.650273 0.639498 0.794561 0.261733
H8    H     H_    0.639418 0.738043 0.692402 0.218928
N7    N     N_3   0.519524 0.983745 0.716143 -0.606745
H9    H     H_    0.506362 0.966261 0.802057 0.244192
H10   H     H_    0.556895 0.970395 0.727444 0.221354
N8    N     N_3   0.514647 0.026467 0.301085 -0.584129
H11   H     H_    0.551748 0.059380 0.323537 0.239226
H12   H     H_    0.499427 0.036157 0.202068 0.245985
O13   O     O_3   0.470384 0.370168 0.817920 -0.649737
H13   H     H_    0.472916 0.297850 0.857899 0.337510
O14   O     O_3   0.552622 0.562083 0.155762 -0.684270
H14   H     H_    0.545119 0.629873 0.243735 0.358950
O15   O     O_3   0.548325 0.662557 0.956676 -0.627314
H15   H     H_    0.561975 0.704795 0.894967 0.360657
O16   O     O_3   0.433964 0.398399 0.059707 -0.651375
H16   H     H_    0.417652 0.360651 0.120478 0.384340
N9    N     N_3   0.235069 0.350600 0.259494 -0.583674
H17   H     H_    0.211544 0.412702 0.226645 0.238647
H18   H     H_    0.214312 0.285707 0.289766 0.248885
N10   N     N_3   0.766090 0.670767 0.716601 -0.549289
H19   H     H_    0.758545 0.766753 0.725364 0.257602
H20   H     H_    0.762477 0.658117 0.814874 0.242254
O17   O     O_3   0.627431 0.313442 0.268955 -0.701548
H21   H     H_    0.644651 0.255202 0.194203 0.328056
O18   O     O_3   0.371590 0.666099 0.746464 -0.693220
H22   H     H_    0.354007 0.717302 0.824538 0.332144
N11   N     N_3   0.873265 0.148089 0.496419 -0.578792
H23   H     H_    0.844500 0.112082 0.407814 0.262525
H24   H     H_    0.860582 0.168683 0.595245 0.288022
N12   N     N_3   0.125954 0.849274 0.491707 -0.578688
H25   H     H_    0.154596 0.886046 0.580571 0.264945
H26   H     H_    0.138810 0.827885 0.393055 0.286286
O19   O     O_3   0.970915 0.152270 0.448301 -0.671725
H27   H     H_    0.947108 0.074711 0.420767 0.360523
O20   O     O_3   0.028398 0.845760 0.540641 -0.670913
H28   H     H_    0.052253 0.923218 0.568153 0.360183
O21   O     O_3   0.034401 0.253908 0.671152 -0.676898
H29   H     H_    0.059561 0.205845 0.710400 0.325876
O22   O     O_3   0.964537 0.744387 0.319014 -0.676780
H30   H     H_    0.939331 0.792652 0.280279 0.326381
O23   O     O_3   0.442175 0.829389 0.352557 -0.695464
H31   H     H_    0.424229 0.875583 0.291927 0.331966
O24   O     O_3   0.440609 0.142726 0.591576 -0.692617
H32   H     H_    0.424642 0.088370 0.637768 0.334865

loop_
_geom_bond_atom_site_label_1
_geom_bond_atom_site_label_2
_ccdc_geom_bond_type
Cu2   N3    S    
O16   H16   S    
C35   N1    A    
C8    C26   A    
C14   C18   A    
O17   H21   S    
C27   N8    S    
C34   O10   S    
O18   H22   S    
C36   O11   S    
C33   O9    S    
O15   H15   S    
C32   O13   S    
C43   N9    S    
O14   H14   S    
C19   C21   A    
C1    O3    A    
C21   N11   S    
N8    H12   S    
C9    C22   A    
C39   O18   S    
C27   C29   D    
O24   H32   S    
C31   O14   S    
C3    C18   A    
N5    H6    S    
C12   C42   A    
Cu1   O4    S    
Cu1   Cu2   S    
C5    C33   A    
O20   H28   S    
N9    H18   S    
C44   N10   S    
C25   O21   S    
C20   O20   S    
C1    C27   S    
C23   O7    A    
C29   O24   S    
C45   N1    S    
C24   O8    A    
C41   C43   A    
N12   H25   S    
C42   C44   A    
C42   N6    S    
C44   C46   A    
O13   H13   S    
C10   C21   A    
C33   N1    A    
C13   C19   A    
C14   C20   A    
C7    H1    S    
N6    H8    S    
Cu1   O8    S    
C5    C7    A    
C37   H4    S    
N8    H11   S    
Cu2   O7    S    
C6    C8    A    
C38   H3    S    
C3    C5    A    
C6    C34   A    
C12   C40   A    
N12   H26   S    
N7    H9    S    
C29   C30   S    
C3    C9    A    
C1    O1    A    
Cu1   O1    S    
C43   C45   A    
Cu2   O6    S    
N11   H23   S    
C46   N2    S    
N10   H20   S    
C11   C39   A    
N7    H10   S    
C4    C17   A    
C19   O19   S    
C4    C6    A    
N11   H24   S    
C20   C22   A    
C34   N2    A    
C40   O17   S    
C37   C45   A    
C8    H2    S    
Cu2   O3    S    
C41   N5    S    
O23   H31   S    
C16   C25   A    
C15   C17   A    
C24   O6    A    
O22   H30   S    
C31   C32   S    
N6    H7    S    
C15   C26   A    
C22   N12   S    
Cu1   O5    S    
C2    C28   S    
C2    O2    A    
Cu2   O2    S    
O19   H27   S    
C12   C24   S    
C7    C25   A    
C13   C17   A    
C28   C30   D    
C37   C39   A    
O21   H29   S    
C38   C40   A    
N4    O15   S    
C35   O12   S    
C11   C23   S    
N10   H19   S    
C11   C41   A    
C2    O4    A    
N3    O16   S    
N5    H5    S    
C38   C46   A    
C36   N2    A    
C23   O5    A    
C16   C18   A    
C13   C16   A    
C9    C35   A    
C14   C15   A    
C10   C36   A    
C31   N3    D    
N9    H17   S    
C28   N7    S    
C4    C10   A    
C26   O22   S    
C32   N4    D    
Cu1   N4    S    
C30   O23   S    
