data_mof_unit_41576.cif
_audit_creation_date              2012-10-26T18:28:25-0400
_audit_creation_method            fapswitch 2.2
_symmetry_space_group_name_H-M    P1
_symmetry_Int_Tables_number       1
_space_group_crystal_system       triclinic
_cell_length_a                    27.80633
_cell_length_b                    11.070297
_cell_length_c                    9.870815
_cell_angle_alpha                 112.521121
_cell_angle_beta                  97.822872
_cell_angle_gamma                 90.892481
_cell_volume                      2773.0156088

loop_
_atom_site_label
_atom_site_type_symbol
_atom_type_description
_atom_site_fract_x
_atom_site_fract_y
_atom_site_fract_z
_atom_type_partial_charge
C1    C     C_R   0.496256 0.253467 0.438615 0.595496
C2    C     C_R   0.872049 0.391739 0.501370 -0.016217
C3    C     C_R   0.355105 0.511208 0.510543 0.020548
C4    C     C_R   0.644898 0.488812 0.489464 0.020546
C5    C     C_R   0.974045 0.390581 0.506618 0.024560
C6    C     C_R   0.025963 0.609487 0.493498 0.024561
C7    C     C_R   0.974185 0.600371 0.474241 0.025305
C8    C     C_R   0.025823 0.399699 0.525877 0.025305
C9    C     C_R   0.948776 0.496262 0.490591 -0.003903
C10   C     C_R   0.051232 0.503806 0.509523 -0.003903
C11   C     C_R   0.945797 0.277249 0.494508 0.208000
C12   C     C_R   0.503744 0.746533 0.561385 0.595481
C13   C     C_R   0.054212 0.722818 0.505603 0.208000
C14   C     C_R   0.896335 0.282727 0.502522 -0.063168
C15   C     C_R   0.103673 0.717335 0.497578 -0.063169
C16   C     C_R   0.407704 0.504186 0.503169 0.552520
C17   C     C_R   0.592297 0.495816 0.496831 0.552537
C18   C     C_R   0.053326 0.314828 0.575285 -0.056742
C19   C     C_R   0.946683 0.685245 0.424836 -0.056744
C20   C     C_2   0.498676 0.112954 0.400204 0.248878
C21   C     C_2   0.501323 0.887045 0.599796 0.248871
C22   C     C_2   0.489724 0.061685 0.499016 0.236841
C23   C     C_R   0.102629 0.504780 0.515073 -0.047999
C24   C     C_2   0.510275 0.938316 0.500985 0.236847
C25   C     C_2   0.503822 0.509997 0.081252 0.026958
C26   C     C_2   0.496177 0.490003 0.918748 0.026970
C27   C     C_R   0.179519 0.405746 0.533763 0.397346
C28   C     C_R   0.820489 0.594315 0.466337 0.397345
C29   C     C_R   0.178047 0.605612 0.495095 0.395195
C30   C     C_R   0.821959 0.394441 0.504985 0.395196
C31   C     C_R   0.286159 0.590334 0.643426 0.066250
C32   C     C_R   0.713852 0.409754 0.356593 0.066251
C33   C     C_R   0.337049 0.595180 0.640018 -0.019325
C34   C     C_R   0.897379 0.495286 0.485035 -0.048000
C35   C     C_R   0.662960 0.404902 0.359969 -0.019303
C36   C     C_R   0.322521 0.431566 0.385311 -0.141860
C37   C     C_R   0.677478 0.568408 0.614732 -0.141862
C38   C     C_R   0.272735 0.430914 0.387341 -0.061862
C39   C     C_R   0.727265 0.569072 0.612725 -0.061864
C40   C     C_R   0.254329 0.508526 0.514951 0.251741
C41   C     C_R   0.745677 0.491516 0.485106 0.251750
C42   C     C_3   0.558618 0.655570 0.956821 -0.178455
C43   C     C_3   0.441383 0.344429 0.043179 -0.178452
C44   C     C_3   0.128599 0.209966 0.623552 -0.317839
C45   C     C_R   0.128800 0.404054 0.539489 0.042336
C46   C     C_3   0.871409 0.790108 0.376571 -0.317839
C47   C     C_3   0.628160 0.309389 0.228957 -0.339082
C48   C     C_3   0.371852 0.690750 0.770973 -0.339060
C49   C     C_3   0.734039 0.330690 0.216399 -0.348543
C50   C     C_3   0.265981 0.669452 0.783620 -0.348542
C51   C     C_R   0.871208 0.596012 0.460620 0.042333
C52   C     C_R   0.103609 0.311117 0.576473 -0.007412
C53   C     C_R   0.896399 0.688955 0.423646 -0.007416
C54   C     C_R   0.127958 0.608321 0.498727 -0.016215
Cl1   Cl    Cl    0.488715 0.980561 0.780336 -0.522016
Cl2   Cl    Cl    0.511283 0.019437 0.219663 -0.521993
Cl3   Cl    Cl    0.966023 0.117006 0.434578 -0.581539
Cl4   Cl    Cl    0.033988 0.883063 0.565539 -0.581538
Cl5   Cl    Cl    0.555781 0.865416 0.390530 -0.586551
Cl6   Cl    Cl    0.444218 0.134585 0.609471 -0.586565
Cu1   Cu    Cu3+1 0.508480 0.521810 0.644910 1.003340
Cu2   Cu    Cu3+1 0.491520 0.478190 0.355090 1.003338
H1    H     H_    0.335710 0.368089 0.285552 0.135108
H2    H     H_    0.963853 0.745857 0.379215 0.196565
H3    H     H_    0.575285 0.699468 0.888885 0.177565
H4    H     H_    0.542557 0.734996 0.042547 0.200050
H5    H     H_    0.587839 0.613009 0.009315 0.104957
H6    H     H_    0.424716 0.300531 0.111114 0.177563
H7    H     H_    0.412162 0.386988 0.990684 0.104974
H8    H     H_    0.457444 0.265003 0.957453 0.200048
H9    H     H_    0.102968 0.151859 0.656302 0.168932
H10   H     H_    0.144550 0.139167 0.529984 0.202556
H11   H     H_    0.157183 0.258997 0.721209 0.168508
H12   H     H_    0.664285 0.631842 0.714505 0.135113
H13   H     H_    0.897041 0.848219 0.343827 0.168934
H14   H     H_    0.842827 0.741079 0.278910 0.168507
H15   H     H_    0.855457 0.860903 0.470139 0.202557
H16   H     H_    0.646368 0.230618 0.150077 0.140224
H17   H     H_    0.601882 0.258651 0.268450 0.186871
H18   H     H_    0.608212 0.362793 0.166593 0.161097
H19   H     H_    0.353648 0.769596 0.849768 0.140262
H20   H     H_    0.391790 0.637411 0.833436 0.161103
H21   H     H_    0.398140 0.741394 0.731406 0.186861
H22   H     H_    0.714474 0.349158 0.121151 0.134053
H23   H     H_    0.468208 0.417599 0.842674 0.179497
H24   H     H_    0.773145 0.356487 0.222388 0.152642
H25   H     H_    0.729792 0.224663 0.194367 0.154722
H26   H     H_    0.285565 0.651065 0.878900 0.134049
H27   H     H_    0.270211 0.775463 0.805564 0.154744
H28   H     H_    0.226880 0.643628 0.777682 0.152644
H29   H     H_    0.531791 0.582401 0.157326 0.179489
H30   H     H_    0.248135 0.368784 0.289280 0.138542
H31   H     H_    0.751861 0.631168 0.710815 0.138532
H32   H     H_    0.876174 0.196689 0.498983 0.195373
H33   H     H_    0.123834 0.803371 0.501111 0.195372
H34   H     H_    0.036156 0.254218 0.620910 0.196563
N1    N     N_R   0.202545 0.505317 0.511955 -0.399810
N2    N     N_R   0.797461 0.494736 0.488127 -0.399813
N3    N     N_2   0.478780 0.445430 0.137360 -0.260405
N4    N     N_2   0.521220 0.554570 0.862640 -0.260406
O1    O     O_R   0.504520 0.332330 0.577400 -0.476116
O2    O     O_2   0.793982 0.690120 0.450170 -0.497830
O3    O     O_2   0.797646 0.296959 0.523945 -0.484086
O4    O     O_2   0.202359 0.703085 0.476115 -0.484096
O5    O     O_R   0.495480 0.667670 0.422600 -0.476117
O6    O     O_R   0.490210 0.295500 0.332650 -0.471246
O7    O     O_R   0.509790 0.704500 0.667350 -0.471253
O8    O     O_R   0.437420 0.518430 0.622370 -0.502062
O9    O     O_R   0.562580 0.481570 0.377630 -0.502072
O10   O     O_R   0.423110 0.481600 0.377610 -0.508541
O11   O     O_R   0.576890 0.518400 0.622390 -0.508544
O12   O     O_2   0.206025 0.309945 0.549937 -0.497840

loop_
_geom_bond_atom_site_label_1
_geom_bond_atom_site_label_2
_ccdc_geom_bond_type
C38   C40   A    
C37   H12   S    
C23   C45   A    
C18   H34   S    
C49   H25   S    
C47   H17   S    
C20   Cl2   S    
C35   C47   S    
C46   H14   S    
C16   O10   A    
C39   C41   A    
Cu2   O5    S    
C48   H19   S    
C34   C51   A    
C49   H22   S    
C43   N3    S    
C5    C11   A    
C24   Cl5   S    
C15   H33   S    
C12   O5    A    
C28   C51   A    
C27   C45   A    
C3    C33   A    
C38   H30   S    
C31   C40   A    
C44   H9    S    
Cu1   O8    S    
C39   H31   S    
C25   N3    D    
C43   H6    S    
C30   O3    S    
C42   H3    S    
C32   C41   A    
C31   C33   A    
C36   H1    S    
C50   H26   S    
C1    O6    A    
C2    C34   A    
C4    C35   A    
C43   H7    S    
Cu1   Cu2   S    
C47   H18   S    
C2    C14   A    
C17   O11   A    
C46   H13   S    
C50   H28   S    
C25   H29   S    
C18   C52   A    
C32   C35   A    
C40   N1    S    
C21   Cl1   S    
C13   Cl4   S    
C45   C52   A    
C25   C26   S    
C12   C21   S    
C8    C18   A    
C29   O4    S    
C51   C53   A    
Cu1   O1    S    
C15   C54   A    
C5    C9    A    
C42   N4    S    
C12   O7    A    
C50   H27   S    
Cu2   O10   S    
C19   H2    S    
C4    C17   S    
C20   C22   D    
C27   O12   S    
C43   H8    S    
C7    C19   A    
C13   C15   A    
C42   H5    S    
C22   C24   S    
Cu1   N4    S    
C31   C50   S    
Cu1   O11   S    
C1    O1    A    
C23   C54   A    
C28   N2    A    
C7    C9    A    
C27   N1    A    
C1    C20   S    
C49   H24   S    
C17   O9    A    
C44   C52   S    
C6    C10   A    
C5    C8    A    
C6    C7    A    
Cu2   O6    S    
C10   C23   A    
C46   H15   S    
C30   N2    A    
C48   H21   S    
C29   N1    A    
C2    C30   A    
C36   C38   A    
C37   C39   A    
C6    C13   A    
C22   Cl6   S    
C19   C53   A    
C9    C34   A    
Cu2   O9    S    
C3    C36   A    
C26   H23   S    
C46   C53   S    
C11   C14   A    
C48   H20   S    
C44   H10   S    
C44   H11   S    
Cu1   O7    S    
C32   C49   S    
C16   O8    A    
Cu2   N3    S    
C28   O2    S    
C4    C37   A    
C8    C10   A    
C29   C54   A    
C21   C24   D    
C42   H4    S    
C33   C48   S    
C41   N2    S    
C47   H16   S    
C11   Cl3   S    
C14   H32   S    
C3    C16   S    
C26   N4    D    
