data_mof_unit_53246.cif
_audit_creation_date              2013-03-05T16:29:44-0500
_audit_creation_method            fapswitch 2.2
_symmetry_space_group_name_H-M    P1
_symmetry_Int_Tables_number       1
_space_group_crystal_system       triclinic
_cell_length_a                    26.1419
_cell_length_b                    26.087042
_cell_length_c                    18.372488
_cell_angle_alpha                 90.10929
_cell_angle_beta                  134.465293
_cell_angle_gamma                 89.819264
_cell_volume                      8941.86644563

loop_
_atom_site_label
_atom_site_type_symbol
_atom_site_description
_atom_site_fract_x
_atom_site_fract_y
_atom_site_fract_z
_atom_type_partial_charge
Zn1   Zn    Zn3+2 0.663280 0.793400 0.413250 1.101500
Zn2   Zn    Zn3+2 0.663280 0.206600 0.413250 1.103485
Zn3   Zn    Zn3+2 0.163280 0.293400 0.413250 1.093416
Zn4   Zn    Zn3+2 0.163280 0.706600 0.413250 1.099371
Zn5   Zn    Zn3+2 0.836780 0.793410 0.586750 1.037958
Zn6   Zn    Zn3+2 0.836780 0.206590 0.586750 1.077628
Zn7   Zn    Zn3+2 0.336780 0.293410 0.586750 1.040130
Zn8   Zn    Zn3+2 0.336780 0.706590 0.586750 1.080323
Zn9   Zn    Zn3+2 0.750030 0.706650 0.586760 1.054166
Zn10  Zn    Zn3+2 0.750030 0.293350 0.586760 1.050110
Zn11  Zn    Zn3+2 0.250030 0.206650 0.586760 1.060110
Zn12  Zn    Zn3+2 0.250030 0.793350 0.586760 1.059133
Zn13  Zn    Zn3+2 0.750010 0.706640 0.413230 1.104074
Zn14  Zn    Zn3+2 0.750010 0.293360 0.413230 1.097545
Zn15  Zn    Zn3+2 0.250010 0.206640 0.413230 1.108233
Zn16  Zn    Zn3+2 0.250010 0.793360 0.413230 1.091004
O1    O     O_3   0.750030 0.750030 0.500000 -0.559564
O2    O     O_3   0.750030 0.249970 0.500000 -0.565443
O3    O     O_3   0.250030 0.250030 0.500000 -0.559540
O4    O     O_3   0.250030 0.749970 0.500000 -0.564596
O5    O     O_R   0.835440 0.719660 0.439260 -0.599074
O6    O     O_R   0.835440 0.280340 0.439260 -0.602123
O7    O     O_R   0.335440 0.219660 0.439260 -0.596349
O8    O     O_R   0.335440 0.780340 0.439260 -0.607650
O9    O     O_R   0.603880 0.780390 0.439300 -0.596653
O10   O     O_R   0.603880 0.219610 0.439300 -0.585627
O11   O     O_R   0.103880 0.280390 0.439300 -0.600987
O12   O     O_R   0.103880 0.719610 0.439300 -0.589114
O13   O     O_R   0.810750 0.865830 0.560720 -0.593893
O14   O     O_R   0.810750 0.134170 0.560720 -0.587166
O15   O     O_R   0.310750 0.365830 0.560720 -0.596809
O16   O     O_R   0.310750 0.634170 0.560720 -0.593062
O17   O     O_R   0.750030 0.634230 0.560720 -0.647867
O18   O     O_R   0.750030 0.365770 0.560720 -0.644943
O19   O     O_R   0.250030 0.134230 0.560720 -0.647662
O20   O     O_R   0.250030 0.865770 0.560720 -0.643963
O21   O     O_R   0.896190 0.780400 0.731600 -0.636302
O22   O     O_R   0.896190 0.219600 0.731600 -0.588916
O23   O     O_R   0.396190 0.280400 0.731600 -0.638208
O24   O     O_R   0.396190 0.719600 0.731600 -0.590867
O25   O     O_R   0.664570 0.719650 0.268390 -0.583120
O26   O     O_R   0.664570 0.280350 0.268390 -0.593992
O27   O     O_R   0.164570 0.219650 0.268390 -0.584852
O28   O     O_R   0.164570 0.780350 0.268390 -0.602144
O29   O     O_R   0.835480 0.719680 0.731610 -0.614683
O30   O     O_R   0.835480 0.280320 0.731610 -0.634118
O31   O     O_R   0.335480 0.219680 0.731610 -0.607413
O32   O     O_R   0.335480 0.780320 0.731610 -0.617440
O33   O     O_R   0.603860 0.780380 0.268400 -0.611478
O34   O     O_R   0.603860 0.219620 0.268400 -0.603730
O35   O     O_R   0.103860 0.280380 0.268400 -0.620756
O36   O     O_R   0.103860 0.719620 0.268400 -0.604341
O37   O     O_R   0.689310 0.865830 0.439290 -0.602734
O38   O     O_R   0.689310 0.134170 0.439290 -0.598639
O39   O     O_R   0.189310 0.365830 0.439290 -0.606333
O40   O     O_R   0.189310 0.634170 0.439290 -0.601057
O41   O     O_R   0.750020 0.634220 0.439270 -0.589796
O42   O     O_R   0.750020 0.365780 0.439270 -0.587044
O43   O     O_R   0.250020 0.134220 0.439270 -0.588666
O44   O     O_R   0.250020 0.865780 0.439270 -0.602233
O45   O     O_R   0.896170 0.780390 0.560700 -0.622120
O46   O     O_R   0.896170 0.219610 0.560700 -0.604651
O47   O     O_R   0.396170 0.280390 0.560700 -0.623506
O48   O     O_R   0.396170 0.719610 0.560700 -0.612661
O49   O     O_R   0.664610 0.719670 0.560740 -0.602920
O50   O     O_R   0.664610 0.280330 0.560740 -0.607548
O51   O     O_R   0.164610 0.219670 0.560740 -0.600126
O52   O     O_R   0.164610 0.780330 0.560740 -0.606577
C1    C     C_R   0.889883 0.750222 0.500024 0.853507
C2    C     C_R   0.890387 0.250329 0.500822 0.861587
C3    C     C_R   0.389306 0.250843 0.498764 0.859515
C4    C     C_R   0.390194 0.750210 0.500522 0.869928
C5    C     C_R   0.611817 0.750892 0.502911 0.902336
C6    C     C_R   0.611318 0.249913 0.501982 0.883224
C7    C     C_R   0.111427 0.250738 0.502431 0.896060
C8    C     C_R   0.111524 0.749529 0.502430 0.886306
C9    C     C_R   0.749558 0.889857 0.496831 0.862927
C10   C     C_R   0.749736 0.110126 0.496885 0.865660
C11   C     C_R   0.249531 0.389666 0.496594 0.860762
C12   C     C_R   0.249716 0.610217 0.497393 0.862254
C13   C     C_R   0.751991 0.609972 0.502097 0.844334
C14   C     C_R   0.749231 0.389952 0.499471 0.854970
C15   C     C_R   0.251030 0.110075 0.501098 0.856491
C16   C     C_R   0.250135 0.889816 0.500415 0.854425
C17   C     C_R   0.889455 0.749480 0.779374 0.829356
C18   C     C_R   0.889280 0.250077 0.779669 0.831295
C19   C     C_R   0.389397 0.249596 0.779358 0.828104
C20   C     C_R   0.390648 0.751828 0.779410 0.857576
C21   C     C_R   0.609278 0.749475 0.219980 0.880804
C22   C     C_R   0.610023 0.250216 0.220055 0.871332
C23   C     C_R   0.109777 0.250001 0.220129 0.869204
C24   C     C_R   0.109460 0.750618 0.220160 0.875490
C25   C     C_R   0.554348 0.720536 0.048390 -0.074062
C26   C     C_R   0.560592 0.274088 0.048319 -0.069472
C27   C     C_R   0.055140 0.220888 0.049581 -0.061869
C28   C     C_R   0.058244 0.775661 0.048735 -0.076600
C29   C     C_R   0.551778 0.750805 0.108059 -0.028689
C30   C     C_R   0.552651 0.250446 0.108178 -0.019936
C31   C     C_R   0.052168 0.251141 0.108564 -0.065384
C32   C     C_R   0.051687 0.750548 0.108384 -0.014023
C33   C     C_R   0.492992 0.786076 0.054919 0.049244
C34   C     C_R   0.486275 0.224792 0.055133 0.024009
C35   C     C_R   0.991405 0.284551 0.054519 0.071793
C36   C     C_R   0.986166 0.723962 0.055173 0.027103
C37   C     C_R   0.440440 0.788406 0.946191 0.038568
C38   C     C_R   0.432257 0.223372 0.946678 0.039445
C39   C     C_R   0.932747 0.278656 0.946880 0.048850
C40   C     C_R   0.932688 0.721668 0.946471 0.039870
C41   C     C_R   0.446721 0.756137 0.890260 -0.034009
C42   C     C_R   0.443259 0.248519 0.890212 -0.021652
C43   C     C_R   0.943808 0.251990 0.890890 -0.065091
C44   C     C_R   0.943541 0.747726 0.890284 -0.021105
C45   C     C_R   0.507532 0.726324 0.945950 -0.088917
C46   C     C_R   0.508046 0.272809 0.944836 -0.140783
C47   C     C_R   0.008852 0.226955 0.947152 -0.076135
C48   C     C_R   0.007184 0.773629 0.945483 -0.142951
C49   C     C_3   0.544195 0.688985 0.933680 0.201755
C50   C     C_3   0.549150 0.300863 0.928971 0.228709
C51   C     C_3   0.046225 0.188366 0.937306 0.200165
C52   C     C_3   0.045819 0.808008 0.932552 0.231743
C53   C     C_3   0.594530 0.678439 0.049522 0.391208
C54   C     C_3   0.610077 0.303385 0.047266 0.426276
C55   C     C_3   0.096323 0.178823 0.053930 0.375302
C56   C     C_3   0.103461 0.812368 0.050659 0.431074
C57   C     C_R   0.492244 0.771978 0.429714 -0.058296
C58   C     C_R   0.496199 0.222359 0.438156 -0.065646
C59   C     C_R   0.996368 0.280531 0.438667 -0.052049
C60   C     C_R   0.997536 0.719889 0.441296 -0.063672
C61   C     C_R   0.559775 0.752641 0.509845 -0.153795
C62   C     C_R   0.557326 0.251694 0.505048 -0.151393
C63   C     C_R   0.060177 0.253922 0.511279 -0.160672
C64   C     C_R   0.059281 0.748831 0.509040 -0.154362
C65   C     C_R   0.574062 0.733695 0.595126 0.280606
C66   C     C_R   0.562306 0.284856 0.571466 0.262942
C67   C     C_R   0.073223 0.231584 0.593532 0.272110
C68   C     C_R   0.067361 0.778448 0.581719 0.260415
C69   C     C_R   0.519254 0.734020 0.594507 -0.009565
C70   C     C_R   0.507274 0.285201 0.569928 -0.029095
C71   C     C_R   0.018770 0.231771 0.593221 -0.016472
C72   C     C_R   0.012346 0.779066 0.580149 -0.021840
C73   C     C_R   0.449003 0.751755 0.506590 -0.061435
C74   C     C_R   0.445118 0.253921 0.498663 -0.066032
C75   C     C_R   0.950200 0.253164 0.508975 -0.077694
C76   C     C_R   0.948121 0.750471 0.505027 -0.062154
C77   C     C_R   0.438974 0.770389 0.426541 -0.043317
C78   C     C_R   0.440760 0.226130 0.430131 -0.044263
C79   C     C_R   0.943125 0.279468 0.436509 -0.023303
C80   C     C_R   0.944096 0.721824 0.437870 -0.055046
C81   C     C_3   0.384109 0.787788 0.317490 0.010755
C82   C     C_3   0.397614 0.187026 0.346932 0.007219
C83   C     C_3   0.885748 0.288549 0.323378 0.000049
C84   C     C_3   0.893686 0.691662 0.341606 0.008202
C85   C     C_3   0.446732 0.792084 0.323865 0.397268
C86   C     C_3   0.464145 0.179491 0.362813 0.414232
C87   C     C_3   0.947263 0.292928 0.327463 0.396971
C88   C     C_3   0.957281 0.685024 0.350637 0.424826
C89   C     C_R   0.778605 0.525519 0.468968 -0.051977
C90   C     C_R   0.769632 0.473331 0.459092 -0.057378
C91   C     C_R   0.276364 0.025326 0.468759 -0.035520
C92   C     C_R   0.274892 0.973374 0.467445 -0.061226
C93   C     C_R   0.759302 0.554163 0.511117 -0.032242
C94   C     C_R   0.752966 0.445656 0.504710 -0.013793
C95   C     C_R   0.252920 0.054352 0.504367 -0.009382
C96   C     C_R   0.251426 0.945322 0.503254 -0.009952
C97   C     C_R   0.748122 0.527058 0.565507 -0.145611
C98   C     C_R   0.746227 0.473210 0.563756 -0.146944
C99   C     C_R   0.230963 0.027150 0.545104 -0.154321
C100  C     C_R   0.230363 0.973129 0.544759 -0.151681
H1    H     H_    0.737720 0.547228 0.605652 0.197891
H2    H     H_    0.735960 0.453529 0.604315 0.202929
H3    H     H_    0.213275 0.047398 0.575755 0.196829
H4    H     H_    0.212523 0.953368 0.575459 0.198573
C101  C     C_3   0.749293 0.471419 0.359657 0.329448
C102  C     C_3   0.767356 0.529376 0.376935 0.314190
C103  C     C_3   0.303358 0.967852 0.420043 0.320628
C104  C     C_3   0.305173 0.027720 0.421013 0.316530
C105  C     C_R   0.809540 0.973423 0.533258 -0.017826
C106  C     C_R   0.809817 0.025975 0.533963 -0.017500
C107  C     C_R   0.309490 0.473524 0.542770 -0.033985
C108  C     C_R   0.309649 0.525503 0.544785 -0.046426
C109  C     C_R   0.747118 0.945476 0.482549 -0.235296
C110  C     C_R   0.747482 0.054469 0.482614 -0.229206
C111  C     C_R   0.247099 0.445145 0.484620 -0.203460
C112  C     C_R   0.247426 0.554509 0.486437 -0.202245
C113  C     C_R   0.681405 0.973110 0.412359 0.209733
C114  C     C_R   0.681668 0.027231 0.411805 0.213095
C115  C     C_R   0.181521 0.472941 0.413336 0.210214
C116  C     C_R   0.181744 0.527169 0.413973 0.212292
C117  C     C_3   0.887063 0.029021 0.633076 0.215715
C118  C     C_3   0.886849 0.969325 0.631733 0.213892
C119  C     C_3   0.389193 0.528815 0.632575 0.222887
C120  C     C_3   0.389076 0.469040 0.629768 0.226610
N1    N     N_3   0.487804 0.820375 0.110920 -0.339466
H5    H     H_    0.509405 0.855752 0.117489 0.239176
H6    H     H_    0.434452 0.825308 0.073723 0.249746
N2    N     N_3   0.474008 0.199418 0.110976 -0.331269
H7    H     H_    0.481450 0.160086 0.110810 0.253644
H8    H     H_    0.421714 0.206441 0.076724 0.240400
N3    N     N_3   0.990964 0.325463 0.107049 -0.314887
H9    H     H_    0.035765 0.348112 0.140590 0.238840
H10   H     H_    0.948757 0.350999 0.056082 0.226778
N4    N     N_3   0.971514 0.702584 0.110626 -0.336657
H11   H     H_    0.967859 0.662726 0.102379 0.248259
H12   H     H_    0.922686 0.717677 0.079831 0.255381
N5    N     N_3   0.332024 0.747460 0.249359 -0.306271
H13   H     H_    0.357391 0.711669 0.272147 0.220322
H14   H     H_    0.310786 0.754118 0.176436 0.287095
N6    N     N_3   0.335243 0.209901 0.248910 -0.286939
H15   H     H_    0.348219 0.245502 0.239317 0.233812
H16   H     H_    0.319658 0.185849 0.190622 0.253379
N7    N     N_3   0.838407 0.244140 0.267081 -0.319903
H17   H     H_    0.866575 0.209974 0.303776 0.221015
H18   H     H_    0.820861 0.242920 0.195629 0.287665
N8    N     N_3   0.834709 0.723759 0.256375 -0.295402
H19   H     H_    0.853291 0.760264 0.260858 0.220821
H20   H     H_    0.814415 0.707380 0.188555 0.278550
N9    N     N_R   0.466003 0.844776 0.322401 0.214840
O53   O     O_R   0.429714 0.868592 0.236112 -0.276720
O54   O     O_R   0.516419 0.869429 0.406931 -0.297157
N10   N     N_R   0.502493 0.130610 0.410947 0.220830
O55   O     O_R   0.472396 0.087696 0.361807 -0.234989
O56   O     O_R   0.567464 0.129542 0.501549 -0.347853
N11   N     N_R   0.959718 0.345018 0.311900 0.215526
O57   O     O_R   0.916604 0.364748 0.220854 -0.275054
O58   O     O_R   0.012466 0.372780 0.388968 -0.300422
N12   N     N_R   0.988054 0.633079 0.378299 0.215947
O59   O     O_R   0.951670 0.595773 0.312971 -0.241302
O60   O     O_R   0.051515 0.623578 0.467878 -0.337996
N13   N     N_R   0.441524 0.757355 0.255643 0.194771
O61   O     O_R   0.471637 0.712263 0.286158 -0.390148
O62   O     O_R   0.400981 0.769715 0.160376 -0.339751
N14   N     N_R   0.452105 0.191637 0.273843 0.196272
O63   O     O_R   0.453203 0.238784 0.251653 -0.413099
O64   O     O_R   0.436634 0.154770 0.213204 -0.325485
N15   N     N_R   0.946316 0.253887 0.268412 0.191746
O65   O     O_R   0.966192 0.206837 0.301097 -0.407724
O66   O     O_R   0.917954 0.264718 0.177181 -0.309499
N16   N     N_R   0.943077 0.705749 0.263860 0.195919
O67   O     O_R   0.959638 0.752753 0.263623 -0.407629
O68   O     O_R   0.903418 0.679263 0.180006 -0.368741
N17   N     N_R   0.673112 0.460411 0.270683 0.251828
O69   O     O_R   0.644881 0.471159 0.179581 -0.184174
O70   O     O_R   0.632164 0.442415 0.281139 -0.332273
N18   N     N_R   0.708473 0.563835 0.298168 0.236754
O71   O     O_R   0.720839 0.601977 0.266931 -0.257828
O72   O     O_R   0.648195 0.562735 0.273817 -0.300259
N19   N     N_R   0.250849 0.945174 0.317551 0.235629
O73   O     O_R   0.270912 0.930015 0.273281 -0.258583
O74   O     O_R   0.182550 0.949380 0.262978 -0.254082
N20   N     N_R   0.254693 0.050964 0.318993 0.236345
O75   O     O_R   0.269072 0.049818 0.264048 -0.248456
O76   O     O_R   0.190623 0.064101 0.275608 -0.260181
N21   N     N_R   0.796458 0.439325 0.361777 0.235313
O77   O     O_R   0.853393 0.417790 0.445904 -0.370400
O78   O     O_R   0.783329 0.434357 0.279494 -0.255750
N22   N     N_R   0.834251 0.541050 0.404692 0.218759
O79   O     O_R   0.891428 0.555390 0.496863 -0.374103
O80   O     O_R   0.837873 0.534321 0.338234 -0.270533
N23   N     N_R   0.373768 0.942194 0.487651 0.221343
O81   O     O_R   0.401278 0.921256 0.572917 -0.386171
O82   O     O_R   0.409584 0.939989 0.462636 -0.263446
N24   N     N_R   0.377220 0.049872 0.488607 0.200645
O83   O     O_R   0.402420 0.078139 0.566171 -0.397249
O84   O     O_R   0.416884 0.041583 0.470962 -0.276952
N25   N     N_R   0.613843 0.947334 0.342741 0.256136
O85   O     O_R   0.577865 0.940655 0.366702 -0.222789
O86   O     O_R   0.583022 0.938912 0.249658 -0.342688
N26   N     N_R   0.614383 0.053477 0.340412 0.257735
O87   O     O_R   0.575132 0.058704 0.359274 -0.220298
O88   O     O_R   0.588700 0.066662 0.251716 -0.330006
N27   N     N_R   0.114442 0.447184 0.337756 0.255373
O89   O     O_R   0.068466 0.447062 0.345228 -0.220871
O90   O     O_R   0.093959 0.433229 0.252443 -0.355782
N28   N     N_R   0.114902 0.553458 0.339091 0.254378
O91   O     O_R   0.073638 0.560271 0.354199 -0.222949
O92   O     O_R   0.091247 0.564418 0.250655 -0.327942
N29   N     N_3   0.896546 0.052906 0.714091 -0.348531
H21   H     H_    0.946493 0.042091 0.784570 0.262645
H22   H     H_    0.857177 0.040646 0.711327 0.173685
N30   N     N_3   0.896883 0.944086 0.712205 -0.354070
H23   H     H_    0.944767 0.957014 0.782746 0.263659
H24   H     H_    0.855487 0.953585 0.706915 0.173556
N31   N     N_3   0.409386 0.551705 0.722462 -0.340222
H25   H     H_    0.461731 0.540512 0.787136 0.257848
H26   H     H_    0.375840 0.539165 0.730969 0.185396
N32   N     N_3   0.410339 0.442792 0.717938 -0.353741
H27   H     H_    0.462031 0.454574 0.783187 0.264426
H28   H     H_    0.376177 0.452444 0.726951 0.180535
N33   N     N_R   0.932596 0.052711 0.622738 0.287984
O93   O     O_R   0.904568 0.076666 0.539526 -0.337387
O94   O     O_R   0.001926 0.051829 0.698942 -0.259071
N34   N     N_R   0.931485 0.946145 0.619047 0.279025
O95   O     O_R   0.902667 0.925820 0.532526 -0.347057
O96   O     O_R   0.000758 0.944393 0.695777 -0.259043
N35   N     N_R   0.424638 0.553555 0.605859 0.284734
O97   O     O_R   0.389849 0.561778 0.510341 -0.331728
O98   O     O_R   0.493403 0.562250 0.676605 -0.270630
N36   N     N_R   0.424482 0.447160 0.600819 0.276987
O99   O     O_R   0.387552 0.425576 0.512245 -0.353602
O100  O     O_R   0.494045 0.448345 0.665276 -0.282649
N37   N     N_3   0.381882 0.824050 0.893291 -0.379102
H29   H     H_    0.348384 0.813014 0.902870 0.251186
H30   H     H_    0.402111 0.860707 0.923583 0.205904
N38   N     N_3   0.366462 0.196624 0.894612 -0.367206
H31   H     H_    0.338520 0.215487 0.908309 0.241264
H32   H     H_    0.378356 0.159230 0.923057 0.213411
N39   N     N_3   0.861878 0.295819 0.896433 -0.353170
H33   H     H_    0.827942 0.264145 0.857757 0.233546
H34   H     H_    0.859031 0.303612 0.949283 0.239615
N40   N     N_3   0.865775 0.696073 0.893229 -0.373395
H35   H     H_    0.831076 0.721593 0.885391 0.256511
H36   H     H_    0.873428 0.663287 0.932914 0.214932
N41   N     N_3   0.578049 0.714484 0.904873 -0.414574
H37   H     H_    0.603055 0.748486 0.945856 0.214636
H38   H     H_    0.617668 0.690180 0.923280 0.244616
N42   N     N_3   0.565326 0.269292 0.880639 -0.375735
H39   H     H_    0.577432 0.231718 0.908308 0.210664
H40   H     H_    0.519735 0.267185 0.802407 0.216134
N43   N     N_3   0.080448 0.212048 0.907777 -0.415409
H41   H     H_    0.102542 0.247625 0.943009 0.219467
H42   H     H_    0.121883 0.188094 0.931026 0.233600
N44   N     N_3   0.069172 0.781501 0.889121 -0.382317
H43   H     H_    0.087188 0.744488 0.919499 0.207638
H44   H     H_    0.024634 0.776780 0.810854 0.209056
N45   N     N_R   0.498162 0.646556 0.865452 0.260712
O101  O     O_R   0.493634 0.635075 0.792205 -0.309381
O102  O     O_R   0.452075 0.627051 0.864972 -0.352886
N46   N     N_R   0.517754 0.350541 0.878747 0.258835
O103  O     O_R   0.535478 0.372497 0.835538 -0.294526
O104  O     O_R   0.478108 0.375306 0.886005 -0.356256
N47   N     N_R   0.999981 0.145444 0.870794 0.259719
O105  O     O_R   0.997785 0.130664 0.800938 -0.301949
O106  O     O_R   0.954129 0.126728 0.871261 -0.361788
N48   N     N_R   0.008318 0.855967 0.879653 0.253545
O107  O     O_R   0.031942 0.885174 0.851355 -0.276151
O108  O     O_R   0.960332 0.873738 0.876924 -0.360218
N49   N     N_R   0.669853 0.690191 0.111454 0.196589
O109  O     O_R   0.711673 0.655207 0.125469 -0.325903
O110  O     O_R   0.693067 0.736881 0.141560 -0.425399
N50   N     N_R   0.674327 0.275545 0.088564 0.192784
O111  O     O_R   0.713069 0.294655 0.075178 -0.341807
O112  O     O_R   0.683660 0.227947 0.116938 -0.409448
N51   N     N_R   0.172135 0.191167 0.119432 0.181843
O113  O     O_R   0.220238 0.156798 0.183188 -0.285225
O114  O     O_R   0.192196 0.238422 0.129574 -0.435381
N52   N     N_R   0.173064 0.791963 0.098567 0.198606
O115  O     O_R   0.211551 0.817923 0.091083 -0.331863
O116  O     O_R   0.188625 0.744114 0.126614 -0.417813
N53   N     N_R   0.583993 0.627869 0.072354 0.266411
O117  O     O_R   0.551042 0.623428 0.101629 -0.282915
O118  O     O_R   0.600999 0.586599 0.053230 -0.225182
N54   N     N_R   0.626792 0.355237 0.089461 0.238147
O119  O     O_R   0.648410 0.389588 0.064821 -0.217016
O120  O     O_R   0.632465 0.364585 0.164447 -0.295171
N55   N     N_R   0.085864 0.128535 0.077880 0.264386
O121  O     O_R   0.059645 0.124837 0.117227 -0.303271
O122  O     O_R   0.104154 0.086980 0.061392 -0.216769
N56   N     N_R   0.108561 0.863195 0.089618 0.245173
O123  O     O_R   0.127591 0.902493 0.069734 -0.190595
O124  O     O_R   0.091804 0.869918 0.141081 -0.315098
N57   N     N_R   0.643966 0.715311 0.683256 0.208007
O125  O     O_R   0.655891 0.666217 0.699467 -0.330564
O126  O     O_R   0.693355 0.747635 0.752495 -0.398274
N58   N     N_R   0.622982 0.317606 0.642054 0.221354
O127  O     O_R   0.621042 0.364649 0.616813 -0.324562
O128  O     O_R   0.678636 0.301207 0.733398 -0.359496
N59   N     N_R   0.141207 0.208908 0.677818 0.212776
O129  O     O_R   0.148716 0.159212 0.683785 -0.331808
O130  O     O_R   0.193319 0.237677 0.753649 -0.395546
N60   N     N_R   0.130683 0.807987 0.657734 0.219504
O131  O     O_R   0.131573 0.856607 0.642980 -0.333105
O132  O     O_R   0.185518 0.787158 0.744719 -0.357776
N61   N     N_3   0.534382 0.715110 0.681391 -0.369007
H45   H     H_    0.531017 0.675154 0.675691 0.278201
H46   H     H_    0.586276 0.725550 0.749249 0.237158
N62   N     N_3   0.513115 0.319292 0.636963 -0.345032
H47   H     H_    0.500273 0.356286 0.605226 0.284986
H48   H     H_    0.565834 0.318816 0.710073 0.263108
N63   N     N_3   0.032851 0.208871 0.676881 -0.358665
H49   H     H_    0.037140 0.169298 0.673456 0.279490
H50   H     H_    0.081512 0.222735 0.745882 0.228446
N64   N     N_3   0.022228 0.809055 0.654763 -0.357495
H51   H     H_    0.028573 0.847444 0.646244 0.286614
H52   H     H_    0.068929 0.796639 0.727332 0.235280
N65   N     N_3   0.349696 0.836113 0.304043 -0.283927
H53   H     H_    0.332365 0.854531 0.239533 0.289487
H54   H     H_    0.387530 0.860283 0.365738 0.262163
N66   N     N_3   0.378017 0.143608 0.373062 -0.297046
H55   H     H_    0.364157 0.113255 0.325054 0.291380
H56   H     H_    0.422462 0.132627 0.448254 0.249065
N67   N     N_3   0.845525 0.335732 0.297666 -0.281142
H57   H     H_    0.821304 0.347601 0.225183 0.288923
H58   H     H_    0.880952 0.364792 0.348589 0.267762
N68   N     N_3   0.867981 0.645233 0.351579 -0.284867
H59   H     H_    0.844466 0.622258 0.288179 0.299683
H60   H     H_    0.911290 0.624996 0.416639 0.253333

loop_
_geom_bond_atom_site_label_1
_geom_bond_atom_site_label_2
_geom_bond_distance
_ccdc_geom_bond_type
N44   H44   1.045575 S    
C65   C69   1.424867 A    
C89   C90   1.372170 A    
Zn5   O21   1.954300 S    
C74   C78   1.385619 A    
C31   C35   1.433058 A    
N11   O57   1.300644 A    
O23   C19   1.291904 A    
C68   C72   1.418180 A    
N49   O109  1.301763 A    
N37   H29   1.048055 S    
C67   C71   1.419506 A    
C118  N30   1.465438 S    
C25   C53   1.507334 S    
O42   C14   1.284768 A    
C104  N20   1.468475 S    
C27   C31   1.384758 A    
N20   O76   1.298166 A    
N27   O89   1.301790 A    
C32   C36   1.424643 A    
N18   O71   1.299244 A    
O46   C2    1.282519 A    
N28   O91   1.300146 A    
C66   N58   1.431855 S    
C69   C73   1.427404 A    
C78   C82   1.495084 S    
O34   C22   1.286830 A    
C52   N44   1.471470 S    
C84   C88   1.559896 S    
C101  N21   1.465964 S    
C9    C109  1.468187 S    
Zn3   O3    1.972371 S    
C83   C87   1.561025 S    
Zn16  O28   1.964644 S    
Zn5   O13   1.949451 S    
O28   C24   1.295502 A    
C73   C77   1.389136 A    
C103  N19   1.469606 S    
N3    H9    1.045170 S    
Zn4   O40   1.949701 S    
C62   C66   1.424255 A    
Zn15  O43   1.949698 S    
O11   C7    1.290126 A    
C97   H1    1.083233 S    
N16   O68   1.299443 A    
N4    H11   1.045438 S    
C119  C120  1.560033 S    
C96   C100  1.412247 A    
Zn7   O15   1.949451 S    
N50   O111  1.298985 A    
C106  C117  1.499643 S    
C99   H3    1.082607 S    
C30   C34   1.429789 A    
C84   N8    1.464515 S    
N42   H39   1.045901 S    
N13   O61   1.302336 A    
O16   C12   1.301047 A    
C103  C104  1.562335 S    
C68   N60   1.431649 S    
Zn16  O4    1.956620 S    
C52   N48   1.460475 S    
N54   O119  1.300194 A    
Zn12  O4    1.953098 S    
N14   O64   1.302617 A    
Zn13  O5    1.959489 S    
Zn2   O10   1.947501 S    
C37   N37   1.436228 S    
C106  C110  1.392575 A    
C61   C65   1.421496 A    
C20   C41   1.458393 S    
C26   C54   1.516347 S    
C104  N24   1.466584 S    
Zn6   O14   1.951841 S    
N26   O88   1.300951 A    
Zn7   O3    1.977233 S    
N36   O99   1.302385 A    
O43   C15   1.283901 A    
N2    H7    1.044125 S    
N23   O82   1.301390 A    
C51   C55   1.561059 S    
O24   C20   1.293868 A    
N34   O96   1.300797 A    
C82   N6    1.463599 S    
N32   H28   1.045924 S    
Zn10  O2    1.953098 S    
Zn11  O19   1.947976 S    
Zn9   O49   1.957209 S    
N68   H59   1.044231 S    
C60   C88   1.501212 S    
Zn4   O4    1.977085 S    
C57   C61   1.376442 A    
C70   N62   1.436757 S    
N1    H5    1.045249 S    
C58   C62   1.379276 A    
C28   C48   1.354902 A    
C35   C39   1.427535 A    
Zn8   O24   1.954238 S    
C10   C110  1.468936 S    
C93   C97   1.413185 A    
C108  C112  1.385680 A    
N65   H54   1.044607 S    
O25   C21   1.296222 A    
N43   H42   1.046324 S    
N53   O117  1.301788 A    
C87   N11   1.472744 S    
C17   C44   1.455019 S    
N60   O131  1.301171 A    
N41   H37   1.045278 S    
C113  N25   1.430720 S    
N35   O98   1.304014 A    
C19   C42   1.453897 S    
C49   N41   1.472133 S    
C1    C76   1.459577 S    
Zn12  O52   1.959336 S    
C2    C75   1.464711 S    
O22   C18   1.290194 A    
N21   O77   1.301930 A    
N8    H20   1.043976 S    
N41   H38   1.046425 S    
Zn13  O41   1.949698 S    
O50   C6    1.277745 A    
N58   O127  1.300955 A    
N17   O69   1.301813 A    
Zn16  O44   1.947930 S    
N45   O102  1.303641 A    
C38   N38   1.435405 S    
C81   C85   1.561651 S    
Zn2   O34   1.954305 S    
C84   N68   1.459646 S    
C71   C75   1.424937 A    
N66   H55   1.042908 S    
N22   O80   1.300621 A    
Zn6   O22   1.954238 S    
C40   N40   1.438832 S    
C42   C46   1.378525 A    
C85   N9    1.472240 S    
C102  N18   1.465355 S    
C89   C102  1.503175 S    
N38   H32   1.045830 S    
N29   H21   1.044808 S    
C85   N13   1.472339 S    
N45   O101  1.300089 A    
N10   O55   1.301524 A    
N62   H48   1.053700 S    
C59   C63   1.386623 A    
Zn10  O50   1.959336 S    
C120  N36   1.466483 S    
N30   H23   1.043338 S    
C120  N32   1.463653 S    
N48   O107  1.298662 A    
C54   N54   1.465205 S    
C14   C94   1.455211 S    
N9    O53   1.300890 A    
C48   C52   1.491168 S    
O5    C1    1.298220 A    
O26   C22   1.292408 A    
O31   C19   1.279607 A    
C79   C83   1.502689 S    
N52   O116  1.301812 A    
C83   N67   1.463555 S    
C64   C68   1.423579 A    
N33   O93   1.302345 A    
Zn5   O45   1.947292 S    
N56   O124  1.302211 A    
N25   O86   1.300535 A    
Zn7   O47   1.947292 S    
Zn8   O48   1.949318 S    
C117  N33   1.468591 S    
C102  N22   1.471171 S    
N55   O122  1.301495 A    
C98   H2    1.083259 S    
C47   C51   1.497119 S    
C91   C104  1.505537 S    
N51   O114  1.302171 A    
C92   C103  1.496572 S    
C45   C49   1.488005 S    
O51   C7    1.283384 A    
C25   C29   1.389010 A    
C44   C48   1.376170 A    
O8    C4    1.293325 A    
C114  N26   1.430663 S    
N67   H58   1.046708 S    
N55   O121  1.302518 A    
C50   N42   1.471981 S    
Zn7   O23   1.954300 S    
C105  C118  1.498672 S    
C39   C43   1.427745 A    
C56   N56   1.466956 S    
C80   C84   1.489877 S    
N46   O103  1.300639 A    
C108  C119  1.494955 S    
N11   O58   1.303041 A    
N24   O83   1.300903 A    
O52   C8    1.280668 A    
Zn1   O1    1.972371 S    
O40   C12   1.287767 A    
Zn13  O1    1.953100 S    
O29   C17   1.278678 A    
Zn14  O6    1.957362 S    
Zn3   O11   1.949525 S    
C18   C43   1.459213 S    
Zn15  O27   1.963963 S    
N35   O97   1.310376 A    
C57   C77   1.353150 A    
C57   C85   1.493665 S    
C8    C64   1.453563 S    
C105  C109  1.391913 A    
C28   C32   1.387870 A    
C11   C111  1.458811 S    
O9    C5    1.289873 A    
C12   C112  1.462406 S    
O41   C13   1.286244 A    
C55   N55   1.470510 S    
O13   C9    1.302137 A    
N12   O59   1.301702 A    
N31   H25   1.044289 S    
O18   C14   1.278428 A    
C23   C31   1.464802 S    
O6    C2    1.294493 A    
C71   N63   1.436765 S    
Zn9   O29   1.964886 S    
N64   H51   1.045447 S    
Zn11  O31   1.964886 S    
Zn12  O32   1.964204 S    
Zn13  O25   1.963963 S    
N63   H49   1.044571 S    
Zn15  O3    1.953100 S    
N57   O126  1.303109 A    
Zn11  O3    1.956618 S    
N4    H12   1.044235 S    
C92   C96   1.383753 A    
N50   O112  1.302101 A    
N61   H46   1.049023 S    
Zn5   O1    1.977233 S    
C26   C30   1.398626 A    
C27   C55   1.497318 S    
N42   H40   1.043831 S    
C110  C114  1.423353 A    
C53   N53   1.469180 S    
C37   C41   1.422568 A    
O35   C23   1.275635 A    
C94   C98   1.410130 A    
C118  N34   1.468861 S    
N6    H15   1.046437 S    
N54   O120  1.300839 A    
N15   O65   1.303368 A    
O32   C20   1.274747 A    
N37   H30   1.045318 S    
N44   H43   1.047173 S    
C115  N27   1.430810 S    
Zn9   O17   1.947976 S    
C81   N65   1.463663 S    
N36   O100  1.301364 A    
N49   O110  1.299864 A    
C33   N1    1.438325 S    
N40   H36   1.048856 S    
N19   O74   1.302482 A    
C58   C78   1.353382 A    
C4    C73   1.462143 S    
Zn14  O42   1.947930 S    
C5    C61   1.453130 S    
N39   H33   1.045903 S    
O7    C3    1.298821 A    
N2    H8    1.045011 S    
Zn2   O38   1.949701 S    
C59   C87   1.500763 S    
C99   C100  1.409319 A    
Zn3   O35   1.954244 S    
C60   C80   1.354465 A    
C88   N16   1.464438 S    
N20   O75   1.301023 A    
C101  C102  1.549942 S    
C40   C44   1.422124 A    
O37   C9    1.289244 A    
N47   O105  1.301608 A    
C53   N49   1.459331 S    
O39   C11   1.286523 A    
C90   C101  1.503882 S    
C91   C92   1.355610 A    
N59   O130  1.305235 A    
C25   C45   1.354918 A    
O47   C3    1.277746 A    
N68   H60   1.045004 S    
O17   C13   1.279710 A    
C70   C74   1.429752 A    
O36   C24   1.283000 A    
C81   N5    1.464194 S    
O12   C8    1.291206 A    
C6    C62   1.452070 S    
C89   C93   1.398404 A    
C36   C40   1.426571 A    
N65   H53   1.043721 S    
C15   C95   1.454239 S    
N16   O67   1.302722 A    
O19   C15   1.278693 A    
C86   N14   1.466945 S    
C13   C93   1.462346 S    
C72   C76   1.427541 A    
N30   H24   1.045455 S    
N60   O132  1.301202 A    
C107  C108  1.356340 A    
C63   C67   1.421150 A    
C82   N66   1.458126 S    
Zn6   O46   1.949318 S    
C115  C116  1.414687 A    
N13   O62   1.300756 A    
N6    H16   1.046097 S    
C113  C114  1.411991 A    
C116  N28   1.429871 S    
N14   O63   1.303190 A    
N58   O128  1.301681 A    
C56   N52   1.456301 S    
C117  C118  1.557409 S    
N43   H41   1.044641 S    
C100  H4    1.082845 S    
C88   N12   1.471292 S    
N26   O87   1.299470 A    
N66   H56   1.044606 S    
C105  C106  1.370951 A    
N40   H35   1.048987 S    
N3    H10   1.043227 S    
C39   N39   1.443109 S    
C77   C81   1.500296 S    
O38   C10   1.289564 A    
N51   O113  1.300227 A    
C97   C98   1.405271 A    
N31   H26   1.046208 S    
Zn14  O2    1.956620 S    
N59   O129  1.303859 A    
C76   C80   1.380954 A    
N10   O56   1.302092 A    
C26   C46   1.357943 A    
C51   N47   1.463618 S    
N67   H57   1.043674 S    
N5    H13   1.046637 S    
C75   C79   1.391185 A    
Zn8   O4    1.972519 S    
C83   N7    1.467882 S    
Zn4   O36   1.954305 S    
O21   C17   1.293093 A    
N34   O95   1.302745 A    
C67   N59   1.430987 S    
C111  C115  1.424887 A    
C50   C54   1.554097 S    
N32   H27   1.043728 S    
N48   O108  1.303610 A    
N63   H50   1.047870 S    
O49   C5    1.280181 A    
C49   C53   1.553499 S    
Zn1   O37   1.952091 S    
N33   O94   1.300182 A    
C107  C120  1.495815 S    
N7    H17   1.045860 S    
N18   O72   1.302556 A    
N1    H6    1.045318 S    
Zn10  O30   1.964204 S    
Zn12  O20   1.949745 S    
C69   N61   1.437074 S    
N25   O85   1.300062 A    
N28   O92   1.302730 A    
C16   C96   1.448483 S    
C41   C45   1.376751 A    
Zn14  O26   1.964644 S    
C50   N46   1.463354 S    
Zn15  O7    1.959489 S    
N53   O118  1.301748 A    
C65   N57   1.429444 S    
Zn1   O9    1.949525 S    
N15   O66   1.303255 A    
Zn3   O39   1.952091 S    
C60   C64   1.383527 A    
Zn4   O12   1.947501 S    
Zn11  O51   1.957209 S    
C107  C111  1.383148 A    
C33   C37   1.427145 A    
Zn6   O2    1.972519 S    
C72   N64   1.434929 S    
C28   C56   1.504633 S    
Zn8   O16   1.951841 S    
N46   O104  1.303218 A    
C27   C47   1.356643 A    
N21   O78   1.300987 A    
C109  C113  1.423350 A    
N8    H19   1.047019 S    
N24   O84   1.302413 A    
C117  N29   1.464804 S    
O27   C23   1.296552 A    
C112  C116  1.425102 A    
C21   C29   1.469238 S    
N17   O70   1.301831 A    
C36   N4    1.430361 S    
C95   C99   1.414090 A    
C87   N15   1.474183 S    
N22   O79   1.302615 A    
C49   N45   1.460955 S    
Zn10  O18   1.949745 S    
C35   N3    1.442990 S    
N47   O106  1.301269 A    
C46   C50   1.489876 S    
C3    C74   1.462808 S    
Zn9   O1    1.956618 S    
N38   H31   1.045848 S    
N7    H18   1.044545 S    
N12   O60   1.302366 A    
N29   H22   1.045411 S    
C91   C95   1.390641 A    
N23   O81   1.300797 A    
C58   C86   1.497952 S    
N62   H47   1.053535 S    
C24   C32   1.467361 S    
C38   C42   1.418122 A    
O45   C1    1.276662 A    
N27   O90   1.303544 A    
N64   H52   1.044890 S    
O33   C21   1.278471 A    
Zn2   O2    1.977085 S    
C34   N2    1.434753 S    
C66   C70   1.418998 A    
N19   O73   1.299272 A    
O15   C11   1.300355 A    
C55   N51   1.463195 S    
N9    O54   1.302516 A    
N57   O125  1.301907 A    
N39   H34   1.044052 S    
C119  N31   1.462687 S    
N61   H45   1.045197 S    
O44   C16   1.283644 A    
N52   O115  1.299355 A    
Zn1   O33   1.954244 S    
O20   C16   1.275935 A    
C119  N35   1.469074 S    
O10   C6    1.293346 A    
C51   N43   1.470085 S    
C34   C38   1.422662 A    
O48   C4    1.282440 A    
N56   O123  1.300461 A    
C54   N50   1.460579 S    
C90   C94   1.389010 A    
O14   C10   1.302221 A    
C101  N17   1.470311 S    
C7    C63   1.460381 S    
Zn16  O8    1.957362 S    
C82   C86   1.560736 S    
C59   C79   1.364750 A    
C43   C47   1.385455 A    
N5    H14   1.044807 S    
C86   N10   1.472178 S    
C22   C30   1.468172 S    
C29   C33   1.433204 A    
C52   C56   1.552897 S    
C103  N23   1.473516 S    
O30   C18   1.279079 A    
