data_mof_unit_10901.cif
_audit_creation_date              2012-12-10T17:23:11-0500
_audit_creation_method            fapswitch 2.2
_symmetry_space_group_name_H-M    P1
_symmetry_Int_Tables_number       1
_space_group_crystal_system       triclinic
_cell_length_a                    15.850542
_cell_length_b                    10.75406
_cell_length_c                    9.664863
_cell_angle_alpha                 91.235855
_cell_angle_beta                  89.758544
_cell_angle_gamma                 92.979131
_cell_volume                      1644.83304142

loop_
_atom_site_label
_atom_site_type_symbol
_atom_type_description
_atom_site_fract_x
_atom_site_fract_y
_atom_site_fract_z
_atom_type_partial_charge
C1    C     C_R   0.496649 0.262756 0.498925 0.797865
C2    C     C_3   0.083262 0.504680 0.500594 0.102337
C3    C     C_3   0.972716 0.555618 0.619489 -0.196161
C4    C     C_3   0.917038 0.503981 0.499228 0.141579
C5    C     C_3   0.031400 0.620913 0.512472 0.044078
C6    C     C_3   0.974264 0.571260 0.392240 -0.261592
C7    C     C_1   0.174984 0.502647 0.501074 0.034431
C8    C     C_1   0.825309 0.502909 0.499105 -0.034713
C9    C     C_R   0.361141 0.122413 0.643044 -0.159685
C10   C     C_R   0.298961 0.054292 0.715760 -0.131744
C11   C     C_R   0.299873 0.925119 0.718535 -0.054743
C12   C     C_R   0.340134 0.499681 0.500235 0.800681
C13   C     C_R   0.362887 0.863236 0.648436 -0.113004
C14   C     C_R   0.427426 0.930488 0.575826 0.066106
C15   C     C_R   0.426621 0.061843 0.573238 0.099310
C16   C     C_R   0.489984 0.128390 0.497054 -0.074185
C17   C     C_R   0.549997 0.066276 0.420138 -0.180334
C18   C     C_R   0.550797 0.938220 0.422663 -0.162749
C19   C     C_R   0.491531 0.870415 0.501974 -0.091044
C20   C     C_R   0.630372 0.630839 0.146867 -0.106637
C21   C     C_R   0.707012 0.657149 0.081350 -0.230922
C22   C     C_R   0.711787 0.645366 0.938835 -0.238365
C23   C     C_R   0.497109 0.736849 0.500981 0.803145
C24   C     C_R   0.636323 0.628767 0.864464 0.040512
C25   C     C_R   0.565416 0.563992 0.927679 0.141876
C26   C     C_R   0.564270 0.564140 0.076472 0.186128
C27   C     C_R   0.437656 0.439016 0.070306 0.078431
C28   C     C_R   0.437797 0.441010 0.923487 -0.103246
C29   C     C_R   0.659884 0.500341 0.499771 0.835584
C30   C     C_3   0.967801 0.386002 0.487137 -0.170926
C31   C     C_3   0.026503 0.453997 0.382146 0.018957
C32   C     C_1   0.250492 0.501044 0.500863 -0.132798
C33   C     C_1   0.749672 0.501702 0.499257 -0.139941
C34   C     C_3   0.025278 0.437844 0.607051 -0.197588
Cu1   Cu    Cu3+1 0.499990 0.499990 0.640660 0.964372
Cu2   Cu    Cu3+1 0.500010 0.500010 0.359340 0.990426
H1    H     H_    0.250883 0.872462 0.773726 0.156951
H2    H     H_    0.359396 0.762708 0.650167 0.151526
H3    H     H_    0.599084 0.891726 0.364530 0.150164
H4    H     H_    0.624787 0.665451 0.250744 0.188258
H5    H     H_    0.760375 0.697346 0.139413 0.163550
H6    H     H_    0.768793 0.682732 0.888997 0.169087
H7    H     H_    0.387444 0.391746 0.866024 0.127345
H8    H     H_    0.940398 0.289180 0.476144 0.163404
H9    H     H_    0.952509 0.625721 0.304064 0.150662
H10   H     H_    0.949390 0.598074 0.717199 0.144295
H11   H     H_    0.047123 0.383393 0.695129 0.155485
H12   H     H_    0.597937 0.117532 0.360909 0.154538
H13   H     H_    0.356188 0.222198 0.640107 0.137868
H14   H     H_    0.249251 0.101861 0.768749 0.139556
N1    N     N_R   0.500800 0.501210 0.147910 -0.208523
N2    N     N_R   0.500830 0.501290 0.852040 -0.198170
O1    O     O_R   0.499990 0.319640 0.618810 -0.590340
O2    O     O_R   0.500000 0.319660 0.381240 -0.517080
O3    O     O_R   0.379070 0.499980 0.618770 -0.604299
O4    O     O_R   0.379080 0.500000 0.381190 -0.551046
O5    O     O_R   0.500000 0.680340 0.618760 -0.570624
O6    O     O_R   0.500010 0.680360 0.381190 -0.598606
O7    O     O_R   0.620920 0.500000 0.618810 -0.574753
O8    O     O_R   0.620930 0.500020 0.381230 -0.603591
C35   C     C_2   0.057860 0.399050 0.249115 0.840331
O9    O     O_2   0.036708 0.291724 0.215746 -0.594392
O10   O     O_R   0.111365 0.471247 0.164050 -0.760909
H15   H     H_    0.128610 0.424264 0.077250 0.323632
C36   C     C_2   0.365591 0.368949 0.133327 0.432794
H16   H     H_    0.301865 0.386951 0.101457 0.039000
O11   O     O_2   0.376096 0.284269 0.212067 -0.513170
C37   C     C_2   0.625120 0.738936 0.780556 0.896761
O12   O     O_2   0.671744 0.760958 0.681850 -0.637634
O13   O     O_R   0.566734 0.825118 0.823679 -0.753421
H17   H     H_    0.569706 0.902879 0.766110 0.331873
C38   C     C_2   0.064544 0.753465 0.527047 0.365804
H18   H     H_    0.020610 0.827238 0.536119 0.070334
O14   O     O_2   0.140402 0.779266 0.528686 -0.542103

loop_
_geom_bond_atom_site_label_1
_geom_bond_atom_site_label_2
_ccdc_geom_bond_type
C23   O6    A    
C6    H9    S    
Cu1   O1    S    
C11   C13   A    
C31   C35   S    
C2    C7    S    
C17   H12   S    
C4    C8    S    
C27   C36   S    
C5    C6    S    
C5    C38   S    
Cu2   O6    S    
C30   C31   S    
C20   H4    S    
C15   C16   A    
C29   C33   S    
Cu1   O7    S    
C18   C19   A    
C35   O10   S    
C1    O1    A    
C29   O7    A    
C37   O12   D    
C36   O11   D    
O13   H17   S    
C9    C10   A    
C2    C34   S    
C6    C31   S    
C21   C22   A    
C12   C32   S    
C30   H8    S    
C27   N1    A    
C30   C34   S    
Cu1   O3    S    
C9    H13   S    
C24   C25   A    
C38   O14   D    
C16   C17   A    
C3    C34   S    
Cu2   O8    S    
C25   C26   A    
C2    C31   S    
Cu1   Cu2   S    
C19   C23   S    
C18   H3    S    
Cu2   O4    S    
C29   O8    A    
C17   C18   A    
C1    C16   S    
C13   H2    S    
C12   O4    A    
Cu2   N1    S    
C1    O2    A    
C21   H5    S    
C4    C6    S    
C22   C24   A    
C2    C5    S    
C3    C4    S    
C10   H14   S    
Cu1   N2    S    
C11   H1    S    
C23   O5    A    
C7    C32   T    
C3    H10   S    
C14   C19   A    
C38   H18   S    
C3    C5    S    
C28   H7    S    
Cu1   O5    S    
C9    C15   A    
C25   N2    A    
C26   N1    A    
C28   N2    A    
C22   H6    S    
C20   C26   A    
C8    C33   T    
C35   O9    D    
C12   O3    A    
Cu2   O2    S    
C10   C11   A    
C24   C37   S    
O10   H15   S    
C20   C21   A    
C37   O13   S    
C36   H16   S    
C27   C28   A    
C14   C15   A    
C34   H11   S    
C13   C14   A    
C4    C30   S    
