data_mof_unit_17696.cif
_audit_creation_date              2013-03-05T15:48:52-0500
_audit_creation_method            fapswitch 2.2
_symmetry_space_group_name_H-M    P1
_symmetry_Int_Tables_number       1
_space_group_crystal_system       triclinic
_cell_length_a                    18.35432
_cell_length_b                    18.354094
_cell_length_c                    51.39556
_cell_angle_alpha                 90.051596
_cell_angle_beta                  90.009128
_cell_angle_gamma                 119.968945
_cell_volume                      14999.0247075

loop_
_atom_site_label
_atom_site_type_symbol
_atom_site_description
_atom_site_fract_x
_atom_site_fract_y
_atom_site_fract_z
_atom_type_partial_charge
O1    O     O_R   0.475290 0.813700 0.278840 -0.516524
O2    O     O_R   0.475290 0.813700 0.221160 -0.510927
O3    O     O_R   0.448450 0.657720 0.276690 -0.495512
O4    O     O_R   0.448450 0.657720 0.223310 -0.493982
C1    C     C_R   0.408660 0.584501 0.287688 0.546542
C2    C     C_R   0.408597 0.584211 0.212381 0.546677
O5    O     O_R   0.338410 0.524710 0.278840 -0.513556
O6    O     O_R   0.338410 0.524710 0.221160 -0.514749
O7    O     O_R   0.209270 0.551550 0.276690 -0.496123
O8    O     O_R   0.209270 0.551550 0.223310 -0.495966
C3    C     C_R   0.175482 0.591123 0.287596 0.547194
C4    C     C_R   0.176386 0.591596 0.212177 0.543991
O9    O     O_R   0.186300 0.661590 0.278840 -0.512736
O10   O     O_R   0.186300 0.661590 0.221160 -0.513062
O11   O     O_R   0.342280 0.790730 0.276690 -0.494836
O12   O     O_R   0.342280 0.790730 0.223310 -0.494479
C5    C     C_R   0.415643 0.824422 0.287652 0.544770
C6    C     C_R   0.415745 0.824681 0.212502 0.543649
Cr1   Cr    Cr6+3 0.456550 0.732290 0.250000 1.027370
Cr2   Cr    Cr6+3 0.275740 0.543450 0.250000 1.024031
Cr3   Cr    Cr6+3 0.267710 0.724260 0.250000 1.029654
O13   O     O_3   0.333333 0.666667 0.250000 -0.232118
C7    C     C_R   0.971281 0.466670 0.399854 0.425239
C8    C     C_R   0.135131 0.511702 0.090054 0.430295
O14   O     O_2   0.913670 0.446246 0.384375 -0.486124
O15   O     O_2   0.202366 0.525097 0.099086 -0.481256
N1    N     N_R   0.052582 0.499382 0.390900 -0.392682
N2    N     N_R   0.072802 0.506295 0.106433 -0.389433
C9    C     C_R   0.118617 0.522227 0.407996 0.422504
C10   C     C_R   0.996380 0.490783 0.096561 0.420641
C11   C     C_R   0.098897 0.466672 0.349852 -0.052629
C12   C     C_R   0.091114 0.592114 0.145367 -0.058044
C13   C     C_R   0.128597 0.488886 0.324465 -0.135122
C14   C     C_R   0.114230 0.611933 0.171402 -0.144298
C15   C     C_R   0.096952 0.602310 0.325776 -0.137878
C16   C     C_R   0.130898 0.489392 0.175133 -0.138109
C17   C     C_R   0.067025 0.579746 0.351153 -0.057674
C18   C     C_R   0.107556 0.469596 0.149088 -0.057329
C19   C     C_R   0.070067 0.513363 0.363521 0.241028
C20   C     C_R   0.089392 0.521909 0.133903 0.240005
C21   C     C_R   0.021564 0.481064 0.444461 -0.033072
C22   C     C_R   0.045859 0.491288 0.052540 -0.033568
C23   C     C_R   0.954609 0.456691 0.426755 0.020872
C24   C     C_R   0.122209 0.503618 0.062935 0.031441
C25   C     C_R   0.872780 0.424116 0.436300 -0.084195
C26   C     C_R   0.184732 0.509648 0.046012 -0.073655
C27   C     C_R   0.104044 0.513570 0.434947 0.030660
C28   C     C_R   0.982176 0.483830 0.069549 0.030674
C29   C     C_R   0.130360 0.558615 0.312448 0.010951
C30   C     C_R   0.136463 0.561967 0.186405 0.009556
H1    H     H_    0.097412 0.656250 0.317076 0.138211
H2    H     H_    0.147845 0.449690 0.186103 0.134743
H3    H     H_    0.045307 0.616456 0.361666 0.136729
H4    H     H_    0.105879 0.414882 0.140501 0.135237
H5    H     H_    0.820343 0.405983 0.423157 0.215972
H6    H     H_    0.244286 0.519600 0.053452 0.180809
C31   C     C_R   0.864567 0.425904 0.686650 -0.015853
C32   C     C_R   0.872901 0.430610 0.812010 -0.017850
C33   C     C_R   0.907282 0.424488 0.508349 0.004568
C34   C     C_R   0.081582 0.484365 0.980634 0.007738
C35   C     C_R   0.059509 0.501562 0.516498 -0.014543
C36   C     C_R   0.949435 0.484775 0.987696 -0.016845
C37   C     C_R   0.975817 0.460046 0.526009 0.023793
C38   C     C_R   0.009062 0.483171 0.970513 0.023205
C39   C     C_R   0.825512 0.374911 0.518378 -0.153248
C40   C     C_R   0.137706 0.479548 0.962943 -0.137124
C41   C     C_R   0.809769 0.364132 0.545082 0.045691
C42   C     C_R   0.125463 0.476202 0.936024 0.066373
C43   C     C_R   0.876987 0.408381 0.562904 0.020211
C44   C     C_R   0.052429 0.473801 0.925674 0.021678
C45   C     C_R   0.960614 0.454203 0.553315 -0.079038
C46   C     C_R   0.995645 0.480139 0.943081 -0.078805
C47   C     C_R   0.029141 0.494291 0.570959 0.017268
C48   C     C_R   0.925005 0.483165 0.933167 0.019748
C49   C     C_R   0.012537 0.483929 0.597949 0.478969
C50   C     C_R   0.907603 0.470973 0.906304 0.466169
N3    N     N_R   0.931015 0.443780 0.606884 -0.379443
N4    N     N_R   0.962245 0.463722 0.889596 -0.385702
C51   C     C_R   0.863808 0.409965 0.589950 0.472197
C52   C     C_R   0.032511 0.463066 0.898707 0.471639
C53   C     C_R   0.885284 0.360796 0.647857 0.090419
C54   C     C_R   0.953486 0.525797 0.847559 0.097260
C55   C     C_R   0.860283 0.355964 0.673937 -0.146418
C56   C     C_R   0.917410 0.511950 0.822653 -0.123950
C57   C     C_R   0.898491 0.502809 0.673406 -0.121772
C58   C     C_R   0.868663 0.362980 0.826009 -0.138955
C59   C     C_R   0.923660 0.508604 0.647570 -0.060066
C60   C     C_R   0.903572 0.375639 0.850862 -0.075009
C61   C     C_R   0.915345 0.437891 0.634462 0.212935
C62   C     C_R   0.943845 0.455985 0.862107 0.209762
O16   O     O_2   0.792880 0.382988 0.598559 -0.433966
O17   O     O_2   0.076280 0.451427 0.883300 -0.450242
C63   C     C_R   0.922544 0.436798 0.481128 0.017959
C64   C     C_R   0.096356 0.491560 0.008067 0.024643
C65   C     C_R   0.006140 0.473315 0.471727 0.042900
C66   C     C_R   0.033376 0.487239 0.025102 0.042667
C67   C     C_R   0.074553 0.502465 0.489350 0.027218
C68   C     C_R   0.958283 0.480016 0.014964 0.024676
C69   C     C_R   0.856947 0.414583 0.462897 -0.131541
C70   C     C_R   0.172282 0.503734 0.019212 -0.121952
H7    H     H_    0.834662 0.296496 0.684100 0.165716
H8    H     H_    0.922270 0.564601 0.811706 0.185232
H9    H     H_    0.772826 0.338595 0.505624 0.133618
H10   H     H_    0.192887 0.478481 0.969514 0.125956
H11   H     H_    0.792666 0.392038 0.468642 0.134745
H12   H     H_    0.224875 0.511460 0.007808 0.115254
O18   O     O_2   0.190257 0.551231 0.399678 -0.477119
O19   O     O_2   0.940938 0.483435 0.111360 -0.509917
C71   C     C_R   0.170269 0.536816 0.452518 -0.105197
C72   C     C_R   0.905711 0.469828 0.059240 -0.104917
H13   H     H_    0.153906 0.453937 0.314769 0.136733
H14   H     H_    0.118406 0.668521 0.179385 0.137350
H15   H     H_    0.101637 0.415415 0.359324 0.133776
H16   H     H_    0.077422 0.633134 0.133809 0.140713
H17   H     H_    0.233844 0.559803 0.445699 0.164780
H18   H     H_    0.854680 0.461232 0.071841 0.169490
C73   C     C_R   0.125896 0.543541 0.534362 -0.119619
C74   C     C_R   0.884584 0.495408 0.977189 -0.122982
C75   C     C_R   0.111922 0.541896 0.561029 0.221024
C76   C     C_R   0.873179 0.497015 0.950496 0.213320
O20   O     O_2   0.070166 0.509091 0.613622 -0.413760
O21   O     O_2   0.842461 0.464232 0.897667 -0.406345
C77   C     C_R   0.156011 0.531297 0.479153 -0.138966
C78   C     C_R   0.893783 0.467628 0.032526 -0.139344
H19   H     H_    0.189893 0.583079 0.527990 0.136241
H20   H     H_    0.844675 0.508345 0.989448 0.149227
H21   H     H_    0.902334 0.557690 0.682635 0.166315
H22   H     H_    0.834541 0.299547 0.818358 0.152927
H23   H     H_    0.946450 0.567520 0.637286 0.162679
H24   H     H_    0.895204 0.322005 0.862041 0.153055
H25   H     H_    0.210057 0.548137 0.491308 0.108388
H26   H     H_    0.832274 0.454099 0.026133 0.116568
C79   C     C_R   0.447680 0.008844 0.401759 0.426827
C80   C     C_R   0.438497 0.015601 0.101237 0.423782
O22   O     O_2   0.444797 0.059001 0.386757 -0.489488
O23   O     O_2   0.392409 0.030294 0.114700 -0.515010
N5    N     N_R   0.448553 0.939091 0.392118 -0.391336
N6    N     N_R   0.478781 0.976175 0.112012 -0.385711
C81   C     C_R   0.452012 0.881717 0.408698 0.424427
C82   C     C_R   0.533221 0.961622 0.097210 0.447787
C83   C     C_R   0.513692 0.928566 0.351580 -0.054178
C84   C     C_R   0.527380 0.970869 0.156446 -0.057693
C85   C     C_R   0.505860 0.900978 0.325900 -0.136076
C86   C     C_R   0.512093 0.933436 0.180960 -0.136959
C87   C     C_R   0.360799 0.869302 0.325361 -0.138071
C88   C     C_R   0.363419 0.851418 0.170855 -0.139320
C89   C     C_R   0.368873 0.897052 0.351078 -0.055187
C90   C     C_R   0.379045 0.887633 0.146126 -0.045501
C91   C     C_R   0.444593 0.924466 0.364510 0.243916
C92   C     C_R   0.461385 0.946426 0.138549 0.237282
C93   C     C_R   0.454178 0.964567 0.446007 -0.031631
C94   C     C_R   0.505320 0.024138 0.059520 -0.029008
C95   C     C_R   0.450582 0.022560 0.428820 0.025784
C96   C     C_R   0.450223 0.038879 0.074793 0.033935
C97   C     C_R   0.450993 0.093423 0.438989 -0.093152
C98   C     C_R   0.407966 0.076437 0.063329 -0.104405
C99   C     C_R   0.455179 0.893851 0.435770 0.031159
C100  C     C_R   0.548331 0.986755 0.071004 0.044522
C101  C     C_R   0.428489 0.868468 0.312784 0.011270
C102  C     C_R   0.430213 0.872342 0.188189 0.011307
H27   H     H_    0.300333 0.844492 0.315846 0.135732
H28   H     H_    0.299844 0.803798 0.175881 0.132628
H29   H     H_    0.314995 0.893180 0.360990 0.133885
H30   H     H_    0.327510 0.867443 0.132488 0.151308
H31   H     H_    0.450113 0.140009 0.426252 0.193514
H32   H     H_    0.366829 0.090500 0.074725 0.168676
C103  C     C_R   0.560443 0.132349 0.687158 0.004527
C104  C     C_R   0.569451 0.149768 0.814956 0.012451
C105  C     C_R   0.453612 0.058644 0.511007 -0.000229
C106  C     C_R   0.472407 0.089191 0.993278 -0.007318
C107  C     C_R   0.470719 0.935182 0.517741 0.025940
C108  C     C_R   0.588472 0.058662 0.991238 0.024564
C109  C     C_R   0.465085 0.004325 0.527959 0.033870
C110  C     C_R   0.533248 0.080688 0.978680 0.031436
C111  C     C_R   0.441185 0.121901 0.522078 -0.118864
C112  C     C_R   0.416991 0.108309 0.979838 -0.150250
C113  C     C_R   0.446943 0.137176 0.548817 0.083456
C114  C     C_R   0.420061 0.118457 0.952804 0.050295
C115  C     C_R   0.463502 0.086490 0.565976 -0.001832
C116  C     C_R   0.478858 0.106919 0.938013 0.008829
C117  C     C_R   0.471203 0.019221 0.555364 -0.051212
C118  C     C_R   0.538389 0.093005 0.951243 -0.050869
C119  C     C_R   0.485058 0.966383 0.572130 0.038555
C120  C     C_R   0.602785 0.090284 0.937024 0.038719
C121  C     C_R   0.493975 0.982270 0.598986 0.432990
C122  C     C_R   0.607405 0.101756 0.909938 0.431266
N7    N     N_R   0.489632 0.049472 0.609128 -0.393294
N8    N     N_R   0.544374 0.106781 0.896817 -0.384586
C123  C     C_R   0.471748 0.099473 0.593345 0.427128
C124  C     C_R   0.478533 0.105230 0.910431 0.450725
C125  C     C_R   0.591451 0.093721 0.645104 -0.036909
C126  C     C_R   0.540918 0.183861 0.858019 -0.049167
C127  C     C_R   0.615788 0.122961 0.670431 -0.117484
C128  C     C_R   0.549399 0.198446 0.831369 -0.134842
C129  C     C_R   0.478814 0.108039 0.678425 -0.136048
C130  C     C_R   0.577662 0.083867 0.825524 -0.139209
C131  C     C_R   0.454044 0.077425 0.653141 -0.044604
C132  C     C_R   0.565773 0.067018 0.852252 -0.050010
C133  C     C_R   0.510946 0.071966 0.636122 0.229373
C134  C     C_R   0.549315 0.118318 0.868850 0.223291
O24   O     O_2   0.464276 0.155846 0.603231 -0.462647
O25   O     O_2   0.418385 0.099378 0.898441 -0.457269
C135  C     C_R   0.454041 0.047833 0.483554 0.020208
C136  C     C_R   0.468257 0.077480 0.020770 0.022647
C137  C     C_R   0.457068 0.977382 0.473441 0.037892
C138  C     C_R   0.516648 0.045805 0.032646 0.040849
C139  C     C_R   0.463232 0.919718 0.490453 0.023467
C140  C     C_R   0.575591 0.034671 0.017835 0.019668
C141  C     C_R   0.453180 0.106167 0.465698 -0.130139
C142  C     C_R   0.416526 0.095200 0.036907 -0.140520
H33   H     H_    0.679385 0.142026 0.676463 0.171949
H34   H     H_    0.544905 0.251132 0.823790 0.142697
H35   H     H_    0.636342 0.090680 0.632126 0.174740
H36   H     H_    0.529892 0.225249 0.870354 0.193659
H37   H     H_    0.425898 0.160896 0.510266 0.127826
H38   H     H_    0.369324 0.115124 0.989929 0.141067
H39   H     H_    0.456367 0.163970 0.471622 0.126636
H40   H     H_    0.382598 0.125018 0.029850 0.114805
O26   O     O_2   0.451673 0.819700 0.399806 -0.482777
O27   O     O_2   0.567440 0.925414 0.106781 -0.488199
C143  C     C_R   0.458745 0.836310 0.452734 -0.109615
C144  C     C_R   0.604118 0.973412 0.055942 -0.073311
H41   H     H_    0.559241 0.901346 0.316793 0.136073
H42   H     H_    0.564518 0.950835 0.194054 0.135051
H43   H     H_    0.572394 0.949566 0.361850 0.132955
H44   H     H_    0.591130 0.016723 0.150999 0.141808
H45   H     H_    0.459288 0.781348 0.445358 0.164350
H46   H     H_    0.637323 0.943890 0.064177 0.181119
C145  C     C_R   0.484657 0.884102 0.535263 -0.127612
C146  C     C_R   0.654751 0.060973 0.976651 -0.136593
C147  C     C_R   0.491449 0.899356 0.561780 -0.080608
C148  C     C_R   0.662060 0.077171 0.950148 -0.099731
O28   O     O_2   0.505873 0.936374 0.613469 -0.482582
O29   O     O_2   0.667666 0.107451 0.898009 -0.517351
C149  C     C_R   0.462133 0.848439 0.479443 -0.140699
C150  C     C_R   0.617878 0.997203 0.029968 -0.130434
H47   H     H_    0.492657 0.832417 0.529192 0.114848
H48   H     H_    0.703266 0.052154 0.985334 0.117572
H49   H     H_    0.434916 0.114672 0.690896 0.136838
H50   H     H_    0.593979 0.046268 0.813200 0.138337
H51   H     H_    0.502673 0.858327 0.574233 0.184082
H52   H     H_    0.713634 0.077386 0.939816 0.172584
H53   H     H_    0.391478 0.060330 0.646530 0.155555
H54   H     H_    0.571400 0.015335 0.860101 0.161913
H55   H     H_    0.462768 0.799653 0.490862 0.106007
H56   H     H_    0.659695 0.982163 0.019583 0.120689
C151  C     C_R   0.448076 0.576986 0.409463 0.428849
C152  C     C_R   0.500423 0.485659 0.098145 0.421906
O30   O     O_2   0.407470 0.608174 0.401047 -0.456784
O31   O     O_2   0.522199 0.449133 0.113444 -0.508846
N9    N     N_R   0.485502 0.547582 0.392429 -0.403571
N10   N     N_R   0.475863 0.540634 0.107323 -0.397311
C153  C     C_R   0.530454 0.510849 0.401370 0.440008
C154  C     C_R   0.452053 0.583438 0.090404 0.447521
C155  C     C_R   0.418846 0.483938 0.350645 -0.052741
C156  C     C_R   0.515611 0.628242 0.146984 -0.050569
C157  C     C_R   0.400373 0.492692 0.324875 -0.134656
C158  C     C_R   0.500193 0.638831 0.172933 -0.135934
C159  C     C_R   0.500311 0.642285 0.326996 -0.132927
C160  C     C_R   0.395746 0.490614 0.175394 -0.136718
C161  C     C_R   0.518200 0.633419 0.352812 -0.047907
C162  C     C_R   0.411067 0.480279 0.149507 -0.053309
C163  C     C_R   0.476097 0.554598 0.364903 0.238999
C164  C     C_R   0.469295 0.549403 0.134947 0.234610
C165  C     C_R   0.502135 0.534093 0.446086 -0.065490
C166  C     C_R   0.478266 0.515907 0.053604 -0.065347
C167  C     C_R   0.456334 0.571231 0.436413 0.036780
C168  C     C_R   0.500192 0.471205 0.071309 0.036968
C169  C     C_R   0.419899 0.602398 0.453802 -0.117634
C170  C     C_R   0.521112 0.412497 0.061951 -0.105270
C171  C     C_R   0.537599 0.500933 0.428456 0.007932
C172  C     C_R   0.456725 0.575136 0.063159 0.004559
C173  C     C_R   0.439280 0.572384 0.313003 0.010838
C174  C     C_R   0.438058 0.570565 0.187118 0.008937
H57   H     H_    0.530965 0.704594 0.318506 0.137652
H58   H     H_    0.347656 0.436697 0.185799 0.138982
H59   H     H_    0.562322 0.688366 0.363765 0.137676
H60   H     H_    0.374703 0.419214 0.140392 0.140945
H61   H     H_    0.384934 0.631581 0.446823 0.152495
H62   H     H_    0.537228 0.376718 0.075167 0.167085
C175  C     C_R   0.572769 0.441211 0.687298 -0.030292
C176  C     C_R   0.570178 0.438523 0.812658 -0.036967
C177  C     C_R   0.479266 0.551682 0.518243 0.019869
C178  C     C_R   0.507635 0.432965 0.989773 0.023970
C179  C     C_R   0.577436 0.499157 0.510315 0.021172
C180  C     C_R   0.455958 0.531732 0.981412 0.024121
C181  C     C_R   0.533492 0.523447 0.527800 0.043394
C182  C     C_R   0.486090 0.478756 0.972121 0.044698
C183  C     C_R   0.432800 0.570076 0.536440 -0.133193
C184  C     C_R   0.535478 0.379538 0.979389 -0.121111
C185  C     C_R   0.441228 0.563230 0.563049 -0.084070
C186  C     C_R   0.545499 0.374487 0.952813 -0.032441
C187  C     C_R   0.496390 0.537969 0.572708 0.027508
C188  C     C_R   0.527990 0.422088 0.935371 0.065812
C189  C     C_R   0.543398 0.518804 0.555118 -0.035584
C190  C     C_R   0.495883 0.472478 0.944867 -0.029088
C191  C     C_R   0.599778 0.494297 0.564816 0.021136
C192  C     C_R   0.474348 0.517278 0.927135 0.042125
C193  C     C_R   0.606809 0.487292 0.591832 0.459167
C194  C     C_R   0.489596 0.514850 0.900418 0.454649
N11   N     N_R   0.558741 0.504282 0.608783 -0.371656
N12   N     N_R   0.525354 0.468774 0.891637 -0.371378
C195  C     C_R   0.504509 0.529998 0.599633 0.453868
C196  C     C_R   0.542444 0.420822 0.908568 0.488632
C197  C     C_R   0.633897 0.540819 0.651235 0.260404
C198  C     C_R   0.625472 0.505423 0.854742 0.245030
C199  C     C_R   0.638753 0.515637 0.676673 -0.121797
C200  C     C_R   0.638466 0.490177 0.828819 -0.130465
C201  C     C_R   0.499442 0.393847 0.672597 -0.136310
C202  C     C_R   0.487987 0.406008 0.822079 -0.149223
C203  C     C_R   0.494084 0.417794 0.647278 -0.088735
C204  C     C_R   0.474213 0.420512 0.847670 -0.098780
C205  C     C_R   0.561463 0.489589 0.636193 0.224280
C206  C     C_R   0.542085 0.467669 0.864342 0.218248
O32   O     O_2   0.463350 0.545757 0.614985 -0.469073
O33   O     O_2   0.570543 0.377379 0.900224 -0.477249
C207  C     C_R   0.472668 0.559874 0.490943 0.034167
C208  C     C_R   0.502135 0.443108 0.017044 0.032124
C209  C     C_R   0.512299 0.530297 0.473462 0.028438
C210  C     C_R   0.478376 0.501402 0.026338 0.028071
C211  C     C_R   0.562089 0.497180 0.483129 -0.022476
C212  C     C_R   0.455459 0.545758 0.008624 -0.024679
C213  C     C_R   0.427830 0.597044 0.480442 -0.147131
C214  C     C_R   0.521784 0.398413 0.035495 -0.138274
H63   H     H_    0.695190 0.553327 0.687980 0.171893
H64   H     H_    0.702030 0.515605 0.821596 0.174199
H65   H     H_    0.403713 0.577528 0.576110 0.211008
H66   H     H_    0.568541 0.333780 0.945985 0.184282
H67   H     H_    0.387235 0.587741 0.530790 0.128112
H68   H     H_    0.552015 0.341587 0.991179 0.106730
H69   H     H_    0.399613 0.624774 0.492272 0.095800
H70   H     H_    0.538209 0.351656 0.030312 0.107791
O34   O     O_2   0.565661 0.488834 0.385684 -0.425793
O35   O     O_2   0.424269 0.626518 0.099209 -0.411648
C215  C     C_R   0.579912 0.460354 0.438564 0.219289
C216  C     C_R   0.438783 0.622474 0.045188 0.202502
H71   H     H_    0.353101 0.437708 0.314629 0.138254
H72   H     H_    0.533563 0.701202 0.181384 0.144309
H73   H     H_    0.385814 0.422887 0.359915 0.139174
H74   H     H_    0.560981 0.682031 0.135897 0.153137
C217  C     C_R   0.636138 0.478355 0.520686 -0.118101
C218  C     C_R   0.428016 0.569700 0.962972 -0.125817
C219  C     C_R   0.647014 0.476103 0.547359 -0.059322
C220  C     C_R   0.438059 0.563418 0.936447 -0.072363
O36   O     O_2   0.654536 0.464599 0.600322 -0.443780
O37   O     O_2   0.472165 0.554476 0.884970 -0.495309
C221  C     C_R   0.592835 0.460450 0.465328 -0.125852
C222  C     C_R   0.437147 0.606482 0.018622 -0.140225
H75   H     H_    0.676414 0.465413 0.508626 0.121498
H76   H     H_    0.397377 0.604530 0.968334 0.115069
H77   H     H_    0.447672 0.336106 0.680179 0.157507
H78   H     H_    0.434213 0.366063 0.809999 0.158689
H79   H     H_    0.692426 0.459274 0.554288 0.196379
H80   H     H_    0.417701 0.595648 0.923202 0.173720
H81   H     H_    0.438746 0.378197 0.635740 0.154062
H82   H     H_    0.410450 0.391374 0.855005 0.154311
H83   H     H_    0.623479 0.426606 0.471805 0.139820
H84   H     H_    0.425938 0.646882 0.006116 0.147661
O38   O     O_R   0.524710 0.338410 0.721160 -0.504956
O39   O     O_R   0.524710 0.338410 0.778840 -0.510992
O40   O     O_R   0.551550 0.209270 0.723310 -0.493094
O41   O     O_R   0.551550 0.209270 0.776690 -0.493252
C223  C     C_R   0.591425 0.175877 0.712317 0.545672
C224  C     C_R   0.592113 0.177307 0.787875 0.541024
O42   O     O_R   0.661590 0.186300 0.721160 -0.507691
O43   O     O_R   0.661590 0.186300 0.778840 -0.502313
O44   O     O_R   0.790730 0.342280 0.723310 -0.497227
O45   O     O_R   0.790730 0.342280 0.776690 -0.493398
C225  C     C_R   0.823758 0.415257 0.712236 0.549452
C226  C     C_R   0.824801 0.415828 0.787577 0.544062
O46   O     O_R   0.813700 0.475290 0.721160 -0.502719
O47   O     O_R   0.813700 0.475290 0.778840 -0.505772
O48   O     O_R   0.657720 0.448450 0.723310 -0.494328
O49   O     O_R   0.657720 0.448450 0.776690 -0.490390
C227  C     C_R   0.584535 0.408758 0.712327 0.552147
C228  C     C_R   0.584214 0.408689 0.787568 0.540595
Cr4   Cr    Cr6+3 0.543450 0.275740 0.750000 1.040604
Cr5   Cr    Cr6+3 0.724260 0.267710 0.750000 1.045102
Cr6   Cr    Cr6+3 0.732290 0.456550 0.750000 1.053720
O50   O     O_3   0.666667 0.333333 0.750000 -0.242887
N13   N     N_R   0.182753 0.593105 0.577443 0.123189
O51   O     O_R   0.252286 0.591278 0.574647 -0.337973
O52   O     O_R   0.183740 0.653504 0.591007 -0.266021
N14   N     N_R   0.812002 0.518310 0.941502 0.128088
O53   O     O_R   0.835194 0.582350 0.926066 -0.197687
O54   O     O_R   0.739077 0.486098 0.952854 -0.340567
C229  C     C_2   0.435279 0.207659 0.557511 0.637053
O55   O     O_2   0.368685 0.205467 0.553206 -0.505851
O56   O     O_R   0.501328 0.277937 0.569544 -0.599944
H85   H     H_    0.484651 0.320778 0.574850 0.335593
C230  C     C_2   0.364674 0.147470 0.941268 0.625656
O57   O     O_2   0.291278 0.115593 0.948174 -0.485319
O58   O     O_R   0.397406 0.213827 0.923429 -0.664653
H86   H     H_    0.354074 0.229026 0.917409 0.349608
N15   N     N_R   0.703196 0.616667 0.640791 0.108099
O59   O     O_R   0.691261 0.658000 0.622307 -0.281262
O60   O     O_R   0.777858 0.648295 0.650991 -0.320362
N16   N     N_R   0.696815 0.556566 0.871158 0.123664
O61   O     O_R   0.689459 0.595532 0.891267 -0.251551
O62   O     O_R   0.771190 0.569662 0.864981 -0.257870
N17   N     N_R   0.607048 0.414961 0.422236 0.120682
O63   O     O_R   0.682268 0.425783 0.425038 -0.347585
O64   O     O_R   0.551836 0.350987 0.408776 -0.279148
N18   N     N_R   0.427192 0.691015 0.053209 0.118773
O65   O     O_R   0.365394 0.698135 0.043643 -0.331320
O66   O     O_R   0.487477 0.754786 0.065437 -0.275479
C231  C     C_2   0.877664 0.284524 0.634973 0.620070
O67   O     O_2   0.833278 0.215081 0.644599 -0.530095
O68   O     O_R   0.921930 0.291509 0.612098 -0.658728
H87   H     H_    0.911100 0.235059 0.605325 0.356196
C232  C     C_2   0.998093 0.612965 0.858169 0.635826
O69   O     O_2   0.044806 0.630620 0.876969 -0.464664
O70   O     O_R   0.987670 0.675768 0.846329 -0.664359
H88   H     H_    0.021281 0.732385 0.855225 0.365311
C233  C     C_2   0.723366 0.299904 0.553210 0.633561
O71   O     O_2   0.662299 0.296468 0.542432 -0.517960
O72   O     O_R   0.711933 0.240405 0.572148 -0.632953
H89   H     H_    0.650403 0.199273 0.575695 0.347614
C234  C     C_2   0.193965 0.480059 0.919687 0.619676
O73   O     O_2   0.218875 0.430344 0.923446 -0.511021
O74   O     O_R   0.232929 0.543283 0.900980 -0.627398
H90   H     H_    0.279646 0.540165 0.891438 0.356499

loop_
_geom_bond_atom_site_label_1
_geom_bond_atom_site_label_2
_geom_bond_distance
_ccdc_geom_bond_type
C121  O28   1.223227 D    
C155  C157  1.396311 A    
C79   N5    1.379915 Am   
C47   C75   1.416746 A    
C232  O70   1.398978 S    
C103  C127  1.405548 A    
C215  N17   1.435227 S    
C106  C112  1.411263 A    
C135  C137  1.419804 A    
N3    C61   1.439700 S    
C2    O6    1.285037 A    
C54   C232  1.488967 S    
C75   N13   1.436203 S    
O10   Cr3   2.007975 S    
C147  H51   1.083965 S    
C109  C117  1.428210 A    
C73   C75   1.391974 A    
C106  C110  1.417202 A    
C58   C60   1.395205 A    
C127  H33   1.082927 S    
N2    C20   1.442219 S    
C157  H71   1.082907 S    
C7    C23   1.408292 A    
C42   C234  1.484021 S    
C35   C37   1.417980 A    
Cr4   O50   1.960526 S    
C36   C38   1.418092 A    
C82   O27   1.222948 D    
O8    Cr2   1.890308 S    
N9    C163  1.438821 S    
C76   N14   1.437323 S    
C146  H48   1.078083 S    
O3    Cr1   1.891344 S    
C13   H13   1.082944 S    
C86   C102  1.404031 A    
C140  C150  1.413543 A    
C106  C136  1.425739 A    
C77   H25   1.078379 S    
C201  C203  1.392981 A    
C178  C184  1.416802 A    
Cr3   O13   1.959635 S    
C47   C49   1.412806 A    
C22   C24   1.408240 A    
C24   C26   1.399741 A    
C196  O33   1.223114 D    
N3    C51   1.377730 Am   
C168  C170  1.397244 A    
C202  C204  1.389754 A    
C58   H22   1.083017 S    
C198  C206  1.416821 A    
C150  H56   1.077841 S    
C97   C141  1.389501 A    
C111  C113  1.395756 A    
C25   C69   1.390474 A    
C45   C47   1.421066 A    
O39   Cr4   2.007688 S    
C12   C14   1.395560 A    
C52   O17   1.220424 D    
O45   Cr5   1.889767 S    
C3    C29   1.476928 S    
N5    C81   1.381106 Am   
C226  O47   1.287343 A    
C98   H32   1.083677 S    
C144  C150  1.388338 A    
O40   Cr4   1.889562 S    
C182  C190  1.424091 A    
C146  C148  1.386656 A    
C180  C212  1.422693 A    
N6    C82   1.383819 Am   
C184  H68   1.075373 S    
C88   H28   1.083433 S    
C37   C45   1.424616 A    
C54   C56   1.404498 A    
C156  C164  1.403040 A    
C15   H1    1.082861 S    
N13   O51   1.301274 A    
C22   C66   1.424559 A    
C158  H72   1.082974 S    
C1    C173  1.477632 S    
C204  H82   1.083065 S    
C145  H47   1.075855 S    
C229  O55   1.222833 D    
C72   H18   1.083679 S    
C12   C20   1.402323 A    
C16   C30   1.408224 A    
C32   C226  1.479758 S    
C169  C213  1.385632 A    
C234  O74   1.398401 S    
O2    Cr1   2.009657 S    
C103  C129  1.406002 A    
C71   C77   1.388007 A    
C159  C161  1.395854 A    
N14   O54   1.300676 A    
C162  C164  1.399686 A    
C65   C67   1.418072 A    
C48   C76   1.415692 A    
O58   H86   1.013826 S    
C143  H45   1.082025 S    
C33   C37   1.417902 A    
C34   C38   1.418946 A    
C141  H39   1.076612 S    
C186  C188  1.397144 A    
C50   O21   1.222229 D    
C179  C181  1.419725 A    
O43   Cr5   2.010034 S    
C180  C182  1.419803 A    
C3    O9    1.288126 A    
C87   H27   1.082935 S    
C97   H31   1.083822 S    
O41   Cr4   1.891118 S    
C181  C189  1.423810 A    
C218  C220  1.388074 A    
O49   Cr6   1.890699 S    
C93   C95   1.410514 A    
C74   C76   1.390291 A    
C128  H34   1.083510 S    
C81   C99   1.405474 A    
C145  C147  1.384096 A    
C79   O22   1.222565 D    
C132  C134  1.410066 A    
O68   H87   1.013808 S    
C152  N10   1.377477 Am   
C126  C128  1.389601 A    
C219  H79   1.083655 S    
C28   C72   1.398465 A    
C209  C211  1.416628 A    
O12   Cr3   1.891763 S    
N1    C9    1.381355 Am   
C56   H8    1.083148 S    
C234  O73   1.223139 D    
C176  C228  1.472668 S    
C110  C118  1.424028 A    
N17   O63   1.300850 A    
C139  C149  1.415774 A    
C189  C191  1.409552 A    
C80   C96   1.409025 A    
C68   C78   1.414118 A    
C48   C50   1.409310 A    
C9    C27   1.404856 A    
C94   C138  1.423964 A    
C185  C187  1.398449 A    
C50   N4    1.376376 Am   
C87   C101  1.407442 A    
N4    C52   1.377700 Am   
O42   Cr5   2.007781 S    
C121  N7    1.377103 Am   
C88   C102  1.404549 A    
N8    C134  1.449329 S    
C78   H26   1.078794 S    
N8    C124  1.384476 Am   
C132  H54   1.082504 S    
C208  C210  1.424218 A    
C218  H76   1.076927 S    
C82   C100  1.406136 A    
C120  C122  1.404344 A    
C197  C199  1.404626 A    
C66   C68   1.416275 A    
C15   C29   1.406701 A    
C151  C167  1.403157 A    
C233  O72   1.398943 S    
C51   O16   1.221606 D    
C16   H2    1.082923 S    
C160  C174  1.406874 A    
C126  C134  1.402562 A    
C96   C98   1.399512 A    
C63   C65   1.417860 A    
C156  H74   1.082870 S    
C99   C143  1.396631 A    
C191  C193  1.406384 A    
C32   C58   1.403438 A    
C53   C55   1.405282 A    
C108  C110  1.420212 A    
C217  C219  1.388913 A    
C191  C219  1.398990 A    
N12   C196  1.381057 Am   
O46   Cr6   2.009042 S    
C90   H30   1.082802 S    
N18   O65   1.301280 A    
C124  O25   1.221175 D    
C27   C71   1.398523 A    
C210  C212  1.418415 A    
C216  C222  1.393476 A    
C175  C199  1.407018 A    
C176  C200  1.403857 A    
C165  C167  1.411194 A    
C115  C123  1.421818 A    
C64   C70   1.417204 A    
C31   C55   1.406604 A    
C21   C27   1.408964 A    
C114  C116  1.419732 A    
C22   C28   1.410617 A    
C93   C137  1.425840 A    
C23   C25   1.399105 A    
C166  C168  1.412151 A    
C203  C205  1.401391 A    
N16   O62   1.301734 A    
C43   C51   1.413753 A    
C192  C220  1.397426 A    
C39   H9    1.078946 S    
C197  C205  1.413791 A    
C107  C139  1.423651 A    
C119  C147  1.397544 A    
C194  O37   1.222748 D    
C230  O58   1.398602 S    
C55   H7    1.083341 S    
C188  C196  1.405258 A    
O38   C227  1.289846 A    
C8    N2    1.383568 Am   
C94   C96   1.408967 A    
C229  O56   1.397143 S    
C4    C30   1.479014 S    
C151  N9    1.378130 Am   
C70   H12   1.076577 S    
O1    C5    1.287478 A    
C208  C214  1.413915 A    
C59   H23   1.083008 S    
O48   Cr6   1.890192 S    
C67   C77   1.414336 A    
C89   H29   1.082819 S    
C33   C39   1.408134 A    
C190  C192  1.410259 A    
C231  O68   1.398294 S    
C2    C174  1.475099 S    
C118  C120  1.411650 A    
C200  H64   1.083139 S    
N10   C164  1.440556 S    
C34   C40   1.409555 A    
C160  H58   1.082966 S    
C81   O26   1.223353 D    
C216  N18   1.436763 S    
C161  H59   1.082874 S    
C25   H5    1.082927 S    
C49   N3    1.375516 Am   
C26   H6    1.083822 S    
C11   C19   1.399989 A    
C105  C109  1.417243 A    
C122  O29   1.222708 D    
C9    O18   1.223266 D    
C73   H19   1.078212 S    
C11   H15   1.082886 S    
C143  C149  1.386864 A    
C129  C131  1.398005 A    
C34   C64   1.429226 A    
C107  C145  1.412942 A    
O70   H88   1.013927 S    
O47   Cr6   2.008230 S    
C201  H77   1.082889 S    
C21   C23   1.410020 A    
O45   C226  1.296760 A    
Cr6   O50   1.960581 S    
N4    C62   1.442826 S    
O40   C223  1.295437 A    
N11   C205  1.440115 S    
C193  O36   1.223088 D    
C148  H52   1.083733 S    
C93   C99   1.408679 A    
C155  H73   1.082821 S    
C89   C91   1.400597 A    
C175  C201  1.402696 A    
C83   C85   1.394648 A    
C138  C140  1.418609 A    
C158  C174  1.405836 A    
C13   C29   1.407288 A    
C14   H14   1.082873 S    
C169  H61   1.082178 S    
C211  C221  1.410379 A    
C170  H62   1.083948 S    
C207  C209  1.422976 A    
C116  C124  1.417839 A    
C72   C78   1.387648 A    
C171  C215  1.416382 A    
C152  O31   1.223103 D    
C39   C41   1.396357 A    
C198  C200  1.405829 A    
C159  H57   1.083049 S    
C187  C195  1.407362 A    
C63   C69   1.415032 A    
C215  C221  1.395660 A    
C222  H84   1.076352 S    
C53   C61   1.415109 A    
C151  O30   1.223450 D    
C185  H65   1.083519 S    
C49   O20   1.221492 D    
N12   C206  1.438406 S    
C192  C194  1.406531 A    
C221  H83   1.078155 S    
C175  C227  1.478504 S    
C87   C89   1.397024 A    
C194  N12   1.379682 Am   
C84   H44   1.082817 S    
C88   C90   1.396668 A    
N11   C195  1.379977 Am   
C94   C100  1.408591 A    
O1    Cr1   2.007586 S    
C177  C181  1.419862 A    
C40   H10   1.077005 S    
C178  C182  1.420950 A    
C46   C48   1.419677 A    
C117  C119  1.412636 A    
C179  C217  1.414874 A    
C1    O5    1.287965 A    
C212  C222  1.411540 A    
C35   C73   1.407721 A    
N6    C92   1.444854 S    
N7    C133  1.444229 S    
C172  C216  1.415476 A    
C111  H37   1.077430 S    
C125  C127  1.393187 A    
O7    Cr2   1.890392 S    
C18   H4    1.082818 S    
C144  H46   1.083699 S    
C104  C224  1.468744 S    
C105  C111  1.409675 A    
O44   C225  1.294495 A    
C95   C97   1.397790 A    
C179  C211  1.422153 A    
O4    C2    1.297461 A    
C60   C62   1.401566 A    
C197  N15   1.441017 S    
C8    C24   1.409011 A    
C122  N8    1.381340 Am   
O38   Cr4   2.009140 S    
C84   C86   1.395429 A    
N10   C154  1.381439 Am   
C129  H49   1.082967 S    
O11   C5    1.296217 A    
C131  H53   1.082725 S    
C10   O19   1.222900 D    
C35   C67   1.420919 A    
C8    O15   1.222821 D    
C90   C92   1.404185 A    
O3    C1    1.296079 A    
C41   C233  1.487470 S    
N15   O59   1.301243 A    
C85   C101  1.406968 A    
C107  C109  1.423694 A    
C54   C62   1.416840 A    
C84   C92   1.403762 A    
C16   C18   1.396725 A    
C165  C171  1.417799 A    
N2    C10   1.380758 Am   
C17   C19   1.400349 A    
C166  C172  1.416953 A    
C125  H35   1.083035 S    
C18   C20   1.401152 A    
C113  C229  1.481447 S    
C21   C65   1.422831 A    
O41   C224  1.290627 A    
C153  C171  1.418636 A    
C154  C172  1.415661 A    
C224  O43   1.288037 A    
C159  C173  1.407228 A    
O74   H90   1.013971 S    
O49   C228  1.297184 A    
C36   C74   1.406630 A    
O5    Cr2   2.008513 S    
C203  H81   1.083065 S    
C232  O69   1.222829 D    
N13   O52   1.301450 A    
O39   C228  1.284230 A    
C199  H63   1.082817 S    
C31   C57   1.402558 A    
C220  H80   1.083694 S    
C40   C42   1.397990 A    
O2    C6    1.285744 A    
C60   H24   1.082937 S    
N14   O53   1.301550 A    
O72   H89   1.013455 S    
C83   C91   1.400289 A    
C230  O57   1.223166 D    
C177  C183  1.415388 A    
O6    Cr2   2.008330 S    
C79   C95   1.409439 A    
C15   C17   1.395814 A    
C125  C133  1.402112 A    
C119  C121  1.403052 A    
C85   H41   1.082867 S    
N9    C153  1.379362 Am   
C162  H60   1.082929 S    
C153  O34   1.221161 D    
C43   C45   1.420364 A    
C36   C68   1.418568 A    
O4    Cr1   1.889524 S    
C217  H75   1.078149 S    
N1    C19   1.437865 S    
C10   C28   1.406426 A    
C231  O67   1.223452 D    
C11   C13   1.394653 A    
C7    N1    1.380098 Am   
C177  C207  1.422840 A    
C204  C206  1.398700 A    
C114  C230  1.486524 S    
C7    O14   1.222602 D    
C100  C144  1.399328 A    
C104  C128  1.404469 A    
O44   Cr5   1.891841 S    
C103  C223  1.475681 S    
C223  O42   1.286537 A    
N5    C91   1.438943 S    
C5    C101  1.478233 S    
C176  C202  1.402723 A    
C126  H36   1.082906 S    
N17   O64   1.301420 A    
C57   C59   1.392592 A    
C83   H43   1.082886 S    
C69   H11   1.078424 S    
C14   C30   1.406102 A    
N7    C123  1.382102 Am   
O9    Cr3   2.009851 S    
C108  C140  1.419691 A    
Cr1   O13   1.960604 S    
C6    C102  1.472144 S    
C120  C148  1.399351 A    
C160  C162  1.392170 A    
C161  C163  1.400404 A    
C108  C146  1.411585 A    
C80   O23   1.222617 D    
C123  O24   1.219980 D    
C195  O32   1.222718 D    
C156  C158  1.396819 A    
C41   C43   1.420550 A    
C64   C66   1.420535 A    
C32   C56   1.405443 A    
C105  C135  1.425245 A    
C180  C218  1.415962 A    
C207  C213  1.412606 A    
C233  O71   1.223196 D    
Cr2   O13   1.960501 S    
C112  H38   1.076765 S    
C44   C52   1.421560 A    
C131  C133  1.403770 A    
C193  N11   1.381752 Am   
O8    C4    1.294513 A    
O12   C6    1.294774 A    
C136  C138  1.419755 A    
O7    C3    1.294501 A    
C57   H21   1.082942 S    
C213  H69   1.076947 S    
C167  C169  1.398082 A    
C130  H50   1.082992 S    
C183  H67   1.076967 S    
C26   C70   1.391437 A    
C116  C118  1.414306 A    
C165  C209  1.425610 A    
C166  C210  1.426367 A    
C155  C163  1.399889 A    
C80   N6    1.382800 Am   
C31   C225  1.477531 S    
C152  C168  1.403912 A    
C214  H70   1.075384 S    
C74   H20   1.078668 S    
C157  C173  1.407062 A    
C142  H40   1.076867 S    
C12   H16   1.082882 S    
N18   O66   1.301477 A    
C59   C61   1.400739 A    
C4    O10   1.289188 A    
C17   H3    1.082846 S    
C187  C189  1.410076 A    
C188  C190  1.408774 A    
N15   O60   1.301605 A    
O56   H85   1.013131 S    
C154  O35   1.221619 D    
C112  C114  1.399416 A    
C183  C185  1.389127 A    
O48   C227  1.294244 A    
C113  C115  1.421059 A    
C184  C186  1.387425 A    
C202  H78   1.083129 S    
C38   C46   1.427424 A    
C86   H42   1.083159 S    
C130  C132  1.401314 A    
C71   H17   1.082121 S    
C198  N16   1.441501 S    
O11   Cr3   1.889848 S    
C42   C44   1.422156 A    
C135  C141  1.416854 A    
C104  C130  1.401441 A    
C136  C142  1.415406 A    
C98   C142  1.390749 A    
C170  C214  1.385024 A    
N16   O61   1.301179 A    
C44   C46   1.421745 A    
C33   C63   1.422780 A    
C225  O46   1.288739 A    
C53   C231  1.490133 S    
C137  C139  1.420789 A    
Cr5   O50   1.959635 S    
C149  H55   1.075964 S    
C186  H66   1.084199 S    
C115  C117  1.419517 A    
C178  C208  1.424017 A    
