data_mof_unit_22949.cif
_audit_creation_date              2012-12-10T19:46:54-0500
_audit_creation_method            fapswitch 2.2
_symmetry_space_group_name_H-M    P1
_symmetry_Int_Tables_number       1
_space_group_crystal_system       triclinic
_cell_length_a                    10.877555
_cell_length_b                    10.881283
_cell_length_c                    13.120509
_cell_angle_alpha                 90.499161
_cell_angle_beta                  90.086161
_cell_angle_gamma                 89.976008
_cell_volume                      1552.90564503

loop_
_atom_site_label
_atom_site_type_symbol
_atom_type_description
_atom_site_fract_x
_atom_site_fract_y
_atom_site_fract_z
_atom_type_partial_charge
C1    C     C_R   0.490876 0.259767 0.499411 0.822919
C2    C     C_R   0.508713 0.740288 0.500586 0.822174
C3    C     C_R   0.872910 0.492181 0.500466 -0.096900
C4    C     C_R   0.127137 0.506798 0.499482 -0.097166
C5    C     C_R   0.939915 0.445735 0.583738 0.006626
C6    C     C_R   0.060141 0.552805 0.416026 0.004149
C7    C     C_R   0.263832 0.228763 0.220820 -0.132538
C8    C     C_R   0.736134 0.773000 0.779486 -0.128485
C9    C     C_R   0.307832 0.178668 0.311587 -0.116944
C10   C     C_R   0.691549 0.821968 0.688493 -0.112231
C11   C     C_R   0.420321 0.115083 0.312947 0.119090
C12   C     C_R   0.578969 0.885320 0.687095 0.120034
C13   C     C_R   0.486942 0.100780 0.221939 -0.156598
C14   C     C_R   0.512931 0.900566 0.778270 -0.158737
C15   C     C_R   0.442719 0.151452 0.131456 -0.146040
C16   C     C_R   0.557561 0.850763 0.868991 -0.154653
C17   C     C_R   0.331416 0.215623 0.130908 -0.110631
C18   C     C_R   0.668933 0.786751 0.869548 -0.134708
C19   C     C_R   0.478473 0.932457 0.410955 -0.254465
C20   C     C_R   0.520180 0.067596 0.589085 -0.253516
C21   C     C_R   0.509623 0.873059 0.501501 -0.090794
C22   C     C_R   0.489489 0.127010 0.498492 -0.090195
C23   C     C_R   0.259676 0.506769 0.499868 0.825952
C24   C     C_R   0.740305 0.492687 0.500127 0.827932
C25   C     C_R   0.533567 0.941136 0.591419 -0.001246
C26   C     C_R   0.465453 0.058979 0.408583 -0.000293
C27   C     C_1   0.499934 0.500074 0.173568 0.152400
C28   C     C_1   0.499975 0.499989 0.826430 0.151728
C29   C     C_1   0.499898 0.500084 0.050681 -0.107063
C30   C     C_1   0.499929 0.500044 0.949315 -0.109011
C31   C     C_R   0.220599 0.795866 0.260689 -0.165124
C32   C     C_R   0.775714 0.203563 0.737161 -0.168895
C33   C     C_R   0.171387 0.732965 0.343613 -0.164291
C34   C     C_R   0.831160 0.264054 0.655744 -0.176293
C35   C     C_R   0.118591 0.616448 0.329474 0.130357
C36   C     C_R   0.880856 0.381889 0.669823 0.127891
C37   C     C_R   0.116723 0.563107 0.231803 -0.170632
C38   C     C_R   0.875184 0.438170 0.766221 -0.174261
C39   C     C_R   0.168763 0.624661 0.149363 -0.168406
C40   C     C_R   0.816450 0.379184 0.846890 -0.171770
C41   C     C_R   0.220300 0.741975 0.163072 0.174244
C42   C     C_R   0.766133 0.261386 0.832886 0.238003
C43   C     C_R   0.933142 0.543772 0.417103 -0.248442
C44   C     C_R   0.066911 0.454855 0.582788 -0.247150
Cu1   Cu    Cu3+1 0.499990 0.499990 0.592680 0.978809
Cu2   Cu    Cu3+1 0.500010 0.500010 0.407320 0.978844
H1    H     H_    0.573134 0.050901 0.221224 0.122302
H2    H     H_    0.427030 0.950800 0.778799 0.126536
H3    H     H_    0.460302 0.879661 0.342158 0.156564
H4    H     H_    0.537856 0.120389 0.657960 0.155899
H5    H     H_    0.257854 0.887124 0.272203 0.134498
H6    H     H_    0.739660 0.111858 0.725583 0.133672
H7    H     H_    0.172266 0.775943 0.418393 0.119585
H8    H     H_    0.836040 0.218900 0.581954 0.123451
H9    H     H_    0.074501 0.474145 0.219542 0.120047
H10   H     H_    0.915242 0.528065 0.778502 0.121579
H11   H     H_    0.880878 0.581029 0.353991 0.155951
H12   H     H_    0.119115 0.417591 0.645925 0.155870
H13   H     H_    0.176951 0.277009 0.220084 0.119658
H14   H     H_    0.823297 0.725364 0.780303 0.118535
H15   H     H_    0.254213 0.188905 0.380651 0.105201
H16   H     H_    0.744938 0.811307 0.619348 0.104250
N1    N     N_1   0.500030 0.500030 0.268070 -0.131513
N2    N     N_1   0.499970 0.499970 0.731930 -0.131399
O1    O     O_R   0.499980 0.319630 0.578260 -0.585260
O2    O     O_R   0.500020 0.680370 0.421740 -0.584882
O3    O     O_R   0.500000 0.319650 0.421740 -0.567199
O4    O     O_R   0.500000 0.680350 0.578260 -0.566899
O5    O     O_R   0.319630 0.500000 0.578260 -0.588814
O6    O     O_R   0.680370 0.500000 0.421740 -0.589261
O7    O     O_R   0.319650 0.500020 0.421740 -0.566218
O8    O     O_R   0.680350 0.499980 0.578260 -0.565742
C45   C     C_3   0.272344 0.810707 0.073783 -0.434062
C46   C     C_3   0.185738 0.914948 0.042285 -0.330791
C47   C     C_3   0.231555 0.979056 0.946673 -0.864506
H17   H     H_    0.325278 0.016610 0.959197 0.248664
H18   H     H_    0.233345 0.913385 0.881406 0.252331
H19   H     H_    0.168823 0.056067 0.927633 0.242485
H20   H     H_    0.092577 0.877066 0.026716 0.215930
H21   H     H_    0.178377 0.983694 0.105146 0.226347
H22   H     H_    0.363918 0.848692 0.094840 0.191800
H23   H     H_    0.285985 0.747057 0.007934 0.199676
C48   C     C_3   0.700648 0.198141 0.919007 -0.434768
C49   C     C_3   0.775157 0.090140 0.961379 -0.335904
C50   C     C_3   0.890703 0.132998 0.017723 -0.821247
H24   H     H_    0.866244 0.198295 0.080017 0.245139
H25   H     H_    0.937705 0.052544 0.051614 0.229129
H26   H     H_    0.955222 0.178306 0.964387 0.256015
H27   H     H_    0.716379 0.038715 0.015553 0.200769
H28   H     H_    0.801374 0.025825 0.898832 0.227663
H29   H     H_    0.680016 0.264238 0.981850 0.196340
H30   H     H_    0.610722 0.163425 0.890471 0.160749
H31   H     H_    0.494335 0.140340 0.061629 0.120981
H32   H     H_    0.506313 0.862402 0.938985 0.131355
H33   H     H_    0.166711 0.581759 0.074588 0.124233
H34   H     H_    0.810951 0.425055 0.920326 0.128134
H35   H     H_    0.297131 0.254370 0.060677 0.127950
H36   H     H_    0.703655 0.748737 0.939909 0.125502

loop_
_geom_bond_atom_site_label_1
_geom_bond_atom_site_label_2
_ccdc_geom_bond_type
C27   C29   S    
C45   C46   S    
C23   O5    A    
C24   O6    A    
C39   C41   A    
C50   H24   S    
C48   H30   S    
C3    C43   A    
C9    H15   S    
C19   C21   A    
C40   H34   S    
Cu2   O2    S    
C2    O4    A    
C20   C25   A    
C5    C36   S    
C6    C35   S    
C7    C9    A    
C7    H13   S    
C19   C26   A    
C32   H6    S    
C20   H4    S    
C33   C35   A    
C44   H12   S    
C7    C17   A    
C1    O1    A    
C31   C33   A    
C40   C42   A    
C1    C22   S    
C46   H21   S    
Cu1   O8    S    
C3    C24   S    
C10   H16   S    
C49   H28   S    
C2    C21   S    
C10   C12   A    
C45   H22   S    
C50   H25   S    
C33   H7    S    
C46   C47   S    
Cu1   O5    S    
C23   O7    A    
C49   C50   S    
C4    C6    A    
C13   H1    S    
C4    C23   S    
C14   H2    S    
C4    C44   A    
C11   C26   S    
C2    O2    A    
Cu1   Cu2   S    
C8    C18   A    
C32   C34   A    
C47   H17   S    
C29   C30   T    
C47   H18   S    
C19   H3    S    
C48   C49   S    
Cu1   O4    S    
C9    C11   A    
C39   H33   S    
Cu2   O7    S    
C27   N1    T    
C28   N2    T    
C16   C18   A    
C5    C44   A    
C12   C14   A    
C34   H8    S    
C6    C43   A    
C13   C15   A    
Cu1   O1    S    
C14   C16   A    
C49   H27   S    
C20   C22   A    
C45   H23   S    
C24   O8    A    
C50   H26   S    
C15   C17   A    
C21   C25   A    
C31   C41   A    
C35   C37   A    
C42   C48   S    
C31   H5    S    
C3    C5    A    
C15   H31   S    
C48   H29   S    
Cu2   N1    S    
Cu1   N2    S    
C16   H32   S    
C12   C25   S    
C46   H20   S    
C36   C38   A    
Cu2   O3    S    
C37   C39   A    
C8    H14   S    
C38   C40   A    
C11   C13   A    
C28   C30   S    
C1    O3    A    
C34   C36   A    
C47   H19   S    
Cu2   O6    S    
C43   H11   S    
C41   C45   S    
C37   H9    S    
C38   H10   S    
C8    C10   A    
C22   C26   A    
C32   C42   A    
C18   H36   S    
C17   H35   S    
