data_mof_unit_40400.cif
_audit_creation_date              2012-12-10T18:58:15-0500
_audit_creation_method            fapswitch 2.2
_symmetry_space_group_name_H-M    P1
_symmetry_Int_Tables_number       1
_space_group_crystal_system       triclinic
_cell_length_a                    11.04435
_cell_length_b                    10.821888
_cell_length_c                    9.544144
_cell_angle_alpha                 91.153611
_cell_angle_beta                  102.485348
_cell_angle_gamma                 90.044884
_cell_volume                      1113.50520765

loop_
_atom_site_label
_atom_site_type_symbol
_atom_type_description
_atom_site_fract_x
_atom_site_fract_y
_atom_site_fract_z
_atom_type_partial_charge
C1    C     C_R   0.495189 0.262123 0.497246 0.819077
C2    C     C_R   0.395985 0.470829 0.047501 -0.093760
C3    C     C_R   0.396442 0.469239 0.899074 -0.106535
C4    C     C_R   0.262818 0.498526 0.441927 0.846594
C5    C     C_R   0.607974 0.515981 0.953708 0.264273
C6    C     C_3   0.693984 0.623912 0.970533 -0.519375
C7    C     C_3   0.690674 0.628099 0.128659 -0.501442
C8    C     C_R   0.492169 0.737673 0.499599 0.822004
C9    C     C_R   0.737178 0.498774 0.558087 0.871455
C10   C     C_2   0.127959 0.493878 0.409259 -0.361339
C11   C     C_2   0.067402 0.487319 0.515757 -0.147404
C12   C     C_R   0.475158 0.129065 0.489456 -0.208999
C13   C     C_2   0.872079 0.496240 0.591034 -0.367400
C14   C     C_2   0.932893 0.484554 0.484961 -0.151637
C15   C     C_R   0.468844 0.066832 0.613736 -0.000040
C16   C     C_3   0.317062 0.154509 0.177456 0.117251
C17   C     C_3   0.233444 0.047791 0.105079 -0.391573
C18   C     C_3   0.105211 0.093846 0.032137 -0.924556
C19   C     C_3   0.380559 0.812658 0.863907 0.060137
C20   C     C_3   0.251198 0.815733 0.763992 -0.320894
C21   C     C_3   0.159975 0.729191 0.812814 -0.929877
C22   C     C_R   0.452206 0.060040 0.358680 0.447782
C23   C     C_R   0.455448 0.930865 0.363653 -0.267220
C24   C     C_R   0.468625 0.870184 0.495456 -0.221426
C25   C     C_R   0.454925 0.940799 0.616498 0.030296
C26   C     C_3   0.519304 0.939839 0.773477 0.305127
C27   C     C_3   0.545041 0.077090 0.761992 -0.391985
C28   C     C_R   0.607645 0.517424 0.100957 0.272844
Cu1   Cu    Cu3+1 0.499990 0.499980 0.640670 0.923695
Cu2   Cu    Cu3+1 0.500010 0.500020 0.359330 0.945763
H1    H     H_    0.883374 0.474328 0.373923 0.173706
H2    H     H_    0.921965 0.504971 0.702278 0.144022
H3    H     H_    0.077919 0.495654 0.297889 0.141647
H4    H     H_    0.452392 0.879192 0.264497 0.182994
H5    H     H_    0.604750 0.883533 0.799752 0.073106
H6    H     H_    0.501869 0.138646 0.832058 0.231333
H7    H     H_    0.318329 0.225869 0.096023 0.164848
H8    H     H_    0.277370 0.199362 0.263730 0.110447
H9    H     H_    0.276607 0.001897 0.023375 0.268937
H10   H     H_    0.222696 0.978703 0.186090 0.208009
H11   H     H_    0.059435 0.139419 0.112166 0.258011
H12   H     H_    0.644028 0.097787 0.763728 0.143263
H13   H     H_    0.047021 0.014414 0.981518 0.262059
H14   H     H_    0.112703 0.160553 0.947384 0.253281
H15   H     H_    0.371198 0.792633 0.974844 0.163428
H16   H     H_    0.436811 0.736642 0.833571 0.166998
H17   H     H_    0.213322 0.911055 0.761360 0.235717
H18   H     H_    0.258290 0.788556 0.653179 0.208994
H19   H     H_    0.195995 0.633588 0.820639 0.249234
H20   H     H_    0.069787 0.729782 0.734103 0.259743
H21   H     H_    0.144465 0.760160 0.919223 0.253763
H22   H     H_    0.310877 0.449421 0.080363 0.132812
H23   H     H_    0.312288 0.444558 0.822802 0.139029
H24   H     H_    0.786280 0.598015 0.950596 0.196616
H25   H     H_    0.651825 0.705572 0.911882 0.201523
H26   H     H_    0.782103 0.608258 0.199031 0.192192
H27   H     H_    0.643287 0.711302 0.160745 0.218534
H28   H     H_    0.117067 0.485631 0.627137 0.173275
N1    N     N_R   0.500780 0.500930 0.148120 -0.183363
N2    N     N_R   0.500790 0.500890 0.852210 -0.196604
O1    O     O_R   0.500000 0.319640 0.618810 -0.577942
O2    O     O_3   0.438510 0.929334 0.869855 -0.603938
O3    O     O_R   0.500010 0.319680 0.381230 -0.546053
O4    O     O_R   0.320680 0.500000 0.575130 -0.588737
O5    O     O_R   0.320690 0.500040 0.337550 -0.601478
O6    O     O_R   0.499990 0.680320 0.618770 -0.607040
O7    O     O_R   0.500000 0.680360 0.381190 -0.579425
O8    O     O_R   0.679310 0.499960 0.662450 -0.582245
O9    O     O_R   0.679320 0.500000 0.424870 -0.577515
O10   O     O_3   0.441003 0.115256 0.227110 -0.584020

loop_
_geom_bond_atom_site_label_1
_geom_bond_atom_site_label_2
_ccdc_geom_bond_type
C23   C24   A    
Cu1   N2    S    
C24   C25   A    
C8    O6    A    
C6    C7    S    
C18   H14   S    
C27   H6    S    
Cu1   O8    S    
C28   N1    A    
C4    O4    A    
C13   H2    S    
C15   C27   S    
Cu2   O7    S    
C12   C15   A    
C14   H1    S    
C23   H4    S    
C3    N2    A    
C21   H19   S    
C2    C3    A    
C26   O2    S    
C19   H16   S    
C18   H13   S    
Cu2   N1    S    
Cu1   Cu2   S    
C7    H27   S    
C3    H23   S    
C27   H12   S    
C26   C27   S    
C20   H18   S    
C1    C12   S    
C2    H22   S    
C7    H26   S    
C6    H24   S    
C6    H25   S    
C5    C6    S    
C1    O3    A    
C21   H20   S    
C8    C24   S    
C11   H28   S    
C9    O9    A    
C17   C18   S    
C10   H3    S    
C4    O5    A    
C9    O8    A    
C11   C14   S    
Cu1   O1    S    
Cu1   O4    S    
C20   H17   S    
C15   C25   A    
C10   C11   D    
C7    C28   S    
C19   O2    S    
Cu2   O5    S    
Cu1   O6    S    
C5    C28   A    
C12   C22   A    
C26   H5    S    
C21   H21   S    
Cu2   O9    S    
C16   O10   S    
C20   C21   S    
C8    O7    A    
C17   H9    S    
C18   H11   S    
C9    C13   S    
C22   C23   A    
C16   C17   S    
C5    N2    A    
C25   C26   S    
Cu2   O3    S    
C2    N1    A    
C4    C10   S    
C22   O10   S    
C19   H15   S    
C19   C20   S    
C16   H7    S    
C16   H8    S    
C13   C14   D    
C17   H10   S    
C1    O1    A    
