data_mof_unit_63211.cif
_audit_creation_date              2013-03-05T17:01:20-0500
_audit_creation_method            fapswitch 2.2
_symmetry_space_group_name_H-M    P1
_symmetry_Int_Tables_number       1
_space_group_crystal_system       triclinic
_cell_length_a                    14.152998
_cell_length_b                    16.148149
_cell_length_c                    16.530346
_cell_angle_alpha                 85.702745
_cell_angle_beta                  90.276863
_cell_angle_gamma                 91.581341
_cell_volume                      3765.85328411

loop_
_atom_site_label
_atom_site_type_symbol
_atom_site_description
_atom_site_fract_x
_atom_site_fract_y
_atom_site_fract_z
_atom_type_partial_charge
O1    O     O_R   0.496230 0.422540 0.612660 -0.584745
O2    O     O_R   0.503770 0.577460 0.387340 -0.584734
O3    O     O_R   0.503000 0.561840 0.618900 -0.591614
O4    O     O_R   0.497000 0.438160 0.381100 -0.591581
C1    C     C_R   0.499545 0.487290 0.653624 0.967268
C2    C     C_R   0.500456 0.512710 0.346376 0.967279
O5    O     O_R   0.622900 0.430330 0.496880 -0.561236
O6    O     O_R   0.377100 0.569670 0.503120 -0.561227
O7    O     O_R   0.629670 0.569640 0.503120 -0.608496
O8    O     O_R   0.370330 0.430360 0.496880 -0.608505
C3    C     C_R   0.670891 0.499399 0.500435 0.962682
C4    C     C_R   0.329109 0.500600 0.499566 0.962693
Zn1   Zn    Zn3+2 0.495480 0.406980 0.495830 1.061153
Zn2   Zn    Zn3+2 0.504520 0.593020 0.504170 1.061148
C5    C     C_1   0.772293 0.498430 0.500608 -0.063557
C6    C     C_1   0.227707 0.501570 0.499393 -0.063594
C7    C     C_1   0.857514 0.498607 0.500501 0.061375
C8    C     C_1   0.142486 0.501392 0.499500 0.061360
C9    C     C_1   0.957377 0.499522 0.500168 0.076991
C10   C     C_1   0.042623 0.500478 0.499833 0.076990
C11   C     C_R   0.503408 0.474645 0.741747 -0.213576
C12   C     C_R   0.496594 0.525354 0.258252 -0.213579
C13   C     C_R   0.584408 0.503084 0.782115 0.250869
C14   C     C_R   0.415596 0.496913 0.217884 0.250866
C15   C     C_R   0.590744 0.490520 0.866817 -0.142370
C16   C     C_R   0.409260 0.509477 0.133182 -0.142376
C17   C     C_R   0.513064 0.453066 0.910077 0.183591
C18   C     C_R   0.486940 0.546931 0.089922 0.183592
C19   C     C_R   0.436490 0.416811 0.869832 -0.099634
C20   C     C_R   0.563513 0.583187 0.130167 -0.099630
C21   C     C_R   0.431558 0.427428 0.784525 -0.151818
C22   C     C_R   0.568444 0.572571 0.215475 -0.151808
N1    N     N_2   0.504747 0.462783 0.993592 -0.108647
N2    N     N_2   0.495257 0.537214 0.006408 -0.108647
N3    N     N_R   0.510540 0.716920 0.509720 -0.163721
N4    N     N_R   0.489460 0.283080 0.490280 -0.163734
C23   C     C_R   0.466064 0.765361 0.450464 0.319279
C24   C     C_R   0.533984 0.234650 0.549515 0.319297
C25   C     C_R   0.475151 0.853141 0.447120 0.136781
C26   C     C_R   0.524901 0.146869 0.552875 0.136776
C27   C     C_R   0.528210 0.891521 0.507793 0.140649
C28   C     C_R   0.471796 0.108477 0.492237 0.140665
C29   C     C_R   0.576425 0.839417 0.566326 -0.202174
C30   C     C_R   0.423533 0.160570 0.433726 -0.202154
C31   C     C_R   0.564907 0.752306 0.566319 -0.096483
C32   C     C_R   0.435047 0.247683 0.433718 -0.096472
N5    N     N_2   0.536318 0.980492 0.510574 -0.044022
N6    N     N_2   0.463692 0.019504 0.489464 -0.044029
H1    H     H_    0.602432 0.712238 0.609906 0.232526
H2    H     H_    0.397483 0.287744 0.390152 0.232523
N7    N     N_R   0.337315 0.460799 0.263922 0.220429
O9    O     O_R   0.326378 0.380495 0.274103 -0.315345
O10   O     O_R   0.281846 0.508058 0.301403 -0.363053
N8    N     N_R   0.662691 0.539192 0.736077 0.220420
O11   O     O_R   0.673637 0.619496 0.725896 -0.315379
O12   O     O_R   0.718159 0.491928 0.698601 -0.363042
C33   C     C_2   0.321705 0.485747 0.088884 1.007481
O13   O     O_2   0.299340 0.525920 0.026365 -0.563479
O14   O     O_R   0.264595 0.418146 0.118010 -0.708170
H3    H     H_    0.207584 0.408829 0.082104 0.372291
C34   C     C_2   0.678300 0.514249 0.911115 1.007487
O15   O     O_2   0.700664 0.474075 0.973634 -0.563478
O16   O     O_R   0.735409 0.581850 0.881990 -0.708170
H4    H     H_    0.792420 0.591166 0.917896 0.372288
C35   C     C_2   0.360014 0.372405 0.918743 1.009480
O17   O     O_2   0.277039 0.381477 0.899976 -0.560520
O18   O     O_R   0.383395 0.321017 0.987378 -0.734148
H5    H     H_    0.325721 0.294077 0.015663 0.380220
C36   C     C_2   0.639990 0.627592 0.081257 1.009482
O19   O     O_2   0.722965 0.618518 0.100024 -0.560525
O20   O     O_R   0.616611 0.678979 0.012622 -0.734140
H6    H     H_    0.674284 0.705919 0.984337 0.380220
C37   C     C_2   0.351814 0.389672 0.740060 1.025584
O21   O     O_2   0.333095 0.315336 0.751499 -0.538733
O22   O     O_R   0.298209 0.439234 0.685402 -0.816522
H7    H     H_    0.245523 0.406449 0.659567 0.345385
C38   C     C_2   0.648189 0.610326 0.259940 1.025597
O23   O     O_2   0.666910 0.684662 0.248499 -0.538697
O24   O     O_R   0.701791 0.560764 0.314600 -0.816531
H8    H     H_    0.754479 0.593549 0.340434 0.345382
N9    N     N_R   0.585513 0.273258 0.611724 0.251203
O25   O     O_R   0.672591 0.298233 0.598628 -0.312066
O26   O     O_R   0.553652 0.266465 0.685702 -0.309157
N10   N     N_R   0.414583 0.726764 0.388221 0.251192
O27   O     O_R   0.327514 0.701740 0.401283 -0.312070
O28   O     O_R   0.446481 0.733589 0.314255 -0.309140
N11   N     N_R   0.563412 0.098211 0.620929 0.256077
O29   O     O_R   0.509773 0.044209 0.662792 -0.309692
O30   O     O_R   0.648819 0.113542 0.646347 -0.269224
N12   N     N_R   0.436687 0.901814 0.379053 0.256080
O31   O     O_R   0.490347 0.955837 0.337238 -0.309681
O32   O     O_R   0.351302 0.886485 0.353584 -0.269250
C39   C     C_2   0.641762 0.873880 0.626456 1.047922
O33   O     O_2   0.653214 0.836255 0.692649 -0.542602
O34   O     O_R   0.693320 0.947549 0.606554 -0.721675
H9    H     H_    0.737422 0.963133 0.651832 0.387261
C40   C     C_2   0.358149 0.126093 0.373637 1.047905
O35   O     O_2   0.346615 0.163724 0.307458 -0.542601
O36   O     O_R   0.306643 0.052400 0.393562 -0.721730
H10   H     H_    0.262504 0.036807 0.348314 0.387248

loop_
_geom_bond_atom_site_label_1
_geom_bond_atom_site_label_2
_geom_bond_distance
_ccdc_geom_bond_type
C20   C22   1.409356 A    
N11   O29   1.301432 A    
C39   O33   1.223430 D    
C17   C19   1.405789 A    
C37   O22   1.396765 S    
C37   O21   1.223031 D    
O34   H9    1.013969 S    
O22   H7    1.013765 S    
N9    O25   1.300170 A    
C33   O13   1.223419 D    
C25   C27   1.419193 A    
C38   O23   1.223033 D    
C17   N1    1.406903 S    
O5    C3    1.294761 A    
C11   C21   1.413792 A    
C12   C22   1.413793 A    
O1    C1    1.287279 A    
C26   N11   1.437099 S    
N3    C23   1.368929 A    
C14   C16   1.402445 A    
C33   O14   1.397514 S    
C2    C12   1.456693 S    
C36   O20   1.398479 S    
O4    Zn1   1.925482 S    
C34   O16   1.397513 S    
C40   O36   1.397021 S    
C22   C38   1.485576 S    
C3    C5    1.435641 S    
N5    N6    1.254791 D    
C35   O18   1.398479 S    
C23   N10   1.428911 S    
N4    C32   1.357510 A    
C25   N12   1.437107 S    
C34   O15   1.223420 D    
C14   N7    1.432727 S    
C26   C28   1.419200 A    
C18   N2    1.406904 S    
O14   H3    1.013912 S    
C39   O34   1.397017 S    
C19   C21   1.409354 A    
C27   C29   1.418820 A    
O2    C2    1.287281 A    
C28   C30   1.418835 A    
N9    O26   1.301271 A    
C30   C32   1.411632 A    
C40   O35   1.223432 D    
C38   O24   1.396764 S    
N8    O12   1.300452 A    
O18   H5    1.013773 S    
C4    C6    1.435641 S    
N10   O27   1.300164 A    
Zn1   N4    2.009162 S    
O4    C2    1.294055 A    
Zn2   N3    2.009158 S    
C28   N6    1.442296 S    
N7    O9    1.300137 A    
N7    O10   1.300453 A    
O7    Zn2   1.821633 S    
O7    C3    1.293515 A    
C30   C40   1.482730 S    
N12   O32   1.301185 A    
O36   H10   1.013974 S    
C31   H1    1.079461 S    
O6    C4    1.294761 A    
N1    N2    1.246943 D    
C27   N5    1.442288 S    
C15   C34   1.491868 S    
C29   C31   1.411621 A    
O3    Zn2   1.925482 S    
O8    C4    1.293514 A    
C19   C35   1.489342 S    
C11   C13   1.407076 A    
C24   N9    1.428914 S    
C12   C14   1.407074 A    
O24   H8    1.013765 S    
O1    Zn1   1.966038 S    
N3    C31   1.357508 A    
C20   C36   1.489341 S    
C13   N8    1.432728 S    
C5    C7    1.206072 T    
N8    O11   1.300137 A    
O6    Zn2   1.832428 S    
N10   O28   1.301271 A    
O3    C1    1.294056 A    
O8    Zn1   1.821633 S    
C15   C17   1.411360 A    
C32   H2    1.079468 S    
C16   C18   1.411359 A    
C29   C39   1.482710 S    
C9    C10   1.206190 T    
N4    C24   1.368925 A    
O20   H6    1.013773 S    
C23   C25   1.416724 A    
C24   C26   1.416719 A    
N12   O31   1.301430 A    
C18   C20   1.405788 A    
C7    C9    1.413061 S    
C8    C10   1.413062 S    
C13   C15   1.402445 A    
C36   O19   1.223093 D    
O2    Zn2   1.966038 S    
C16   C33   1.491871 S    
C21   C37   1.485576 S    
O16   H4    1.013912 S    
O5    Zn1   1.832427 S    
C1    C11   1.456693 S    
C6    C8    1.206072 T    
C35   O17   1.223094 D    
N11   O30   1.301188 A    
