data_mof_unit_14521.cif
_audit_creation_date              2013-03-05T15:41:26-0500
_audit_creation_method            fapswitch 2.2
_symmetry_space_group_name_H-M    P1
_symmetry_Int_Tables_number       1
_space_group_crystal_system       triclinic
_cell_length_a                    11.690472
_cell_length_b                    18.477701
_cell_length_c                    9.930974
_cell_angle_alpha                 90.000112
_cell_angle_beta                  111.125735
_cell_angle_gamma                 89.998118
_cell_volume                      2001.0434535

loop_
_atom_site_label
_atom_site_type_symbol
_atom_site_description
_atom_site_fract_x
_atom_site_fract_y
_atom_site_fract_z
_atom_type_partial_charge
O1    O     O_R   0.267710 0.668200 0.902110 -0.481268
O2    O     O_R   0.732290 0.331800 0.097890 -0.472762
O3    O     O_R   0.732290 0.168200 0.097890 -0.481150
O4    O     O_R   0.267710 0.831800 0.902110 -0.472944
O5    O     O_R   0.099480 0.674460 0.038850 -0.499910
O6    O     O_R   0.900520 0.325540 0.961150 -0.516710
O7    O     O_R   0.900520 0.174460 0.961150 -0.499826
O8    O     O_R   0.099480 0.825540 0.038850 -0.516652
C1    C     C_R   0.077123 0.644692 0.141569 0.565941
C2    C     C_R   0.928807 0.353012 0.860466 0.549824
C3    C     C_R   0.922805 0.144662 0.858406 0.565902
C4    C     C_R   0.071185 0.853014 0.139530 0.549851
O9    O     O_R   0.116720 0.669210 0.267660 -0.518835
O10   O     O_R   0.883280 0.330790 0.732340 -0.520213
O11   O     O_R   0.883280 0.169210 0.732340 -0.518905
O12   O     O_R   0.116720 0.830790 0.267660 -0.520154
O13   O     O_R   0.366710 0.675440 0.427590 -0.517335
O14   O     O_R   0.633290 0.324560 0.572410 -0.520106
O15   O     O_R   0.633290 0.175440 0.572410 -0.517322
O16   O     O_R   0.366710 0.824560 0.427590 -0.520091
C5    C     C_R   0.469006 0.647119 0.443338 0.534588
C6    C     C_R   0.531348 0.353151 0.557370 0.511397
C7    C     C_R   0.531004 0.147106 0.556688 0.534525
C8    C     C_R   0.468668 0.853136 0.442663 0.511425
O17   O     O_R   0.534870 0.669390 0.371760 -0.492978
O18   O     O_R   0.465130 0.330610 0.628240 -0.519986
O19   O     O_R   0.465130 0.169390 0.628240 -0.493158
O20   O     O_R   0.534870 0.830610 0.371760 -0.519999
O21   O     O_R   0.453080 0.674480 0.075160 -0.500355
O22   O     O_R   0.546920 0.325520 0.924840 -0.500958
O23   O     O_R   0.546920 0.174480 0.924840 -0.500574
O24   O     O_R   0.453080 0.825520 0.075160 -0.501276
C9    C     C_R   0.374795 0.644012 0.962873 0.545609
C10   C     C_R   0.648810 0.362235 0.988424 0.553910
C11   C     C_R   0.625219 0.144009 0.037114 0.545631
C12   C     C_R   0.351167 0.862216 0.011636 0.554120
Cr1   Cr    Cr6+3 0.187610 0.750000 0.979860 1.046399
Cr2   Cr    Cr6+3 0.812390 0.250000 0.020140 1.046516
Cr3   Cr    Cr6+3 0.245810 0.750000 0.341640 1.012470
Cr4   Cr    Cr6+3 0.754190 0.250000 0.658360 1.012494
Cr5   Cr    Cr6+3 0.485760 0.750000 0.219910 1.054785
Cr6   Cr    Cr6+3 0.514240 0.250000 0.780090 1.054688
O25   O     O_3   0.306390 0.750000 0.180470 -0.279017
O26   O     O_3   0.693610 0.250000 0.819530 -0.279065
C13   C     C_R   0.508763 0.425197 0.490059 -0.025737
C14   C     C_R   0.492475 0.575603 0.512968 -0.037429
C15   C     C_R   0.491304 0.925152 0.510099 -0.025777
C16   C     C_R   0.507564 0.075560 0.487169 -0.037330
C17   C     C_R   0.286430 0.414739 0.428125 -0.067414
C18   C     C_R   0.714759 0.586259 0.576015 -0.069276
C19   C     C_R   0.713616 0.914677 0.571980 -0.067534
C20   C     C_R   0.285270 0.086189 0.424244 -0.069077
C21   C     C_R   0.176969 0.444090 0.428533 -0.116881
C22   C     C_R   0.824742 0.556856 0.577252 -0.107645
C23   C     C_R   0.823082 0.944024 0.571603 -0.116974
C24   C     C_R   0.175329 0.056775 0.423124 -0.107555
C25   C     C_R   0.174881 0.514777 0.474895 -0.066991
C26   C     C_R   0.827302 0.486139 0.531161 -0.068709
C27   C     C_R   0.825186 0.014721 0.525307 -0.066977
C28   C     C_R   0.172833 0.986066 0.469289 -0.068798
C29   C     C_R   0.280272 0.557438 0.512823 -0.035349
C30   C     C_R   0.721846 0.443458 0.492280 -0.021256
C31   C     C_R   0.719799 0.057391 0.487384 -0.035259
C32   C     C_R   0.278307 0.943400 0.508126 -0.021557
C33   C     C_R   0.389504 0.530828 0.499672 -0.004097
C34   C     C_R   0.612145 0.469973 0.504546 0.007189
C35   C     C_R   0.610553 0.030784 0.500496 -0.004092
C36   C     C_R   0.387951 0.969924 0.495726 0.007212
C37   C     C_R   0.394792 0.456791 0.470553 0.017922
C38   C     C_R   0.606577 0.544073 0.533243 0.015628
C39   C     C_R   0.605266 0.956742 0.529589 0.017923
C40   C     C_R   0.393478 0.044020 0.466978 0.015714
H1    H     H_    0.094696 0.411356 0.397034 0.130512
H2    H     H_    0.906954 0.589661 0.609269 0.133730
H3    H     H_    0.905347 0.911282 0.603073 0.130469
H4    H     H_    0.093099 0.089567 0.391131 0.133866
H5    H     H_    0.091259 0.536762 0.481584 0.145417
H6    H     H_    0.911134 0.464242 0.524904 0.141660
H7    H     H_    0.908817 0.036705 0.518648 0.145456
H8    H     H_    0.089032 0.964159 0.475609 0.141683
H9    H     H_    0.286619 0.358853 0.395197 0.125638
H10   H     H_    0.714015 0.642253 0.608078 0.120458
H11   H     H_    0.713413 0.858785 0.604862 0.125544
H12   H     H_    0.285960 0.142176 0.392120 0.120612
H13   H     H_    0.275674 0.610396 0.556728 0.159536
H14   H     H_    0.726888 0.390611 0.448247 0.172424
H15   H     H_    0.724413 0.110347 0.443485 0.159769
H16   H     H_    0.273330 0.890547 0.552179 0.172104
H17   H     H_    0.414809 0.091325 0.021003 0.179889
H18   H     H_    0.528725 0.946224 0.175464 0.175558
H19   H     H_    0.585133 0.591498 0.978243 0.179674
H20   H     H_    0.471557 0.446317 0.824209 0.175209
C41   C     C_2   0.359826 0.941886 0.002083 0.205614
C42   C     C_2   0.601650 0.072022 0.084655 0.186683
C43   C     C_2   0.640134 0.441914 0.998113 0.205654
C44   C     C_2   0.398404 0.572020 0.915365 0.186799
C45   C     C_2   0.458551 0.976676 0.092555 -0.110896
C46   C     C_2   0.487104 0.051934 0.065493 -0.136533
C47   C     C_2   0.541597 0.476746 0.907314 -0.110986
C48   C     C_2   0.512934 0.552010 0.934222 -0.136497
H21   H     H_    0.923862 0.054694 0.061716 0.209174
H22   H     H_    0.015686 0.932582 0.906926 0.185909
H23   H     H_    0.075195 0.554855 0.937684 0.208892
H24   H     H_    0.983591 0.432753 0.092710 0.186044
C49   C     C_2   0.001665 0.919588 0.111561 -0.077936
C50   C     C_2   0.969105 0.071808 0.877360 -0.057613
C51   C     C_2   0.998176 0.419626 0.888389 -0.078182
C52   C     C_2   0.030628 0.571889 0.122541 -0.057669
C53   C     C_2   0.988835 0.955996 0.991638 -0.114868
C54   C     C_2   0.956473 0.031531 0.981847 -0.115956
C55   C     C_2   0.010598 0.456127 0.008082 -0.115432
C56   C     C_2   0.042855 0.531667 0.017764 -0.116095
H25   H     H_    0.998111 0.048030 0.794915 0.164211
H26   H     H_    0.977950 0.944036 0.197558 0.156262
H27   H     H_    0.001907 0.548071 0.205178 0.164046
H28   H     H_    0.022073 0.444019 0.802479 0.156296
N1    N     N_R   0.701809 0.021119 0.134385 0.057843
O27   O     O_R   0.694819 0.959617 0.067946 -0.355378
O28   O     O_R   0.807271 0.041356 0.227054 -0.408142
N2    N     N_R   0.259323 0.981926 0.901440 0.061122
O29   O     O_R   0.221144 0.040721 0.943445 -0.408852
O30   O     O_R   0.194416 0.954827 0.776405 -0.379532
N3    N     N_R   0.298339 0.521046 0.865931 0.058135
O31   O     O_R   0.305600 0.459530 0.932386 -0.354890
O32   O     O_R   0.192764 0.541196 0.773384 -0.408152
N4    N     N_R   0.740399 0.481890 0.099346 0.061414
O33   O     O_R   0.778648 0.540860 0.058051 -0.408852
O34   O     O_R   0.805134 0.454580 0.224240 -0.379246

loop_
_geom_bond_atom_site_label_1
_geom_bond_atom_site_label_2
_geom_bond_distance
_ccdc_geom_bond_type
C26   C30   1.395650 A    
O4    C12   1.298435 A    
N4    O33   1.299089 A    
C24   H4    1.082594 S    
O23   Cr6   1.940034 S    
O5    Cr1   1.946310 S    
C55   C56   1.439999 S    
O19   Cr6   2.048970 S    
C45   C46   1.477178 S    
O1    C9    1.259565 A    
N3    O31   1.301700 A    
C1    C52   1.437646 S    
O7    C3    1.266381 A    
C30   H14   1.080197 S    
O18   Cr6   2.048945 S    
C18   C22   1.391776 A    
C19   C39   1.414688 A    
C32   C36   1.418499 A    
C52   H27   1.085607 S    
C23   C27   1.388019 A    
N1    O28   1.299598 A    
C50   C54   1.327740 D    
C4    C49   1.445034 S    
C42   N1    1.443154 S    
C43   C47   1.343700 D    
N3    O32   1.299592 A    
C42   C46   1.335484 D    
O21   C9    1.289333 A    
O20   Cr5   2.048968 S    
O13   Cr3   1.937659 S    
C17   H9    1.083419 S    
C20   H12   1.083470 S    
O14   Cr4   1.937657 S    
C1    O9    1.252887 A    
C22   H2    1.082593 S    
C3    O11   1.252858 A    
C12   C41   1.480980 S    
C4    O12   1.258124 A    
O3    Cr2   2.068549 S    
N4    O34   1.299668 A    
O24   Cr5   1.940032 S    
O6    Cr2   1.946309 S    
C41   N2    1.442315 S    
C7    O19   1.289168 A    
H19   C48   1.081650 S    
H18   C45   1.086573 S    
C19   C23   1.391130 A    
O1    Cr1   2.068501 S    
C23   H3    1.082553 S    
O2    C10   1.298344 A    
C17   C37   1.414704 A    
Cr5   O25   1.989585 S    
C2    C51   1.444854 S    
Cr6   O26   1.989585 S    
C16   C40   1.402119 A    
O8    C4    1.266976 A    
N2    O30   1.299703 A    
Cr2   O26   1.975635 S    
O11   Cr4   2.060671 S    
C31   C35   1.417623 A    
O9    Cr3   2.060741 S    
O22   C10   1.317444 A    
C50   H25   1.085596 S    
C13   C37   1.402661 A    
C25   H5    1.082531 S    
C49   H26   1.086719 S    
C10   C43   1.481273 S    
C14   C33   1.427067 A    
C2    O10   1.258081 A    
O17   Cr5   2.048946 S    
O16   Cr3   1.937721 S    
C30   C34   1.418500 A    
Cr3   O25   1.969896 S    
H21   C54   1.084260 S    
O13   C5    1.262382 A    
C52   C56   1.327674 D    
H23   C56   1.084304 S    
Cr1   O25   1.975635 S    
C19   H11   1.083418 S    
O15   C7    1.262458 A    
O5    C1    1.266354 A    
C20   C40   1.414361 A    
O2    Cr2   2.068500 S    
C47   C48   1.477251 S    
O3    C11   1.259492 A    
C36   C40   1.404815 A    
C3    C50   1.437736 S    
C15   C39   1.402597 A    
C29   H13   1.080476 S    
O23   C11   1.289322 A    
O8    Cr1   1.946259 S    
C27   H7    1.082531 S    
C9    C44   1.470437 S    
C41   C45   1.343552 D    
C15   C36   1.428381 A    
N2    O29   1.299091 A    
C18   H10   1.083479 S    
C5    C14   1.470678 S    
C22   C26   1.388412 A    
C11   C42   1.470355 S    
C5    O17   1.289205 A    
C28   H8    1.082545 S    
C21   C25   1.388046 A    
C7    C16   1.470739 S    
C44   N3    1.443157 S    
C31   H15   1.080461 S    
O14   C6    1.262268 A    
C8    C15   1.470210 S    
C51   C55   1.328341 D    
C21   H1    1.082553 S    
C8    O20   1.288737 A    
O6    C2    1.266944 A    
H24   C55   1.088042 S    
O24   C12   1.317328 A    
C25   C29   1.395283 A    
C27   C31   1.395296 A    
H17   C46   1.081701 S    
C28   C32   1.395635 A    
C18   C38   1.414344 A    
N1    O27   1.301762 A    
C43   N4    1.442530 S    
C34   C38   1.404823 A    
C49   C53   1.328404 D    
C33   C37   1.404223 A    
C44   C48   1.335545 D    
O7    Cr2   1.946260 S    
C32   H16   1.080227 S    
C35   C39   1.404258 A    
C16   C35   1.427135 A    
C51   H28   1.086693 S    
C14   C38   1.402003 A    
C17   C21   1.391163 A    
O15   Cr4   1.937722 S    
C26   H6    1.082553 S    
O12   Cr3   2.060670 S    
O10   Cr4   2.060740 S    
C29   C33   1.417623 A    
Cr4   O26   1.969897 S    
C6    C13   1.470220 S    
C24   C28   1.388441 A    
O4    Cr1   2.068547 S    
C6    O18   1.288734 A    
C13   C34   1.428492 A    
O21   Cr5   1.940048 S    
O22   Cr6   1.940047 S    
H22   C53   1.088023 S    
C53   C54   1.440151 S    
O16   C8    1.262281 A    
C20   C24   1.391809 A    
H20   C47   1.086573 S    
