data_mof_unit_53732.cif
_audit_creation_date              2012-10-26T17:10:31-0400
_audit_creation_method            fapswitch 2.2
_symmetry_space_group_name_H-M    P1
_symmetry_Int_Tables_number       1
_space_group_crystal_system       triclinic
_cell_length_a                    16.87866
_cell_length_b                    16.899767
_cell_length_c                    16.890154
_cell_angle_alpha                 67.384912
_cell_angle_beta                  67.410752
_cell_angle_gamma                 67.367089
_cell_volume                      3944.08524132

loop_
_atom_site_label
_atom_site_type_symbol
_atom_type_description
_atom_site_fract_x
_atom_site_fract_y
_atom_site_fract_z
_atom_type_partial_charge
C1    C     C_R   0.594129 0.017970 0.598799 -0.011614
C2    C     C_R   0.171163 0.435045 0.972256 0.578767
C3    C     C_R   0.565218 0.026878 0.828915 0.524481
C4    C     C_R   0.432553 0.979387 0.170287 0.548841
C5    C     C_R   0.431314 0.169331 0.982619 0.557392
C6    C     C_R   0.568541 0.830600 0.017627 0.540877
C7    C     C_R   0.972826 0.434859 0.171065 0.524590
C8    C     C_R   0.018427 0.568243 0.830314 0.546988
C9    C     C_R   0.171088 0.972740 0.434897 0.522585
C10   C     C_R   0.830559 0.017584 0.568529 0.542884
C11   C     C_R   0.544037 0.004158 0.552512 0.111644
C12   C     C_R   0.406578 0.964381 0.410866 -0.010099
C13   C     C_R   0.453116 0.977161 0.461507 0.103790
C14   C     C_R   0.011837 0.550354 0.541635 0.111134
C15   C     C_R   0.986654 0.458675 0.450185 0.110478
C16   C     C_R   0.548360 0.544201 0.010300 0.118227
C17   C     C_R   0.450905 0.457013 0.987219 -0.019877
C18   C     C_R   0.495430 0.077502 0.498661 -0.023444
C19   C     C_R   0.501479 0.903728 0.515613 -0.016174
C20   C     C_R   0.925134 0.555718 0.546428 -0.044749
C21   C     C_R   0.073348 0.453937 0.444777 -0.044386
C22   C     C_R   0.559261 0.541409 0.924684 -0.055622
C23   C     C_R   0.024371 0.596961 0.592290 -0.011202
C24   C     C_R   0.439856 0.459991 0.072787 -0.087228
C25   C     C_R   0.450026 0.064015 0.453405 -0.052130
C26   C     C_R   0.546718 0.917244 0.561155 -0.041242
C27   C     C_R   0.510830 0.497712 0.913201 -0.110888
C28   C     C_R   0.488501 0.503388 0.084336 -0.027054
C29   C     C_R   0.912546 0.509796 0.501033 -0.020759
C30   C     C_R   0.085935 0.499448 0.490573 -0.021070
C31   C     C_R   0.549900 0.039249 0.680930 -0.017189
C32   C     C_R   0.444571 0.974887 0.318264 -0.016448
C33   C     C_R   0.043233 0.680239 0.548915 -0.015973
C34   C     C_R   0.974221 0.407978 0.403553 -0.010332
C35   C     C_R   0.987530 0.314824 0.439802 -0.020058
C36   C     C_R   0.679646 0.549797 0.041753 -0.013836
C37   C     C_R   0.321369 0.450559 0.954000 0.003794
C38   C     C_R   0.320906 0.950902 0.452865 -0.015265
C39   C     C_R   0.687341 0.005059 0.562955 -0.021526
C40   C     C_R   0.436723 0.312991 0.993713 0.003549
C41   C     C_R   0.561957 0.687392 0.006838 -0.017148
C42   C     C_R   0.955631 0.451253 0.320076 -0.014366
C43   C     C_R   0.011307 0.560696 0.685434 -0.020919
C44   C     C_R   0.601615 0.036409 0.731900 -0.053005
C45   C     C_R   0.596804 0.594041 0.021447 -0.009147
C46   C     C_R   0.395397 0.972859 0.267035 -0.039382
C47   C     C_R   0.037863 0.731718 0.601312 -0.053939
C48   C     C_R   0.978132 0.265598 0.393348 -0.046128
C49   C     C_R   0.731538 0.601575 0.037112 -0.055821
C50   C     C_R   0.268587 0.398690 0.960778 -0.001402
C51   C     C_R   0.268670 0.960115 0.399332 -0.052447
C52   C     C_R   0.735239 0.018860 0.607707 -0.047744
C53   C     C_R   0.392004 0.264600 0.980771 -0.012511
C54   C     C_R   0.607479 0.735293 0.019408 -0.047319
C55   C     C_R   0.961719 0.398761 0.268362 -0.052337
C56   C     C_R   0.402941 0.406469 0.976345 -0.069719
C57   C     C_R   0.021410 0.606822 0.734503 -0.043963
C58   C     C_R   0.692134 0.031376 0.692678 -0.158562
C59   C     C_R   0.307659 0.967520 0.308294 -0.158683
C60   C     C_R   0.031864 0.692615 0.692026 -0.152426
C61   C     C_R   0.968057 0.308002 0.307360 -0.158406
C62   C     C_R   0.692678 0.692167 0.031446 -0.160671
C63   C     C_R   0.307031 0.307692 0.967946 -0.173831
C64   C     C_2   0.450345 0.066435 0.712550 0.255597
C65   C     C_2   0.534626 0.990193 0.276811 0.269464
C66   C     C_2   0.070403 0.712620 0.449498 0.254930
C67   C     C_R   0.027100 0.828928 0.565179 0.520294
C68   C     C_2   0.015147 0.269826 0.523873 0.263306
C69   C     C_2   0.710752 0.450350 0.070533 0.253579
C70   C     C_2   0.293728 0.549827 0.923122 0.261532
C71   C     C_2   0.287116 0.924744 0.552189 0.257291
C72   C     C_2   0.734149 0.972823 0.481617 0.262911
C73   C     C_2   0.516423 0.268314 0.028539 0.267590
C74   C     C_2   0.481228 0.734517 0.973386 0.256670
C75   C     C_2   0.927956 0.550646 0.287697 0.258309
C76   C     C_2   0.983187 0.476985 0.730626 0.261310
C77   C     C_R   0.981447 0.169724 0.431791 0.544307
C78   C     C_R   0.828846 0.565187 0.027000 0.516981
Cu1   Cu    Cu3+1 0.995180 0.995180 0.424630 1.003265
Cu2   Cu    Cu3+1 0.004820 0.004820 0.575370 1.003844
Cu3   Cu    Cu3+1 0.995180 0.424630 0.995180 0.998298
Cu4   Cu    Cu3+1 0.004820 0.575370 0.004820 1.035023
Cu5   Cu    Cu3+1 0.424630 0.995180 0.995180 1.004875
Cu6   Cu    Cu3+1 0.575370 0.004820 0.004820 1.022652
H1    H     H_    0.584370 0.860239 0.602567 0.093866
H2    H     H_    0.605020 0.573295 0.867082 0.102640
H3    H     H_    0.130936 0.414384 0.405713 0.098528
H4    H     H_    0.867552 0.594826 0.585943 0.092916
H5    H     H_    0.730204 0.034367 0.730005 0.169324
H6    H     H_    0.268184 0.971827 0.268386 0.168557
H7    H     H_    0.032436 0.730646 0.730741 0.173469
H8    H     H_    0.968060 0.269188 0.269107 0.169000
H9    H     H_    0.730474 0.730321 0.033440 0.169594
H10   H     H_    0.269088 0.269282 0.966652 0.164431
H11   H     H_    0.416372 0.119161 0.745618 0.124317
H12   H     H_    0.412935 0.121068 0.411500 0.105077
H13   H     H_    0.544956 0.047974 0.220705 0.181031
H14   H     H_    0.122364 0.746714 0.416017 0.121106
H15   H     H_    0.072424 0.211382 0.527391 0.136382
H16   H     H_    0.746948 0.417221 0.120830 0.125725
H17   H     H_    0.309450 0.588675 0.950509 0.140312
H18   H     H_    0.250924 0.874507 0.585486 0.125960
H19   H     H_    0.794155 0.917091 0.480325 0.135655
H20   H     H_    0.574772 0.293401 0.996115 0.139314
H21   H     H_    0.481332 0.793404 0.916499 0.134812
H22   H     H_    0.876383 0.583823 0.253035 0.119949
H23   H     H_    0.153058 0.494777 0.486764 0.108465
H24   H     H_    0.926057 0.473783 0.789211 0.130958
H25   H     H_    0.845427 0.513578 0.505724 0.107667
H26   H     H_    0.479253 0.505781 0.150563 0.114239
H27   H     H_    0.520245 0.495096 0.847016 0.121895
H28   H     H_    0.504415 0.836475 0.521951 0.111808
H29   H     H_    0.493268 0.144753 0.491470 0.110206
H30   H     H_    0.394123 0.428080 0.130400 0.125414
O1    O     O_R   0.124540 0.978640 0.385460 -0.513509
O2    O     O_R   0.124540 0.385460 0.978640 -0.513227
O3    O     O_R   0.021360 0.875460 0.614540 -0.512562
O4    O     O_R   0.978640 0.124540 0.385460 -0.501068
O5    O     O_R   0.013780 0.867370 0.487190 -0.514553
O6    O     O_R   0.986220 0.132630 0.512810 -0.505392
O7    O     O_R   0.867370 0.487190 0.013780 -0.518203
O8    O     O_R   0.132630 0.512810 0.986220 -0.460780
O9    O     O_R   0.487190 0.013780 0.867370 -0.515737
O10   O     O_R   0.512810 0.986220 0.132630 -0.501210
O11   O     O_R   0.512810 0.132630 0.986220 -0.473939
O12   O     O_R   0.875460 0.021360 0.614540 -0.501755
O13   O     O_R   0.487190 0.867370 0.013780 -0.503820
O14   O     O_R   0.986220 0.512810 0.132630 -0.509084
O15   O     O_R   0.013780 0.487190 0.867370 -0.509915
O16   O     O_R   0.132630 0.986220 0.512810 -0.512776
O17   O     O_R   0.867370 0.013780 0.487190 -0.503638
O18   O     O_2   0.405682 0.029294 0.704438 -0.461829
O19   O     O_2   0.597721 0.938400 0.305665 -0.468819
O20   O     O_2   0.033952 0.704089 0.404445 -0.460821
O21   O     O_2   0.973884 0.297308 0.589728 -0.462522
O22   O     O_2   0.698164 0.404651 0.037855 -0.498943
O23   O     O_R   0.978640 0.385460 0.124540 -0.514023
O24   O     O_2   0.257078 0.589003 0.863327 -0.480617
O25   O     O_2   0.296893 0.960171 0.597329 -0.459628
O26   O     O_2   0.706788 0.008716 0.415411 -0.462097
O27   O     O_2   0.515013 0.206884 0.097002 -0.510894
O28   O     O_2   0.413941 0.708978 0.009668 -0.492994
O29   O     O_2   0.963545 0.596031 0.296873 -0.457775
O30   O     O_2   0.023904 0.411060 0.703198 -0.459859
O31   O     O_R   0.021360 0.614540 0.875460 -0.490745
O32   O     O_R   0.385460 0.124540 0.978640 -0.523467
O33   O     O_R   0.614540 0.875460 0.021360 -0.505089
O34   O     O_R   0.614540 0.021360 0.875460 -0.512593
O35   O     O_R   0.385460 0.978640 0.124540 -0.505830
O36   O     O_R   0.875460 0.614540 0.021360 -0.516913

loop_
_geom_bond_atom_site_label_1
_geom_bond_atom_site_label_2
_ccdc_geom_bond_type
C16   C28   A    
C21   H3    S    
C11   C18   A    
C24   H30   S    
C6    O33   A    
Cu1   O1    S    
C46   C59   A    
C8    O31   A    
C34   C42   A    
C7    C55   S    
C77   O6    A    
C10   C52   S    
Cu2   O6    S    
Cu3   Cu4   S    
C70   H17   S    
C73   O27   D    
C9    O16   A    
C40   C73   S    
Cu3   O23   S    
C4    O35   A    
C63   H10   S    
C42   C75   S    
C29   H25   S    
C14   C30   A    
C6    O13   A    
C30   H23   S    
Cu6   O33   S    
Cu1   O4    S    
C55   C61   A    
C1    C31   A    
C23   C43   A    
C49   C78   S    
C4    O10   A    
C34   C35   A    
C78   O7    A    
C19   C26   A    
C10   O17   A    
C2    C50   S    
C47   C60   A    
C66   O20   D    
C37   C56   A    
C2    O2    A    
C73   H20   S    
C64   O18   D    
C44   C58   A    
C40   C56   A    
C9    C51   S    
C39   C72   S    
C5    O32   A    
C7    O14   A    
Cu6   O11   S    
C15   C34   S    
C61   H8    S    
Cu6   O34   S    
C39   C52   A    
C74   O28   D    
C27   H27   S    
C3    O34   A    
C76   H24   S    
C37   C70   S    
C12   C32   A    
C50   C63   A    
C13   C25   A    
C18   C25   A    
C6    C54   S    
C35   C48   A    
C18   H29   S    
C47   C67   S    
C3    O9    A    
C33   C66   S    
C15   C29   A    
C20   C29   A    
C2    O8    A    
C52   C58   A    
C3    C44   S    
C17   C24   A    
Cu2   O16   S    
C31   C44   A    
C13   C19   A    
C9    O1    A    
C14   C20   A    
C77   O4    A    
C7    O23   A    
C1    C39   A    
C57   C60   A    
C4    C46   S    
C38   C51   A    
C54   C62   A    
C11   C26   A    
C23   C33   A    
C19   H28   S    
Cu3   O2    S    
Cu3   O7    S    
C59   H6    S    
C17   C27   A    
C14   C23   S    
C42   C55   A    
Cu5   O32   S    
Cu3   O15   S    
Cu5   Cu6   S    
C72   O26   D    
Cu1   O17   S    
C48   C77   S    
C36   C45   A    
C67   O3    A    
C17   C56   S    
Cu4   O14   S    
Cu4   O36   S    
C75   O29   D    
C75   H22   S    
C76   O30   D    
C71   H18   S    
C70   O24   D    
C69   O22   D    
C22   C27   A    
C33   C47   A    
Cu1   O5    S    
C51   C59   A    
Cu4   O31   S    
C36   C69   S    
C78   O36   A    
C60   H7    S    
C5    C53   S    
C43   C76   S    
C38   C71   S    
C16   C22   A    
C49   C62   A    
C32   C46   A    
C31   C64   S    
C68   O21   D    
C24   C28   A    
C64   H11   S    
Cu5   O13   S    
C16   C45   S    
C71   O25   D    
C72   H19   S    
Cu6   O10   S    
C21   C30   A    
C28   H26   S    
C66   H14   S    
C68   H15   S    
C65   H13   S    
C41   C74   S    
C37   C50   A    
C53   C63   A    
C48   C61   A    
Cu2   O12   S    
C35   C68   S    
C26   H1    S    
C20   H4    S    
Cu2   O3    S    
C22   H2    S    
C12   C38   A    
C58   H5    S    
C41   C54   A    
C43   C57   A    
Cu1   Cu2   S    
C69   H16   S    
C15   C21   A    
Cu5   O35   S    
C12   C13   S    
C25   H12   S    
C40   C53   A    
C62   H9    S    
C5    O11   A    
C8    O15   A    
C41   C45   A    
C1    C11   S    
Cu5   O9    S    
C10   O12   A    
C67   O5    A    
Cu4   O8    S    
C8    C57   S    
C65   O19   D    
C36   C49   A    
C32   C65   S    
C74   H21   S    
