data_mof_unit_18711.cif
_audit_creation_date              2012-10-26T18:26:33-0400
_audit_creation_method            fapswitch 2.2
_symmetry_space_group_name_H-M    P1
_symmetry_Int_Tables_number       1
_space_group_crystal_system       triclinic
_cell_length_a                    15.824502
_cell_length_b                    8.675424
_cell_length_c                    7.496574
_cell_angle_alpha                 103.449938
_cell_angle_beta                  94.267728
_cell_angle_gamma                 93.019358
_cell_volume                      995.558135562

loop_
_atom_site_label
_atom_site_type_symbol
_atom_type_description
_atom_site_fract_x
_atom_site_fract_y
_atom_site_fract_z
_atom_type_partial_charge
C1    C     C_R   0.496873 0.199648 0.452970 0.518039
C2    C     C_3   0.978280 0.650388 0.567367 -0.120654
C3    C     C_1   0.250631 0.499910 0.506043 -0.029557
C4    C     C_1   0.749369 0.500089 0.493957 -0.029556
C5    C     C_3   0.034675 0.554958 0.676083 -0.105272
C6    C     C_3   0.965325 0.445042 0.323916 -0.105273
C7    C     C_3   0.083363 0.499244 0.504087 0.033323
C8    C     C_3   0.916637 0.500756 0.495912 0.033323
C9    C     C_1   0.175067 0.499782 0.506308 -0.057892
C10   C     C_1   0.824933 0.500218 0.493692 -0.057892
C11   C     C_3   0.002462 0.236080 0.811178 -0.320720
C12   C     C_R   0.503126 0.800352 0.547030 0.518040
C13   C     C_3   0.997538 0.763920 0.188822 -0.320719
C14   C     C_3   0.384992 0.242562 0.960098 0.071461
C15   C     C_3   0.319464 0.154547 0.804612 -0.290269
C16   C     C_3   0.298444 0.984139 0.818491 -0.489847
C17   C     C_3   0.615010 0.757436 0.039901 0.071458
C18   C     C_3   0.680539 0.845452 0.195382 -0.290274
C19   C     C_3   0.701562 0.015856 0.181495 -0.489856
C20   C     C_R   0.340099 0.499654 0.501981 0.530303
C21   C     C_R   0.659901 0.500346 0.498019 0.530305
C22   C     C_2   0.493387 0.031148 0.427431 -0.166242
C23   C     C_2   0.506611 0.968852 0.572570 -0.166242
C24   C     C_3   0.972333 0.407604 0.602074 0.171502
C25   C     C_3   0.027667 0.592395 0.397926 0.171502
C26   C     C_3   0.021720 0.349612 0.432632 -0.120654
Cu1   Cu    Cu3+1 0.509330 0.517380 0.684380 1.028256
Cu2   Cu    Cu3+1 0.490670 0.482620 0.315620 1.028259
H1    H     H_    0.040245 0.226562 0.381064 0.095135
H2    H     H_    0.039141 0.155628 0.712755 0.131828
H3    H     H_    0.108888 0.775059 0.358206 0.245995
H4    H     H_    0.029102 0.833975 0.102795 0.130145
H5    H     H_    0.960859 0.844372 0.287245 0.131828
H6    H     H_    0.953615 0.669879 0.096466 0.168084
H7    H     H_    0.357346 0.247264 0.092622 0.164014
H8    H     H_    0.443058 0.174873 0.954406 0.127360
H9    H     H_    0.260287 0.218546 0.810937 0.163419
H10   H     H_    0.344554 0.152187 0.669553 0.176298
H11   H     H_    0.356489 0.917087 0.809734 0.168350
H12   H     H_    0.959754 0.773438 0.618935 0.095135
H13   H     H_    0.251094 0.923585 0.703366 0.147776
H14   H     H_    0.271235 0.983574 0.950750 0.146210
H15   H     H_    0.556944 0.825127 0.045591 0.127362
H16   H     H_    0.642655 0.752729 0.907375 0.164020
H17   H     H_    0.655448 0.847821 0.330442 0.176297
H18   H     H_    0.739714 0.781448 0.189059 0.163424
H19   H     H_    0.728763 0.016417 0.049230 0.146212
H20   H     H_    0.748918 0.076409 0.296606 0.147776
H21   H     H_    0.643522 0.082915 0.190268 0.168352
H22   H     H_    0.936007 0.402760 0.180388 0.122287
H23   H     H_    0.063993 0.597239 0.819611 0.122287
H24   H     H_    0.479173 0.958153 0.288520 0.120362
H25   H     H_    0.520825 0.041847 0.711481 0.120362
H26   H     H_    0.891113 0.224940 0.641793 0.245996
H27   H     H_    0.970899 0.166024 0.897205 0.130145
H28   H     H_    0.046384 0.330121 0.903535 0.168084
N1    N     N_2   0.476600 0.456420 0.038510 0.092904
N2    N     N_2   0.523400 0.543580 0.961490 0.092902
N3    N     N_2   0.938948 0.306301 0.712680 -0.514337
N4    N     N_2   0.061052 0.693699 0.287319 -0.514338
O1    O     O_R   0.506070 0.286130 0.619780 -0.484451
O2    O     O_3   0.596900 0.602773 0.062092 -0.461299
O3    O     O_R   0.493930 0.713870 0.380220 -0.484450
O4    O     O_R   0.490300 0.256770 0.308360 -0.551213
O5    O     O_R   0.509700 0.743230 0.691640 -0.551215
O6    O     O_R   0.386960 0.514660 0.655680 -0.453843
O7    O     O_R   0.613040 0.485340 0.344320 -0.453842
O8    O     O_R   0.371190 0.485310 0.344260 -0.507456
O9    O     O_R   0.628810 0.514690 0.655740 -0.507458
O10   O     O_3   0.403101 0.397227 0.937909 -0.461298

loop_
_geom_bond_atom_site_label_1
_geom_bond_atom_site_label_2
_ccdc_geom_bond_type
H3    N4    S    
N2    O2    S    
C17   H15   S    
C15   H10   S    
C13   H5    S    
C1    O1    A    
C3    C9    T    
C25   N4    S    
C2    H12   S    
C17   O2    S    
C14   O10   S    
C12   O5    A    
C19   H21   S    
C13   H4    S    
C1    C22   S    
Cu1   O9    S    
Cu1   Cu2   S    
C11   N3    S    
C17   C18   S    
C17   H16   S    
C21   O9    A    
C13   H6    S    
Cu1   O6    S    
C15   H9    S    
Cu2   N1    S    
C6    H22   S    
C4    C21   S    
C18   H17   S    
C12   C23   S    
N1    N2    D    
C6    C26   S    
C5    C24   S    
C7    C26   S    
C24   N3    S    
Cu1   O5    S    
C18   H18   S    
C20   O6    A    
Cu2   O8    S    
C24   C26   S    
C23   H25   S    
C2    C25   S    
C5    C7    S    
H26   N3    S    
C14   H8    S    
N1    O10   S    
C19   H19   S    
C19   H20   S    
C2    C5    S    
C16   H11   S    
C4    C10   T    
C15   C16   S    
C6    C25   S    
Cu2   O3    S    
C16   H14   S    
C3    C20   S    
Cu2   O7    S    
C11   H27   S    
Cu2   O4    S    
C26   H1    S    
C22   H24   S    
C18   C19   S    
C2    C8    S    
C14   H7    S    
C7    C9    S    
C12   O3    A    
C14   C15   S    
C5    H23   S    
C6    C8    S    
Cu1   O1    S    
C8    C24   S    
C22   C23   D    
C1    O4    A    
C20   O8    A    
C8    C10   S    
C21   O7    A    
C11   H28   S    
C11   H2    S    
C13   N4    S    
C16   H13   S    
Cu1   N2    S    
C7    C25   S    
