data_mof_unit_12842.cif
_audit_creation_date              2012-12-10T20:58:06-0500
_audit_creation_method            fapswitch 2.2
_symmetry_space_group_name_H-M    P1
_symmetry_Int_Tables_number       1
_space_group_crystal_system       triclinic
_cell_length_a                    18.22547
_cell_length_b                    18.211608
_cell_length_c                    18.443502
_cell_angle_alpha                 120.125726
_cell_angle_beta                  90.008717
_cell_angle_gamma                 119.97478
_cell_volume                      4321.75674846

loop_
_atom_site_label
_atom_site_type_symbol
_atom_type_description
_atom_site_fract_x
_atom_site_fract_y
_atom_site_fract_z
_atom_type_partial_charge
C1    C     C_R   0.360828 0.220215 0.360895 0.494640
C2    C     C_3   0.732512 0.941680 0.645693 -0.213077
C3    C     C_R   0.299715 0.055974 0.741873 -0.092336
C4    C     C_R   0.262159 0.083238 0.702295 -0.105777
C5    C     C_R   0.297395 0.107046 0.643852 -0.083876
C6    C     C_R   0.822871 0.441426 0.547300 0.024842
C7    C     C_R   0.868687 0.414601 0.578906 -0.095422
C8    C     C_R   0.836830 0.310334 0.535323 -0.108217
C9    C     C_R   0.759838 0.232692 0.459543 -0.101645
C10   C     C_R   0.714635 0.259229 0.427227 -0.128630
C11   C     C_R   0.745867 0.363376 0.471170 -0.110682
C12   C     C_R   0.050770 0.350891 0.191466 0.003900
C13   C     C_3   0.697928 0.897395 0.700926 0.018722
C14   C     C_R   0.040799 0.255610 0.136450 -0.094239
C15   C     C_R   0.955512 0.162274 0.083290 -0.115147
C16   C     C_R   0.879025 0.162375 0.084285 -0.105890
C17   C     C_R   0.887641 0.255903 0.137919 -0.096020
C18   C     C_R   0.972748 0.349555 0.191242 -0.096826
C19   C     C_R   0.271001 0.291210 0.925527 0.036394
C20   C     C_R   0.349186 0.390756 0.990953 -0.096003
C21   C     C_R   0.408778 0.403739 0.051307 -0.127930
C22   C     C_R   0.390936 0.318410 0.048678 -0.110585
C23   C     C_R   0.314285 0.219494 0.984569 -0.114049
C24   C     C_R   0.640787 0.780914 0.640978 0.494889
C25   C     C_R   0.255178 0.205629 0.923097 -0.095265
C26   C     C_3   0.798412 0.102642 0.805129 0.124815
C27   C     C_3   0.840664 0.059649 0.831427 -0.285492
C28   C     C_3   0.790159 0.062547 0.706350 0.066719
C29   C     C_3   0.669627 0.513634 0.232660 0.104639
C30   C     C_3   0.726611 0.507580 0.170603 -0.174740
C31   C     C_3   0.798166 0.590094 0.358630 -0.231849
C32   C     C_3   0.691164 0.394391 0.253543 -0.101945
C33   C     C_3   0.339937 0.611833 0.330582 -0.218644
C34   C     C_3   0.697549 0.498449 0.301451 0.056495
C35   C     C_3   0.799584 0.498318 0.200236 0.015616
C36   C     C_3   0.856920 0.593077 0.298908 -0.269332
C37   C     C_R   0.357860 0.499010 0.639499 0.535021
C38   C     C_3   0.755614 0.397300 0.197390 0.089656
C39   C     C_R   0.531467 0.209326 0.517151 -0.101689
C40   C     C_R   0.471878 0.165076 0.436771 -0.076615
C41   C     C_R   0.378810 0.100477 0.417219 0.043855
C42   C     C_R   0.346438 0.081072 0.479070 -0.082944
C43   C     C_R   0.406009 0.125147 0.559861 0.017342
C44   C     C_3   0.298767 0.499583 0.302410 0.095963
C45   C     C_R   0.498895 0.188789 0.577969 -0.078634
C46   C     C_R   0.257134 0.943278 0.276547 -0.156107
C47   C     C_R   0.191870 0.892099 0.197168 0.022581
C48   C     C_R   0.181117 0.948578 0.172062 -0.031324
C49   C     C_R   0.640640 0.499702 0.359493 0.497259
C50   C     C_R   0.240673 0.056358 0.225340 -0.152913
C51   C     C_R   0.305993 0.107747 0.305090 0.023633
C52   C     C_R   0.314011 0.051029 0.331837 -0.034366
C53   C     C_R   0.117927 0.916849 0.030284 -0.091091
C54   C     C_R   0.044613 0.870040 0.959576 -0.116029
C55   C     C_3   0.196688 0.498500 0.199861 0.035213
C56   C     C_R   0.957080 0.805146 0.954424 -0.098814
C57   C     C_R   0.942494 0.786693 0.019645 -0.099126
C58   C     C_R   0.015424 0.833511 0.090514 -0.066400
C59   C     C_R   0.103908 0.898299 0.096057 0.056115
C60   C     C_R   0.903614 0.603388 0.554910 -0.117988
C61   C     C_R   0.641782 0.501471 0.641602 0.530577
C62   C     C_R   0.856152 0.551113 0.592365 0.025721
C63   C     C_R   0.838928 0.603350 0.670404 0.057119
C64   C     C_R   0.870282 0.707264 0.709520 -0.067985
C65   C     C_R   0.917391 0.758345 0.671525 -0.106265
C66   C     C_3   0.142945 0.454647 0.250946 -0.089532
C67   C     C_R   0.934176 0.706555 0.594444 -0.119789
C68   C     C_R   0.839115 0.548702 0.766882 -0.168445
C69   C     C_R   0.799170 0.502245 0.810056 -0.011415
C70   C     C_R   0.707909 0.460860 0.803159 -0.044474
C71   C     C_R   0.657210 0.464491 0.749619 0.201657
C72   C     C_R   0.697692 0.506832 0.702488 0.051333
C73   C     C_R   0.357865 0.500139 0.359488 0.522443
C74   C     C_R   0.789969 0.551702 0.713180 -0.078166
C75   C     C_R   0.631812 0.316092 0.822422 -0.059355
C76   C     C_R   0.583575 0.273193 0.865468 -0.086857
C77   C     C_3   0.280240 0.611300 0.270439 -0.253231
C78   C     C_R   0.564971 0.330725 0.937930 -0.101555
C79   C     C_R   0.597949 0.432967 0.969962 -0.116515
C80   C     C_R   0.648299 0.477227 0.928595 -0.088178
C81   C     C_R   0.664958 0.418734 0.854062 0.045789
C82   C     C_R   0.424578 0.836732 0.774476 -0.122639
C83   C     C_R   0.391014 0.756657 0.785728 -0.087098
C84   C     C_R   0.315019 0.656648 0.719774 0.056079
C85   C     C_3   0.290208 0.433073 0.203352 -0.273047
C86   C     C_R   0.272115 0.638063 0.643247 -0.040790
C87   C     C_R   0.306446 0.718121 0.631890 -0.080536
C88   C     C_3   0.642755 0.937501 0.749429 -0.210986
C89   C     C_R   0.382773 0.817273 0.697324 -0.112652
C90   C     C_R   0.225875 0.568863 0.784461 -0.174955
C91   C     C_R   0.190102 0.492762 0.800584 -0.017674
C92   C     C_R   0.205119 0.413785 0.759478 -0.037124
C93   C     C_R   0.255880 0.412929 0.702122 0.214422
C94   C     C_R   0.297100 0.495099 0.691804 0.051772
C95   C     C_R   0.279391 0.571715 0.731430 -0.083221
C96   C     C_R   0.234824 0.348561 0.839009 -0.067591
C97   C     C_3   0.232805 0.434761 0.143911 -0.242685
C98   C     C_R   0.206464 0.276693 0.860818 0.010991
C99   C     C_3   0.701665 0.057950 0.811648 0.122702
C100  C     C_R   0.115599 0.190218 0.819363 -0.106994
C101  C     C_R   0.056534 0.174453 0.756355 -0.115098
C102  C     C_R   0.085042 0.247113 0.736836 -0.080152
C103  C     C_R   0.173944 0.335596 0.779436 0.043369
C104  C     C_R   0.857106 0.499559 0.142805 0.515543
C105  C     C_R   0.137428 0.498267 0.860454 0.506018
C106  C     C_R   0.856777 0.219166 0.863505 0.572350
C107  C     C_R   0.137198 0.779722 0.141333 0.494786
C108  C     C_R   0.855859 0.501010 0.863366 0.511004
C109  C     C_3   0.202714 0.452227 0.309553 0.114027
C110  C     C_3   0.779894 0.939550 0.772775 -0.269787
C111  C     C_R   0.140044 0.500072 0.142639 0.508718
C112  C     C_R   0.595473 0.293412 0.204795 0.100315
C113  C     C_R   0.561951 0.235858 0.241235 -0.072490
C114  C     C_R   0.475718 0.143159 0.198445 -0.092045
C115  C     C_R   0.421332 0.106083 0.118534 -0.091606
C116  C     C_R   0.453247 0.161586 0.081231 -0.110998
C117  C     C_R   0.539181 0.254729 0.124107 -0.044682
C118  C     C_R   0.370781 0.103704 0.624384 0.027255
C119  C     C_R   0.408558 0.077021 0.665196 -0.104838
C120  C     C_R   0.372832 0.052988 0.723426 -0.111272
H1    H     H_    0.259828 0.351272 0.179547 0.129131
H2    H     H_    0.358320 0.464657 0.197392 0.141685
H3    H     H_    0.674397 0.910098 0.592502 0.141313
H4    H     H_    0.858659 0.093256 0.701027 0.109010
H5    H     H_    0.820057 0.910361 0.740916 0.139769
H6    H     H_    0.907752 0.086509 0.823159 0.124288
H7    H     H_    0.597509 0.451998 0.191484 0.111338
H8    H     H_    0.682062 0.440471 0.101597 0.088019
H9    H     H_    0.759247 0.577673 0.169932 0.158656
H10   H     H_    0.806574 0.665887 0.398314 0.182883
H11   H     H_    0.274926 0.471288 0.112730 0.134774
H12   H     H_    0.258952 0.661756 0.312614 0.137369
H13   H     H_    0.887956 0.666963 0.304567 0.149911
H14   H     H_    0.721273 0.397446 0.308503 0.066747
H15   H     H_    0.811573 0.403880 0.230995 0.133695
H16   H     H_    0.822177 0.580821 0.406813 0.115106
H17   H     H_    0.912667 0.592862 0.323286 0.120406
H18   H     H_    0.546196 0.223915 0.639693 0.099239
H19   H     H_    0.603109 0.259971 0.532768 0.121213
H20   H     H_    0.498156 0.181208 0.390065 0.077167
H21   H     H_    0.177547 0.354234 0.088290 0.149665
H22   H     H_    0.274591 0.030704 0.463690 0.101806
H23   H     H_    0.130318 0.512722 0.297783 0.147229
H24   H     H_    0.264377 0.898902 0.295318 0.130180
H25   H     H_    0.232631 0.100785 0.207245 0.130364
H26   H     H_    0.185419 0.966906 0.033492 0.091248
H27   H     H_    0.055618 0.884164 0.908847 0.099389
H28   H     H_    0.900332 0.769256 0.900184 0.104125
H29   H     H_    0.874611 0.736372 0.015436 0.097009
H30   H     H_    0.002940 0.819507 0.141226 0.091107
H31   H     H_    0.970520 0.746203 0.564973 0.102913
H32   H     H_    0.174419 0.371081 0.286786 0.107725
H33   H     H_    0.916743 0.563980 0.494813 0.097499
H34   H     H_    0.615175 0.904060 0.787452 0.129224
H35   H     H_    0.856799 0.748176 0.768571 0.090337
H36   H     H_    0.940674 0.838108 0.701765 0.090489
H37   H     H_    0.909760 0.582899 0.774390 0.151077
H38   H     H_    0.643780 0.269757 0.764818 0.112059
H39   H     H_    0.559686 0.194887 0.841943 0.107467
H40   H     H_    0.525651 0.296347 0.969664 0.103305
H41   H     H_    0.584634 0.478015 0.026916 0.115345
H42   H     H_    0.672309 0.555910 0.953019 0.111768
H43   H     H_    0.409492 0.878999 0.688258 0.097167
H44   H     H_    0.483196 0.913796 0.825404 0.129513
H45   H     H_    0.584210 0.910349 0.699763 0.127065
H46   H     H_    0.424250 0.772304 0.845433 0.104476
H47   H     H_    0.213004 0.561450 0.592156 0.113727
H48   H     H_    0.273946 0.703322 0.572380 0.137739
H49   H     H_    0.213689 0.628623 0.814932 0.153708
H50   H     H_    0.304239 0.414523 0.866952 0.111011
H51   H     H_    0.346832 0.662316 0.401146 0.173413
H52   H     H_    0.089104 0.134110 0.835140 0.086924
H53   H     H_    0.988358 0.105408 0.722651 0.083071
H54   H     H_    0.038090 0.234784 0.688892 0.094773
H55   H     H_    0.408575 0.646167 0.325701 0.090601
H56   H     H_    0.669982 0.084509 0.788375 0.204762
H57   H     H_    0.320283 0.645699 0.236918 0.109039
H58   H     H_    0.148110 0.465712 0.401765 0.311228
H59   H     H_    0.718390 0.060543 0.918276 0.318729
H60   H     H_    0.763287 0.088197 0.622974 0.317645
H61   H     H_    0.629503 0.602791 0.294546 0.320215
H62   H     H_    0.602323 0.262588 0.303102 0.063186
H63   H     H_    0.451143 0.099743 0.227090 0.099158
H64   H     H_    0.354722 0.034064 0.085291 0.107455
H65   H     H_    0.411668 0.131971 0.018489 0.090058
H66   H     H_    0.561379 0.294504 0.092610 0.064599
H67   H     H_    0.756393 0.911466 0.815161 0.112723
H68   H     H_    0.686858 0.308724 0.069498 0.349859
H69   H     H_    0.464579 0.073008 0.650869 0.096231
H70   H     H_    0.401693 0.031781 0.754173 0.094905
H71   H     H_    0.272065 0.036808 0.786626 0.100888
H72   H     H_    0.205416 0.085436 0.716486 0.107808
H73   H     H_    0.267556 0.128365 0.614071 0.122227
H74   H     H_    0.929034 0.474231 0.636849 0.103494
H75   H     H_    0.872023 0.289766 0.560067 0.106596
H76   H     H_    0.735296 0.152021 0.425800 0.108275
H77   H     H_    0.654980 0.198961 0.368654 0.101115
H78   H     H_    0.852207 0.090100 0.902685 0.133124
H79   H     H_    0.710134 0.383567 0.446589 0.098398
H80   H     H_    0.540691 0.377989 0.756910 0.333599
H81   H     H_    0.098341 0.252320 0.135135 0.085280
H82   H     H_    0.948714 0.089637 0.041554 0.101501
H83   H     H_    0.813062 0.089904 0.043423 0.100329
H84   H     H_    0.828226 0.255704 0.138352 0.168137
H85   H     H_    0.977583 0.421102 0.232143 0.098890
H86   H     H_    0.217968 0.269783 0.649314 0.316447
H87   H     H_    0.363712 0.459684 0.997981 0.091336
H88   H     H_    0.467904 0.480660 0.101686 0.102273
H89   H     H_    0.773904 0.915764 0.612031 0.095454
H90   H     H_    0.436254 0.329068 0.096596 0.110321
H91   H     H_    0.300335 0.153086 0.982231 0.092714
H92   H     H_    0.197918 0.127200 0.873244 0.079207
O1    O     O_3   0.500000 0.500000 0.500000 -0.454008
O2    O     O_R   0.113800 0.731630 0.056520 -0.532624
O3    O     O_R   0.819390 0.439310 0.886160 -0.541378
O4    O     O_R   0.383400 0.268380 0.323710 -0.549290
O5    O     O_R   0.115110 0.560720 0.179280 -0.556222
O6    O     O_R   0.941380 0.560750 0.885620 -0.547044
O7    O     O_R   0.115110 0.439270 0.057830 -0.541117
O8    O     O_R   0.942690 0.268390 0.886930 -0.562789
O9    O     O_R   0.114340 0.731630 0.178520 -0.555223
O10   O     O_R   0.820160 0.439310 0.057830 -0.528323
O11   O     O_R   0.113800 0.560730 0.885620 -0.551514
O12   O     O_R   0.383400 0.560740 0.616060 -0.550652
O13   O     O_R   0.555060 0.731630 0.615290 -0.548981
O14   O     O_R   0.383950 0.439280 0.616600 -0.457497
O15   O     O_R   0.677590 0.560710 0.444390 -0.547132
O16   O     O_R   0.556370 0.439260 0.616600 -0.471335
O17   O     O_R   0.382640 0.439290 0.322940 -0.569674
O18   O     O_R   0.678360 0.560700 0.616060 -0.559961
O19   O     O_R   0.382640 0.560750 0.444390 -0.501205
O20   O     O_3   0.207572 0.508558 0.398691 -0.725093
O21   O     O_3   0.703231 0.095388 0.900015 -0.700347
O22   O     O_3   0.751502 0.098483 0.678742 -0.739862
O23   O     O_R   0.555060 0.439270 0.322940 -0.555631
O24   O     O_3   0.682818 0.610834 0.276322 -0.730183
O25   O     O_3   0.715400 0.304196 0.111205 -0.688582
O26   O     O_3   0.569163 0.431409 0.744871 -0.664716
O27   O     O_3   0.267049 0.333318 0.655921 -0.670291
O28   O     O_R   0.383950 0.268380 0.445700 -0.524509
O29   O     O_R   0.677590 0.731610 0.615290 -0.545145
O30   O     O_3   0.997750 0.500010 0.002220 -0.443770
O31   O     O_R   0.942690 0.560750 0.179280 -0.558960
O32   O     O_R   0.114340 0.439270 0.886160 -0.534819
O33   O     O_R   0.820160 0.268410 0.886930 -0.490623
Zn1   Zn    Zn3+2 0.456040 0.586770 0.543190 0.941595
Zn2   Zn    Zn3+2 0.456820 0.413240 0.543960 0.998954
Zn3   Zn    Zn3+2 0.631110 0.586750 0.543190 0.914203
Zn4   Zn    Zn3+2 0.456040 0.413240 0.369660 0.906189
Zn5   Zn    Zn3+2 0.041710 0.413240 0.959030 0.940484
Zn6   Zn    Zn3+2 0.866640 0.413270 0.959030 0.970356
Zn7   Zn    Zn3+2 0.040930 0.586780 0.958260 0.929367
Zn8   Zn    Zn3+2 0.041710 0.586770 0.132560 0.911995

loop_
_geom_bond_atom_site_label_1
_geom_bond_atom_site_label_2
_ccdc_geom_bond_type
O11   Zn7   S    
C106  O8    A    
C76   H39   S    
C93   C94   A    
O8    Zn5   S    
C100  H52   S    
O29   Zn3   S    
C41   C42   A    
C4    H72   S    
C101  H53   S    
C35   C36   S    
C100  C101  A    
H59   O21   S    
C36   H13   S    
C26   C106  S    
C11   H79   S    
C73   O17   A    
C115  H64   S    
C53   C59   A    
C9    H76   S    
C7    C8    A    
C60   C67   A    
O16   Zn2   S    
C2    H3    S    
C116  C117  A    
C64   H35   S    
C26   C27   S    
C29   C30   S    
C82   C89   A    
O32   Zn5   S    
C30   C35   S    
C18   H85   S    
O30   Zn6   S    
C21   H88   S    
C92   C93   A    
C84   C86   A    
C65   H36   S    
C3    H71   S    
C117  H66   S    
C104  O31   A    
C112  C117  A    
C55   C77   S    
C109  O20   S    
C68   C74   A    
C115  C116  A    
C14   H81   S    
C46   C52   A    
O13   Zn1   S    
C56   C57   A    
C90   H49   S    
C8    H75   S    
C60   C62   A    
O1    Zn2   S    
C2    C13   S    
C91   C105  S    
C118  C119  A    
C45   H18   S    
H68   O25   S    
C92   C103  S    
O15   Zn3   S    
C60   H33   S    
C69   C108  S    
C99   H56   S    
C47   C48   A    
C27   C110  S    
C16   C17   A    
C65   C67   A    
O7    Zn5   S    
C57   H29   S    
C42   H22   S    
O28   Zn2   S    
C85   H1    S    
C70   C71   A    
C32   C38   S    
C49   O15   A    
C16   H83   S    
C36   H17   S    
C2    H89   S    
C41   C52   S    
C91   C92   A    
C26   C99   S    
C39   C45   A    
C69   C70   A    
C108  O6    A    
O10   Zn6   S    
C62   C63   A    
C48   C50   A    
O33   Zn6   S    
H60   O22   S    
C66   C109  S    
C96   H50   S    
C21   C22   A    
O3    Zn6   S    
C55   C97   S    
O1    Zn1   S    
C27   H78   S    
C111  O7    A    
C79   H41   S    
C19   C25   A    
C88   C99   S    
C104  O10   A    
C112  C113  A    
C19   C98   S    
C17   C18   A    
C39   H19   S    
C22   C23   A    
C1    O28   A    
C83   H46   S    
C30   H8    S    
C110  H67   S    
C61   O16   A    
C15   C16   A    
C86   H47   S    
C67   H31   S    
C51   C52   A    
O30   Zn5   S    
C71   O26   S    
C90   C95   A    
C35   C38   S    
C97   H11   S    
C72   C74   A    
C35   C104  S    
C10   C11   A    
C6    C11   A    
C86   C87   A    
C8    C9    A    
C28   O22   S    
C46   H24   S    
C66   H23   S    
C43   C118  S    
C50   C51   A    
C58   C59   A    
C105  O11   A    
C12   C66   S    
C29   C34   S    
C77   H57   S    
C3    C4    A    
C63   C64   A    
C13   C24   S    
C96   C98   A    
C77   H12   S    
C32   C34   S    
C56   H28   S    
O1    Zn3   S    
C75   C76   A    
C29   O24   S    
H58   O20   S    
C13   C110  S    
C120  H70   S    
C43   C45   A    
C113  H62   S    
C53   C54   A    
C97   H21   S    
C109  H32   S    
C1    O4    A    
C61   O18   A    
C31   C34   S    
C85   H2    S    
O9    Zn8   S    
O5    Zn8   S    
C38   H15   S    
C7    H74   S    
O1    Zn4   S    
C1    C51   S    
C80   H42   S    
H86   O27   S    
C44   C85   S    
C75   H38   S    
C78   H40   S    
C37   O14   A    
C12   C14   A    
C88   H45   S    
C94   C95   A    
C47   C107  S    
C31   H10   S    
C87   C89   A    
C87   H48   S    
O2    Zn7   S    
C101  C102  A    
C80   C81   A    
C83   C84   A    
O19   Zn1   S    
C42   C43   A    
O23   Zn4   S    
C24   O13   A    
C33   H51   S    
C10   H77   S    
C73   O19   A    
C55   C66   S    
O18   Zn3   S    
C50   H25   S    
C48   C59   S    
C5    H73   S    
C113  C114  A    
C9    C10   A    
O12   Zn1   S    
C44   C73   S    
C68   H37   S    
C46   C47   A    
C40   C41   A    
C34   C49   S    
C32   C112  S    
C55   C111  S    
C14   C15   A    
C33   C44   S    
O6    Zn7   S    
C68   C69   A    
C75   C81   A    
C61   C72   S    
C119  H69   S    
C37   O12   A    
C76   C78   A    
C31   H16   S    
C119  C120  A    
C28   H4    S    
C54   C56   A    
C114  C115  A    
C6    C7    A    
C63   C74   S    
C15   H82   S    
C102  H54   S    
C30   H9    S    
C111  O5    A    
C116  H65   S    
C26   C28   S    
O31   Zn8   S    
C105  O32   A    
C5    C118  A    
O30   Zn7   S    
C64   C65   A    
C6    C62   S    
C19   C20   A    
C29   H7    S    
C71   C72   A    
C49   O23   A    
C44   C109  S    
C38   O25   S    
C32   H14   S    
C78   C79   A    
H61   O24   S    
C33   C77   S    
C90   C91   A    
C107  O2    A    
C23   H91   S    
C93   O27   S    
C99   O21   S    
C22   H90   S    
C13   C88   S    
C53   H26   S    
C27   H6    S    
C89   H43   S    
C37   C94   S    
C40   H20   S    
C23   C25   A    
C106  O33   A    
C102  C103  A    
C33   H55   S    
C98   C100  A    
H80   O26   S    
C108  O3    A    
C85   C97   S    
C3    C120  A    
C110  H5    S    
C79   C80   A    
C39   C40   A    
C82   H44   S    
C58   H30   S    
C4    C5    A    
C20   C21   A    
C25   H92   S    
C82   C83   A    
O4    Zn4   S    
C96   C103  A    
C12   C18   A    
O30   Zn8   S    
C24   O29   A    
C31   C36   S    
C2    C28   S    
C70   C81   S    
C20   H87   S    
C57   C58   A    
C84   C95   S    
O17   Zn4   S    
C114  H63   S    
C17   H84   S    
C88   H34   S    
C54   H27   S    
C107  O9    A    
O14   Zn2   S    
