data_mof_unit_60766.cif
_audit_creation_date              2012-12-10T17:07:17-0500
_audit_creation_method            fapswitch 2.2
_symmetry_space_group_name_H-M    P1
_symmetry_Int_Tables_number       1
_space_group_crystal_system       triclinic
_cell_length_a                    30.627374
_cell_length_b                    30.764693
_cell_length_c                    21.345944
_cell_angle_alpha                 90.033213
_cell_angle_beta                  42.956257
_cell_angle_gamma                 90.004877
_cell_volume                      13705.8218772

loop_
_atom_site_label
_atom_site_type_symbol
_atom_type_description
_atom_site_fract_x
_atom_site_fract_y
_atom_site_fract_z
_atom_type_partial_charge
C1    C     C_R   0.309504 0.809862 0.500943 0.895355
C2    C     C_R   0.689833 0.190217 0.500426 0.900005
C3    C     C_R   0.689729 0.809770 0.500680 0.899772
C4    C     C_R   0.309448 0.190130 0.501060 0.895064
C5    C     C_R   0.810208 0.309776 0.499456 0.899849
C6    C     C_R   0.189800 0.690223 0.500527 0.899237
C7    C     C_R   0.189816 0.309779 0.500493 0.900023
C8    C     C_R   0.810175 0.690221 0.499526 0.899136
C9    C     C_R   0.333430 0.909074 0.573851 0.099762
C10   C     C_R   0.666955 0.093882 0.421139 0.106016
C11   C     C_R   0.667107 0.904820 0.418809 0.106536
C12   C     C_R   0.373159 0.129486 0.572350 0.099589
C13   C     C_R   0.832923 0.405379 0.580308 0.105684
C14   C     C_R   0.167073 0.594568 0.419784 0.105668
C15   C     C_R   0.167091 0.405402 0.419792 0.105564
C16   C     C_R   0.832910 0.594535 0.580100 0.105529
C17   C     C_R   0.302396 0.873866 0.577276 0.071969
C18   C     C_R   0.697240 0.128849 0.419758 0.067169
C19   C     C_R   0.697088 0.869899 0.418192 0.068946
C20   C     C_R   0.336126 0.158878 0.576009 0.069300
C21   C     C_R   0.802841 0.370401 0.581274 0.069014
C22   C     C_R   0.197169 0.629547 0.418786 0.069013
C23   C     C_R   0.197201 0.370437 0.418794 0.069382
C24   C     C_R   0.802783 0.629500 0.581132 0.069137
C25   C     C_R   0.339910 0.842816 0.505552 -0.159353
C26   C     C_R   0.659583 0.157490 0.495519 -0.153555
C27   C     C_R   0.659572 0.842486 0.495717 -0.152243
C28   C     C_R   0.340495 0.157608 0.505304 -0.161702
C29   C     C_R   0.840406 0.342515 0.504353 -0.152881
C30   C     C_R   0.159598 0.657483 0.495633 -0.153078
C31   C     C_R   0.159622 0.342510 0.495575 -0.153346
C32   C     C_R   0.840372 0.657488 0.504441 -0.153309
C33   C     C_R   0.406876 0.845282 0.433883 0.145583
C34   C     C_R   0.593052 0.153141 0.569767 0.140572
C35   C     C_R   0.593466 0.848071 0.571479 0.136414
C36   C     C_R   0.378486 0.126815 0.434459 0.145524
C37   C     C_R   0.906647 0.347697 0.428982 0.136940
C38   C     C_R   0.093341 0.652347 0.570947 0.136982
C39   C     C_R   0.093344 0.347635 0.570798 0.136720
C40   C     C_R   0.906671 0.652422 0.429291 0.137143
C41   C     C_R   0.436986 0.878450 0.433770 -0.212439
C42   C     C_R   0.563327 0.119986 0.569141 -0.221866
C43   C     C_R   0.563913 0.881253 0.570630 -0.210324
C44   C     C_R   0.411553 0.096629 0.434418 -0.222433
C45   C     C_R   0.936264 0.380899 0.429693 -0.210569
C46   C     C_R   0.063716 0.619147 0.570246 -0.210435
C47   C     C_R   0.063713 0.380816 0.570080 -0.210592
C48   C     C_R   0.936310 0.619242 0.429997 -0.210440
C49   C     C_R   0.401208 0.909835 0.502996 -0.172879
C50   C     C_R   0.599177 0.090642 0.495986 -0.161866
C51   C     C_R   0.599528 0.909352 0.495504 -0.173118
C52   C     C_R   0.408684 0.097375 0.502685 -0.169243
C53   C     C_R   0.900575 0.409434 0.504214 -0.172341
C54   C     C_R   0.099413 0.590564 0.495803 -0.172310
C55   C     C_R   0.099420 0.409399 0.495722 -0.172204
C56   C     C_R   0.900592 0.590601 0.504261 -0.172197
C57   C     C_R   0.936186 0.558268 0.501221 0.915437
C58   C     C_R   0.063819 0.441733 0.498775 0.915286
C59   C     C_R   0.063818 0.558249 0.498805 0.915399
C60   C     C_R   0.936177 0.441752 0.501199 0.915291
C61   C     C_R   0.441520 0.063116 0.500702 0.914984
C62   C     C_R   0.563857 0.941725 0.498719 0.916426
C63   C     C_R   0.563719 0.058304 0.498861 0.897041
C64   C     C_R   0.436425 0.941822 0.500890 0.931707
C65   C     C_R   0.335963 0.749817 0.328543 0.876447
C66   C     C_R   0.664043 0.250188 0.671457 0.877288
C67   C     C_R   0.664069 0.749815 0.671458 0.876628
C68   C     C_R   0.335946 0.250165 0.328542 0.876995
C69   C     C_R   0.835944 0.249800 0.328544 0.876953
C70   C     C_R   0.164079 0.750224 0.671455 0.876578
C71   C     C_R   0.164096 0.249793 0.671457 0.876517
C72   C     C_R   0.835942 0.750174 0.328542 0.876437
C73   C     C_1   0.386999 0.749224 0.226905 -0.174294
C74   C     C_1   0.612995 0.250767 0.773095 -0.172689
C75   C     C_1   0.613073 0.749241 0.773093 -0.171657
C76   C     C_1   0.386927 0.250728 0.226907 -0.175758
C77   C     C_1   0.886997 0.249231 0.226906 -0.172673
C78   C     C_1   0.113027 0.750800 0.773095 -0.171343
C79   C     C_1   0.113105 0.249255 0.773093 -0.173167
C80   C     C_1   0.886934 0.750748 0.226907 -0.172226
C81   C     C_1   0.429256 0.748942 0.142258 0.018595
C82   C     C_1   0.570724 0.251034 0.857742 0.018602
C83   C     C_1   0.570829 0.748959 0.857738 0.019776
C84   C     C_1   0.429150 0.250998 0.142263 0.017669
C85   C     C_1   0.929275 0.248976 0.142259 0.018646
C86   C     C_1   0.070754 0.751064 0.857743 0.020054
C87   C     C_1   0.070871 0.249008 0.857738 0.018193
C88   C     C_1   0.929172 0.751030 0.142263 0.019444
C89   C     C_1   0.478998 0.748800 0.042320 0.019752
C90   C     C_1   0.520970 0.251161 0.957680 0.018800
C91   C     C_1   0.521093 0.748806 0.957674 0.019990
C92   C     C_1   0.478874 0.251149 0.042326 0.018703
C93   C     C_1   0.979035 0.248859 0.042321 0.018800
C94   C     C_1   0.021002 0.751194 0.957681 0.020410
C95   C     C_1   0.021138 0.248871 0.957675 0.018754
C96   C     C_1   0.978905 0.751183 0.042327 0.020047
C97   C     C_R   0.234801 0.870681 0.652081 -0.150766
C98   C     C_R   0.764347 0.134337 0.342811 -0.151552
C99   C     C_R   0.763799 0.863185 0.340235 -0.149875
C100  C     C_R   0.295851 0.188705 0.650065 -0.156909
C101  C     C_R   0.735994 0.364132 0.658953 -0.150438
C102  C     C_R   0.264031 0.635767 0.341151 -0.149931
C103  C     C_R   0.264085 0.364226 0.341227 -0.150524
C104  C     C_R   0.735876 0.635647 0.658642 -0.150136
C105  C     C_R   0.198817 0.903247 0.718544 -0.126531
C106  C     C_R   0.800975 0.104333 0.271143 -0.122750
C107  C     C_R   0.800503 0.891829 0.266299 -0.121928
C108  C     C_R   0.295859 0.191127 0.715240 -0.125697
C109  C     C_R   0.699311 0.393315 0.732079 -0.124347
C110  C     C_R   0.300711 0.606529 0.268119 -0.123315
C111  C     C_R   0.300765 0.393462 0.268283 -0.124299
C112  C     C_R   0.699198 0.606342 0.731469 -0.123413
C113  C     C_R   0.229177 0.939530 0.711627 -0.133289
C114  C     C_R   0.771738 0.068437 0.274744 -0.138849
C115  C     C_R   0.771743 0.927574 0.268570 -0.140512
C116  C     C_R   0.335947 0.164236 0.707792 -0.128563
C117  C     C_R   0.728227 0.429167 0.729234 -0.140443
C118  C     C_R   0.271774 0.570671 0.271017 -0.139896
C119  C     C_R   0.271806 0.429308 0.271202 -0.139707
C120  C     C_R   0.728184 0.570494 0.728491 -0.139523
C121  C     C_R   0.295781 0.942685 0.639987 -0.160287
C122  C     C_R   0.705594 0.063121 0.348724 -0.164217
C123  C     C_R   0.705963 0.934150 0.343696 -0.165362
C124  C     C_R   0.374475 0.133742 0.637056 -0.164208
C125  C     C_R   0.794137 0.435287 0.654426 -0.164766
C126  C     C_R   0.205849 0.564601 0.345778 -0.164627
C127  C     C_R   0.205861 0.435366 0.345886 -0.164896
C128  C     C_R   0.794151 0.564504 0.653875 -0.164648
H1    H     H_    0.209135 0.843074 0.660269 0.135096
H2    H     H_    0.789139 0.161805 0.337000 0.132114
H3    H     H_    0.788221 0.835793 0.335435 0.129773
H4    H     H_    0.263865 0.210243 0.658693 0.137466
H5    H     H_    0.711454 0.336683 0.664160 0.130204
H6    H     H_    0.288587 0.663218 0.335905 0.130483
H7    H     H_    0.288658 0.336783 0.335963 0.130703
H8    H     H_    0.711282 0.663090 0.663952 0.130594
H9    H     H_    0.147150 0.900564 0.774949 0.140210
H10   H     H_    0.852252 0.108752 0.213107 0.140194
H11   H     H_    0.851484 0.886465 0.207466 0.139463
H12   H     H_    0.265248 0.214336 0.771030 0.146132
H13   H     H_    0.648226 0.388297 0.790692 0.138126
H14   H     H_    0.351807 0.611510 0.209539 0.138674
H15   H     H_    0.351879 0.388490 0.209758 0.137823
H16   H     H_    0.648066 0.611263 0.789946 0.138613
H17   H     H_    0.201045 0.965305 0.762078 0.141127
H18   H     H_    0.800344 0.044637 0.219889 0.132440
H19   H     H_    0.800454 0.950301 0.211778 0.132281
H20   H     H_    0.337084 0.166905 0.757157 0.151210
H21   H     H_    0.699541 0.452328 0.785315 0.131167
H22   H     H_    0.300456 0.547468 0.215015 0.131409
H23   H     H_    0.300486 0.452512 0.215276 0.131288
H24   H     H_    0.699509 0.547238 0.784319 0.131318
H25   H     H_    0.316779 0.972058 0.636533 0.153985
H26   H     H_    0.686047 0.034392 0.348226 0.141109
H27   H     H_    0.687140 0.962732 0.341478 0.143189
H28   H     H_    0.405885 0.114444 0.633105 0.155048
H29   H     H_    0.813226 0.463983 0.655877 0.141297
H30   H     H_    0.186731 0.535898 0.344400 0.141175
H31   H     H_    0.186715 0.464056 0.344538 0.141141
H32   H     H_    0.813335 0.535813 0.655148 0.140985
H33   H     H_    0.488898 0.879590 0.379225 0.187773
H34   H     H_    0.511611 0.117336 0.626217 0.180538
H35   H     H_    0.512451 0.884848 0.629143 0.190789
H36   H     H_    0.439581 0.072220 0.380644 0.187598
H37   H     H_    0.987811 0.384174 0.371587 0.190176
H38   H     H_    0.012160 0.615907 0.628299 0.190332
H39   H     H_    0.012145 0.384050 0.628068 0.190102
H40   H     H_    0.987891 0.616053 0.372076 0.190295
O1    O     O_R   0.321660 0.769950 0.500020 -0.588007
O2    O     O_R   0.678340 0.230050 0.499980 -0.591423
O3    O     O_R   0.678340 0.769950 0.499980 -0.591436
O4    O     O_R   0.321660 0.230050 0.500020 -0.615904
O5    O     O_R   0.821660 0.269950 0.500020 -0.590833
O6    O     O_R   0.178340 0.730050 0.499980 -0.590496
O7    O     O_R   0.178340 0.269950 0.499980 -0.591737
O8    O     O_R   0.821660 0.730050 0.500020 -0.590623
O9    O     O_R   0.269950 0.821670 0.500000 -0.616733
O10   O     O_R   0.730050 0.178330 0.500000 -0.616176
O11   O     O_R   0.730050 0.821670 0.500000 -0.616052
O12   O     O_R   0.269950 0.178330 0.500000 -0.590466
O13   O     O_R   0.769950 0.321670 0.500000 -0.616679
O14   O     O_R   0.230050 0.678330 0.500000 -0.616846
O15   O     O_R   0.230050 0.321670 0.500000 -0.615442
O16   O     O_R   0.769950 0.678330 0.500000 -0.616863
O17   O     O_R   0.339000 0.724150 0.373720 -0.593960
O18   O     O_R   0.661000 0.275850 0.626280 -0.594686
O19   O     O_R   0.661000 0.724150 0.626280 -0.595354
O20   O     O_R   0.339000 0.275850 0.373720 -0.608090
O21   O     O_R   0.839000 0.224150 0.373720 -0.594940
O22   O     O_R   0.161000 0.775850 0.626280 -0.596113
O23   O     O_R   0.161000 0.224150 0.626280 -0.585988
O24   O     O_R   0.839000 0.775850 0.373720 -0.594332
O25   O     O_R   0.287290 0.775870 0.373700 -0.594330
O26   O     O_R   0.712710 0.224130 0.626300 -0.595017
O27   O     O_R   0.712710 0.775870 0.626300 -0.594819
O28   O     O_R   0.287290 0.224130 0.373700 -0.580394
O29   O     O_R   0.787290 0.275870 0.373700 -0.595813
O30   O     O_R   0.212710 0.724130 0.626300 -0.595304
O31   O     O_R   0.212710 0.275870 0.626300 -0.606160
O32   O     O_R   0.787290 0.724130 0.373700 -0.595327
O33   O     O_R   0.989830 0.545820 0.428700 -0.614880
O34   O     O_R   0.010170 0.454180 0.571300 -0.615002
O35   O     O_R   0.010170 0.545820 0.571300 -0.614885
O36   O     O_R   0.989830 0.454180 0.428700 -0.614962
O37   O     O_R   0.489830 0.045820 0.428700 -0.614868
O38   O     O_R   0.510170 0.954180 0.571300 -0.613516
O39   O     O_R   0.510170 0.045820 0.571300 -0.628240
O40   O     O_R   0.489830 0.954180 0.428700 -0.613193
O41   O     O_R   0.918540 0.545810 0.571290 -0.634506
O42   O     O_R   0.081460 0.454190 0.428710 -0.634677
O43   O     O_R   0.081460 0.545810 0.428710 -0.634540
O44   O     O_R   0.918540 0.454190 0.571290 -0.634826
O45   O     O_R   0.418540 0.045810 0.571290 -0.641331
O46   O     O_R   0.581460 0.954190 0.428710 -0.635852
O47   O     O_R   0.581460 0.045810 0.428710 -0.637498
O48   O     O_R   0.418540 0.954190 0.571290 -0.623208
Zn1   Zn    Zn3+2 0.284530 0.715470 0.500010 1.009494
Zn2   Zn    Zn3+2 0.715470 0.284530 0.499990 1.005513
Zn3   Zn    Zn3+2 0.715470 0.715470 0.499990 1.007384
Zn4   Zn    Zn3+2 0.284530 0.284530 0.500010 0.983646
Zn5   Zn    Zn3+2 0.784530 0.215470 0.500010 1.008437
Zn6   Zn    Zn3+2 0.215470 0.784530 0.499990 1.009234
Zn7   Zn    Zn3+2 0.215470 0.215470 0.499990 1.030126
Zn8   Zn    Zn3+2 0.784530 0.784530 0.500010 1.009772
Zn9   Zn    Zn3+2 0.047600 0.500000 0.404790 0.969377
Zn10  Zn    Zn3+2 0.952400 0.500000 0.595210 0.969245
Zn11  Zn    Zn3+2 0.547600 0.000000 0.404790 0.969322
Zn12  Zn    Zn3+2 0.452400 1.000000 0.595210 0.967190
I1    I     I_    0.466097 0.801527 0.320396 -0.329800
I2    I     I_    0.534369 0.194302 0.687439 -0.352493
I3    I     I_    0.535392 0.808638 0.691484 -0.336111
I4    I     I_    0.391363 0.124960 0.321981 -0.328336
I5    I     I_    0.964883 0.307657 0.309686 -0.341806
I6    I     I_    0.035086 0.692452 0.690152 -0.336699
I7    I     I_    0.035053 0.307559 0.689925 -0.338192
I8    I     I_    0.964990 0.692580 0.310277 -0.335929

loop_
_geom_bond_atom_site_label_1
_geom_bond_atom_site_label_2
_ccdc_geom_bond_type
O1    Zn1   S    
C88   C96   S    
O15   Zn4   S    
C41   H33   S    
C70   C78   S    
C62   O46   A    
C69   C77   S    
O6    Zn6   S    
C108  C116  A    
C40   I8    S    
O5    Zn5   S    
C110  C118  A    
C71   C79   S    
C109  C117  A    
O34   Zn10  S    
C123  H27   S    
O33   Zn9   S    
O18   Zn2   S    
C11   C19   A    
O48   Zn12  S    
C121  H25   S    
C6    O14   A    
C42   H34   S    
C105  C113  A    
C4    O12   A    
C52   C61   S    
O22   Zn6   S    
O40   Zn11  S    
O27   Zn8   S    
O21   Zn5   S    
C106  H10   S    
C29   C37   A    
C101  C109  A    
O44   Zn10  S    
C66   C74   S    
C57   O41   A    
C115  H19   S    
C65   C73   S    
C56   C57   S    
C30   C38   A    
O12   Zn7   S    
C103  C111  A    
C5    O13   A    
C24   C32   A    
C110  H14   S    
C3    O11   A    
C103  H7    S    
C86   C94   S    
C66   O26   A    
C85   C93   S    
C75   C83   T    
O16   Zn3   S    
C23   C103  A    
C59   O43   A    
C34   C42   A    
C87   C95   S    
C9    C121  A    
C84   C92   S    
O10   Zn5   S    
O37   Zn11  S    
C98   C106  A    
O9    Zn6   S    
C89   C91   T    
C35   C43   A    
C5    C29   S    
C46   C54   A    
O4    Zn4   S    
C111  H15   S    
C43   H35   S    
C21   C101  A    
C71   O31   A    
C44   C52   A    
C15   C23   A    
C77   C85   T    
C16   C24   A    
C49   C64   S    
C15   C127  A    
C79   C87   T    
C80   C88   T    
C1    C25   S    
C50   C63   S    
C122  H26   S    
C117  H21   S    
C76   C84   T    
C34   I2    S    
C51   C62   S    
C61   O45   A    
C99   C107  A    
C74   C82   T    
C67   O27   A    
C41   C49   A    
C4    C28   S    
C53   C60   S    
C67   O19   A    
O20   Zn4   S    
C13   C53   A    
C54   C59   S    
C58   O42   A    
C119  H23   S    
C10   C18   A    
C65   O17   A    
C100  C108  A    
C7    C31   S    
C12   C124  A    
C4    O4    A    
C13   C21   A    
C8    C32   S    
C115  C123  A    
O24   Zn8   S    
C2    C26   S    
C69   O21   A    
C112  C120  A    
C19   C99   A    
O19   Zn3   S    
C6    O6    A    
C27   C35   A    
C39   C47   A    
C21   C29   A    
C45   C53   A    
C7    O7    A    
C104  C112  A    
C24   C104  A    
C15   C55   A    
C16   C56   A    
C118  H22   S    
C72   O32   A    
C47   H39   S    
C108  H12   S    
C126  H30   S    
C90   C92   T    
C48   H40   S    
C124  H28   S    
C42   C50   A    
C36   I4    S    
C69   O29   A    
C18   C26   A    
C12   C20   A    
C25   C33   A    
C120  C128  A    
C9    C49   A    
C68   O28   A    
O8    Zn8   S    
C82   C90   S    
C94   C96   T    
O46   Zn11  S    
C60   O44   A    
C114  H18   S    
O17   Zn1   S    
C73   C81   T    
O26   Zn5   S    
C63   O47   A    
C111  C119  A    
C9    C17   A    
O25   Zn6   S    
C6    C30   S    
C106  C114  A    
O28   Zn7   S    
C120  H24   S    
C113  H17   S    
C3    O3    A    
O38   Zn12  S    
O42   Zn9   S    
C36   C44   A    
O30   Zn1   S    
C67   C75   S    
O41   Zn10  S    
C37   C45   A    
C98   H2    S    
C10   C50   A    
C20   C28   A    
O23   Zn7   S    
C45   H37   S    
C19   C27   A    
C128  H32   S    
C60   O36   A    
C47   C55   A    
C61   O37   A    
C48   C56   A    
C68   O20   A    
C40   C48   A    
C104  H8    S    
C2    O10   A    
C26   C34   A    
C2    O2    A    
C127  H31   S    
C5    O5    A    
C97   C105  A    
C64   O48   A    
C70   O22   A    
C11   C123  A    
O31   Zn4   S    
C112  H16   S    
C17   C25   A    
C10   C122  A    
C14   C126  A    
C38   I6    S    
C109  H13   S    
C8    O8    A    
C37   I5    S    
C101  H5    S    
C33   I1    S    
C35   I3    S    
C118  C126  A    
C12   C52   A    
C22   C102  A    
C99   H3    S    
O11   Zn8   S    
C14   C54   A    
C33   C41   A    
C14   C22   A    
C3    C27   S    
C81   C89   S    
C20   C100  A    
C72   C80   S    
C66   O18   A    
C22   C30   A    
C100  H4    S    
C39   I7    S    
C68   C76   S    
C116  H20   S    
C8    O16   A    
C93   C95   T    
C17   C97   A    
C43   C51   A    
C102  C110  A    
C83   C91   S    
C1    O1    A    
O47   Zn11  S    
C31   C39   A    
C107  C115  A    
C97   H1    S    
C125  H29   S    
C7    O15   A    
C32   C40   A    
C65   O25   A    
C107  H11   S    
C18   C98   A    
C62   O38   A    
C38   C46   A    
C16   C128  A    
C11   C51   A    
C46   H38   S    
C105  H9    S    
C102  H6    S    
C114  C122  A    
C59   O35   A    
O39   Zn12  S    
C113  C121  A    
C28   C36   A    
O14   Zn1   S    
C70   O30   A    
C78   C86   T    
O43   Zn9   S    
C55   C58   S    
C57   O33   A    
O13   Zn2   S    
O45   Zn12  S    
O32   Zn3   S    
O7    Zn7   S    
C64   O40   A    
C63   O39   A    
C44   H36   S    
C71   O23   A    
O36   Zn9   S    
C116  C124  A    
C117  C125  A    
C1    O9    A    
C13   C125  A    
C72   O24   A    
O35   Zn10  S    
O3    Zn3   S    
O29   Zn2   S    
C58   O34   A    
C23   C31   A    
O2    Zn2   S    
C119  C127  A    
