data_mof_unit_48362.cif
_audit_creation_date              2012-12-10T18:11:08-0500
_audit_creation_method            fapswitch 2.2
_symmetry_space_group_name_H-M    P1
_symmetry_Int_Tables_number       1
_space_group_crystal_system       triclinic
_cell_length_a                    10.75252
_cell_length_b                    9.41415
_cell_length_c                    10.709677
_cell_angle_alpha                 90.696062
_cell_angle_beta                  90.382144
_cell_angle_gamma                 89.978885
_cell_volume                      1083.99185491

loop_
_atom_site_label
_atom_site_type_symbol
_atom_type_description
_atom_site_fract_x
_atom_site_fract_y
_atom_site_fract_z
_atom_type_partial_charge
C1    C     C_R   0.259821 0.499734 0.498328 0.811215
C2    C     C_3   0.499616 0.498038 0.123376 -0.140628
C3    C     C_3   0.074604 0.553820 0.625832 -0.465447
C4    C     C_3   0.072343 0.345594 0.474865 -0.373204
C5    C     C_3   0.930745 0.546144 0.630050 -0.141504
C6    C     C_3   0.929036 0.344743 0.471165 -0.137611
C7    C     C_3   0.071121 0.595156 0.393413 -0.339864
C8    C     C_3   0.122168 0.498623 0.498135 0.084885
C9    C     C_3   0.878374 0.498802 0.498798 -0.028948
C10   C     C_3   0.928208 0.601113 0.397711 -0.397526
C11   C     C_3   0.602028 0.084740 0.581900 -0.158849
C12   C     C_3   0.602863 0.917120 0.580700 -0.183629
C13   C     C_3   0.382131 0.084354 0.551969 -0.187223
C14   C     C_3   0.382343 0.916949 0.552460 -0.203208
C15   C     C_3   0.516458 0.082056 0.375710 -0.204574
C16   C     C_3   0.516017 0.914981 0.375419 -0.148544
C17   C     C_R   0.499511 0.499173 0.259619 0.867308
C18   C     C_R   0.740057 0.499759 0.499302 0.799181
C19   C     C_R   0.500897 0.501020 0.740251 0.905720
C20   C     C_3   0.403758 0.576588 0.041263 -0.116149
C21   C     C_3   0.490508 0.365896 0.037068 -0.048474
C22   C     C_3   0.394649 0.444417 0.954961 -0.051391
C23   C     C_3   0.501533 0.503208 0.876090 -0.127727
C24   C     C_3   0.510684 0.635588 0.961903 -0.031519
C25   C     C_3   0.597504 0.425196 0.957953 -0.101342
C26   C     C_3   0.606446 0.557283 0.044358 -0.041254
Cu1   Cu    Cu3+1 0.499860 0.642410 0.500060 0.954245
Cu2   Cu    Cu3+1 0.499860 0.357590 0.500060 0.947190
H1    H     H_    0.693639 0.122992 0.548844 0.168714
H2    H     H_    0.694053 0.880035 0.544702 0.155055
H3    H     H_    0.905527 0.462962 0.698341 0.200308
H4    H     H_    0.896810 0.273837 0.547019 0.164698
N1    N     N_3   0.500250 0.143650 0.502780 -0.148760
N2    N     N_3   0.500250 0.856350 0.502780 -0.151251
O1    O     O_R   0.317570 0.620260 0.500070 -0.592671
O2    O     O_R   0.317570 0.379740 0.500070 -0.598994
O3    O     O_R   0.499850 0.620240 0.316900 -0.534027
O4    O     O_R   0.499850 0.379760 0.316900 -0.632630
O5    O     O_R   0.682190 0.620260 0.500030 -0.584297
O6    O     O_R   0.682190 0.379740 0.500030 -0.596511
O7    O     O_R   0.499910 0.620280 0.683200 -0.620955
O8    O     O_R   0.499910 0.379720 0.683200 -0.531802
C27   C     C_2   0.274709 0.384773 0.905074 0.391681
H5    H     H_    0.186863 0.430807 0.933925 0.039855
O9    O     O_2   0.275145 0.283718 0.832771 -0.537034
H6    H     H_    0.898102 0.712034 0.417577 0.198883
H7    H     H_    0.889842 0.573031 0.304323 0.168166
H8    H     H_    0.592257 0.123815 0.679683 0.202007
H9    H     H_    0.596065 0.877969 0.677740 0.188534
H10   H     H_    0.365885 0.125588 0.648100 0.205724
H11   H     H_    0.366557 0.878540 0.648820 0.140567
H12   H     H_    0.439781 0.119280 0.314287 0.176323
H13   H     H_    0.439559 0.876794 0.313209 0.203719
H14   H     H_    0.605172 0.120763 0.335536 0.161326
H15   H     H_    0.604351 0.875240 0.334524 0.203705
H16   H     H_    0.302294 0.120236 0.493955 0.154849
H17   H     H_    0.302283 0.878992 0.495003 0.165951
C28   C     C_2   0.294521 0.664685 0.081417 0.328344
H18   H     H_    0.231412 0.706341 0.011436 0.069604
O10   O     O_2   0.276548 0.691225 0.191457 -0.557918
C29   C     C_2   0.484964 0.213406 0.075012 0.416937
H19   H     H_    0.565992 0.164735 0.117293 0.055181
O11   O     O_2   0.391234 0.142962 0.056890 -0.513516
C30   C     C_2   0.516696 0.786999 0.920100 0.468590
H20   H     H_    0.439735 0.831327 0.867540 0.026923
O12   O     O_2   0.606758 0.861005 0.945155 -0.488225
C31   C     C_2   0.707735 0.339055 0.917072 0.357366
H21   H     H_    0.767484 0.291116 0.986836 0.066502
O13   O     O_2   0.730866 0.322176 0.806635 -0.561835
C32   C     C_2   0.725900 0.617795 0.094345 0.427766
H22   H     H_    0.813799 0.568584 0.070014 0.043832
O14   O     O_2   0.724918 0.722594 0.162383 -0.526487
H23   H     H_    0.108555 0.664429 0.641858 0.160267
H24   H     H_    0.111798 0.302350 0.386224 0.188798
H25   H     H_    0.114263 0.488395 0.702182 0.168505
H26   H     H_    0.104616 0.274735 0.551096 0.180239
C33   C     C_2   0.878022 0.685323 0.677942 0.381374
H27   H     H_    0.898003 0.783679 0.630315 0.069994
O15   O     O_2   0.813349 0.688452 0.771215 -0.529147
C34   C     C_2   0.881808 0.279719 0.349459 0.372946
H28   H     H_    0.831306 0.342571 0.281739 0.036675
O16   O     O_2   0.899972 0.154110 0.326415 -0.546941
H29   H     H_    0.108842 0.704801 0.403543 0.204742
H30   H     H_    0.100496 0.552444 0.300916 0.197222

loop_
_geom_bond_atom_site_label_1
_geom_bond_atom_site_label_2
_ccdc_geom_bond_type
C7    C10   S    
C6    H4    S    
C1    C8    S    
C7    H29   S    
C25   C31   S    
C4    C8    S    
C6    C9    S    
C12   H9    S    
C7    C8    S    
C33   H27   S    
C13   N1    S    
C24   C26   S    
Cu2   O6    S    
C28   O10   D    
C15   C16   S    
C29   O11   D    
C18   O5    A    
C18   O6    A    
C16   H13   S    
C16   N2    S    
C22   C27   S    
Cu1   O5    S    
C10   H6    S    
C23   C24   S    
C32   H22   S    
C3    H25   S    
C9    C10   S    
C4    H24   S    
C19   O8    A    
C13   H16   S    
C7    H30   S    
C24   C30   S    
C13   C14   S    
C2    C17   S    
C11   H8    S    
C33   O15   D    
Cu1   N2    S    
C2    C20   S    
C31   H21   S    
C15   H14   S    
C20   C24   S    
C11   N1    S    
C34   O16   D    
C3    C8    S    
Cu1   O1    S    
C25   C26   S    
C31   O13   D    
C30   O12   D    
C19   C23   S    
C27   H5    S    
C5    C9    S    
Cu1   O7    S    
C6    C34   S    
C14   H11   S    
Cu2   O4    S    
C2    C21   S    
C2    C26   S    
C17   O3    A    
C15   H12   S    
C12   N2    S    
C27   O9    D    
C11   H1    S    
C4    C6    S    
C20   C22   S    
Cu2   N1    S    
C26   C32   S    
C5    C33   S    
Cu1   Cu2   S    
C1    O1    A    
C14   H17   S    
C21   C25   S    
C12   H2    S    
C21   C29   S    
C34   H28   S    
C3    C5    S    
C14   N2    S    
C11   C12   S    
C30   H20   S    
C28   H18   S    
C16   H15   S    
Cu1   O3    S    
Cu2   O8    S    
C17   O4    A    
C23   C25   S    
C29   H19   S    
C3    H23   S    
C4    H26   S    
C13   H10   S    
C9    C18   S    
Cu2   O2    S    
C10   H7    S    
C22   C23   S    
C32   O14   D    
C21   C22   S    
C20   C28   S    
C15   N1    S    
C19   O7    A    
C1    O2    A    
C5    H3    S    
