data_mof_unit_13562.cif
_audit_creation_date              2012-12-10T19:41:37-0500
_audit_creation_method            fapswitch 2.2
_symmetry_space_group_name_H-M    P1
_symmetry_Int_Tables_number       1
_space_group_crystal_system       triclinic
_cell_length_a                    10.873852
_cell_length_b                    15.791715
_cell_length_c                    16.978082
_cell_angle_alpha                 96.156809
_cell_angle_beta                  90.827911
_cell_angle_gamma                 91.805606
_cell_volume                      2896.70004443

loop_
_atom_site_label
_atom_site_type_symbol
_atom_type_description
_atom_site_fract_x
_atom_site_fract_y
_atom_site_fract_z
_atom_type_partial_charge
C1    C     C_R   0.501503 0.489678 0.348241 0.822911
C2    C     C_R   0.497967 0.510087 0.651781 0.820121
C3    C     C_R   0.871378 0.497614 0.496479 -0.099038
C4    C     C_R   0.128162 0.502721 0.503547 -0.089119
C5    C     C_R   0.935378 0.421468 0.479307 0.050151
C6    C     C_R   0.063744 0.579309 0.516200 0.033149
C7    C     C_R   0.511363 0.484357 0.261745 -0.133540
C8    C     C_R   0.487967 0.513801 0.738298 -0.117144
C9    C     C_R   0.550748 0.556378 0.226041 -0.228023
C10   C     C_R   0.460236 0.438897 0.773214 -0.215882
C11   C     C_R   0.565349 0.552090 0.144304 0.423280
C12   C     C_R   0.446755 0.440781 0.854866 0.422896
C13   C     C_R   0.533926 0.474746 0.096781 0.262647
C14   C     C_R   0.469016 0.518831 0.903366 0.268726
C15   C     C_R   0.497862 0.402486 0.132680 -0.265638
C16   C     C_R   0.493301 0.593602 0.868295 -0.242103
C17   C     C_R   0.486659 0.407054 0.214615 -0.180327
C18   C     C_R   0.501541 0.591434 0.786290 -0.243566
C19   C     C_R   0.444957 0.752131 0.458572 -0.067324
C20   C     C_R   0.551966 0.248445 0.543609 -0.053221
C21   C     C_R   0.450400 0.841270 0.459884 -0.241031
C22   C     C_R   0.549658 0.159115 0.541367 -0.275342
C23   C     C_R   0.262032 0.501070 0.501861 0.796730
C24   C     C_R   0.737761 0.499034 0.497909 0.801703
C25   C     C_R   0.528711 0.890822 0.514788 0.354373
C26   C     C_R   0.478026 0.108789 0.483076 0.382728
C27   C     C_R   0.602199 0.848123 0.564907 -0.433186
C28   C     C_R   0.410758 0.150705 0.429138 -0.387145
C29   C     C_R   0.594541 0.757730 0.562713 0.639768
C30   C     C_R   0.412831 0.240909 0.433691 0.652439
C31   C     C_R   0.192388 0.792002 0.613192 0.375881
C32   C     C_R   0.748699 0.259468 0.341198 0.406164
C33   C     C_R   0.159026 0.704262 0.601559 -0.289889
C34   C     C_R   0.804747 0.336198 0.374901 -0.223150
C35   C     C_R   0.121516 0.665905 0.526299 0.098821
C36   C     C_R   0.875324 0.339600 0.445133 0.062309
C37   C     C_R   0.117324 0.715116 0.462531 -0.259355
C38   C     C_R   0.891917 0.264499 0.480624 -0.279959
C39   C     C_R   0.148152 0.801887 0.473681 -0.229518
C40   C     C_R   0.835466 0.187804 0.447856 -0.190178
C41   C     C_R   0.184623 0.841206 0.548401 0.430397
C42   C     C_R   0.761909 0.184485 0.379152 0.377725
C43   C     C_R   0.936366 0.575128 0.514887 -0.235397
C44   C     C_R   0.062543 0.424689 0.488217 -0.249286
Cu1   Cu    Cu3+1 0.493970 0.415220 0.496180 0.988852
Cu2   Cu    Cu3+1 0.506030 0.584780 0.503820 0.976665
H1    H     H_    0.457408 0.350415 0.240900 0.221027
H2    H     H_    0.519890 0.650064 0.760475 0.163481
H3    H     H_    0.608639 0.286399 0.587839 0.160671
H4    H     H_    0.384336 0.714664 0.416341 0.165133
H5    H     H_    0.604093 0.130183 0.584483 0.165270
H6    H     H_    0.393007 0.870730 0.418668 0.176663
H7    H     H_    0.665938 0.886424 0.604304 0.158511
H8    H     H_    0.358265 0.112424 0.383067 0.153996
H9    H     H_    0.155062 0.667134 0.651534 0.140644
H10   H     H_    0.792070 0.393683 0.346553 0.136536
H11   H     H_    0.085597 0.686741 0.404583 0.164760
H12   H     H_    0.947113 0.265562 0.534352 0.164914
H13   H     H_    0.142381 0.839239 0.423949 0.176098
H14   H     H_    0.847217 0.130713 0.476863 0.183682
H15   H     H_    0.887867 0.634005 0.526763 0.191908
H16   H     H_    0.110738 0.365746 0.478957 0.154950
H17   H     H_    0.445308 0.378617 0.736897 0.181177
H18   H     H_    0.573693 0.615926 0.261846 0.186181
H19   H     H_    0.475658 0.342934 0.096747 0.170616
H20   H     H_    0.509182 0.653329 0.905130 0.171193
N1    N     N_2   0.533499 0.468635 0.013206 -0.247904
N2    N     N_2   0.470106 0.524155 0.986996 -0.249643
N3    N     N_R   0.515100 0.712130 0.509560 -0.201838
N4    N     N_R   0.484900 0.287870 0.490440 -0.202144
N5    N     N_2   0.537883 0.982437 0.522001 -0.214845
N6    N     N_2   0.470130 0.017193 0.475605 -0.187083
O1    O     O_R   0.494360 0.420530 0.382500 -0.517641
O2    O     O_R   0.505640 0.579470 0.617500 -0.554233
O3    O     O_R   0.504550 0.563720 0.388950 -0.602346
O4    O     O_R   0.495450 0.436280 0.611050 -0.602012
O5    O     O_R   0.314550 0.428410 0.496780 -0.571279
O6    O     O_R   0.685450 0.571590 0.503220 -0.542643
O7    O     O_R   0.324740 0.571600 0.503230 -0.584351
O8    O     O_R   0.675260 0.428400 0.496770 -0.581043
O9    O     O_3   0.211694 0.927752 0.555534 -0.730394
H21   H     H_    0.243647 0.946585 0.609681 0.357322
O10   O     O_3   0.704459 0.107600 0.351622 -0.730195
H22   H     H_    0.648991 0.115760 0.306507 0.342301
O11   O     O_3   0.672031 0.711675 0.607137 -0.583557
C45   C     C_3   0.713614 0.755237 0.680302 -0.010348
H23   H     H_    0.713446 0.708247 0.724467 0.169708
H24   H     H_    0.651671 0.806066 0.704560 0.123852
C46   C     C_3   0.846676 0.788346 0.673715 -0.340828
H25   H     H_    0.907216 0.733333 0.660983 0.226071
H26   H     H_    0.854974 0.828507 0.624130 0.223482
C47   C     C_3   0.890777 0.840306 0.750402 -0.866376
H27   H     H_    0.832237 0.896243 0.763849 0.249960
H28   H     H_    0.987074 0.863572 0.744041 0.292536
H29   H     H_    0.887333 0.800344 0.800382 0.251761
O12   O     O_3   0.354484 0.283136 0.376655 -0.586421
C48   C     C_3   0.232437 0.252296 0.358746 0.010539
H30   H     H_    0.173435 0.308414 0.360364 0.169506
H31   H     H_    0.193501 0.211055 0.402314 0.128999
C49   C     C_3   0.223418 0.207558 0.274186 -0.345380
H32   H     H_    0.250048 0.253682 0.231849 0.221647
H33   H     H_    0.287438 0.154074 0.266743 0.218310
C50   C     C_3   0.092549 0.173362 0.254251 -0.903145
H34   H     H_    0.065544 0.124676 0.293945 0.266531
H35   H     H_    0.087289 0.143544 0.191978 0.255676
H36   H     H_    0.027035 0.226032 0.261240 0.249880
O13   O     O_3   0.214038 0.833687 0.688381 -0.640897
C51   C     C_3   0.308985 0.796137 0.728726 0.040779
H37   H     H_    0.385375 0.775271 0.688655 0.133832
H38   H     H_    0.270635 0.740576 0.756470 0.162776
C52   C     C_3   0.360929 0.862906 0.793646 -0.313116
H39   H     H_    0.411251 0.914046 0.765831 0.215087
H40   H     H_    0.283891 0.892103 0.828069 0.238170
C53   C     C_3   0.447414 0.824671 0.850656 -0.932693
H41   H     H_    0.396727 0.776048 0.881313 0.263044
H42   H     H_    0.483854 0.875585 0.895922 0.265239
H43   H     H_    0.526084 0.795336 0.818543 0.240826
O14   O     O_3   0.673875 0.260235 0.274747 -0.624052
C54   C     C_3   0.740643 0.234061 0.205923 0.014972
H44   H     H_    0.672731 0.207524 0.159527 0.178588
H45   H     H_    0.804778 0.181848 0.214472 0.142554
C55   C     C_3   0.810304 0.309949 0.175878 -0.361815
H46   H     H_    0.746351 0.362533 0.170472 0.243598
H47   H     H_    0.884969 0.333724 0.218617 0.202712
C56   C     C_3   0.867201 0.284901 0.095482 -0.879717
H48   H     H_    0.932688 0.232928 0.099749 0.255398
H49   H     H_    0.917921 0.340805 0.075819 0.260278
H50   H     H_    0.794262 0.263358 0.050658 0.261182
O15   O     O_3   0.410143 0.366024 0.884311 -0.730200
H51   H     H_    0.372592 0.379981 0.936686 0.339279
O16   O     O_3   0.611635 0.623880 0.113732 -0.726404
H52   H     H_    0.643453 0.607369 0.060128 0.340659

loop_
_geom_bond_atom_site_label_1
_geom_bond_atom_site_label_2
_ccdc_geom_bond_type
C33   H9    S    
C34   H10   S    
C40   H14   S    
C27   C29   A    
C9    H18   S    
C26   N6    S    
C10   H17   S    
C48   H30   S    
C39   C41   A    
Cu1   Cu2   S    
C51   H37   S    
C3    C43   A    
Cu1   O4    S    
C35   C37   A    
Cu2   O7    S    
C45   H24   S    
C15   H19   S    
C5    C36   S    
C6    C35   S    
Cu1   O1    S    
O14   C54   S    
C49   H32   S    
Cu2   N3    S    
C30   O12   S    
C30   N4    A    
C38   H12   S    
C24   O8    A    
C52   H40   S    
C52   H39   S    
C7    C17   A    
C56   H50   S    
O13   C51   S    
C31   C33   A    
C25   N5    S    
C46   H26   S    
C29   O11   S    
C2    O2    A    
C40   C42   A    
C41   O9    S    
C20   N4    A    
C3    C24   S    
C49   H33   S    
Cu2   O3    S    
C48   H31   S    
O9    H21   S    
C29   N3    A    
C54   H45   S    
C12   O15   S    
N1    N2    D    
C1    O3    A    
C4    C6    A    
Cu2   O6    S    
C4    C23   S    
C28   H8    S    
C45   H23   S    
C4    C44   A    
C44   H16   S    
O11   C45   S    
C49   C50   S    
C8    C18   A    
C18   H2    S    
C32   C34   A    
C20   H3    S    
O10   H22   S    
C39   H13   S    
O12   C48   S    
C47   H28   S    
C50   H35   S    
C23   O5    A    
C46   C47   S    
C9    C11   A    
C10   C12   A    
C24   O6    A    
C5    C44   A    
C12   C14   A    
C6    C43   A    
C13   C15   A    
C56   H48   S    
C14   C16   A    
C19   N3    A    
C16   H20   S    
C52   C53   S    
C20   C22   A    
C55   H47   S    
O16   H52   S    
Cu2   O2    S    
C48   C49   S    
C2    O4    A    
C43   H15   S    
O15   H51   S    
C13   N1    S    
C54   C55   S    
C15   C17   A    
C21   C25   A    
C32   C42   A    
C31   C41   A    
C19   C21   A    
Cu1   N4    S    
C1    C7    S    
C31   O13   S    
C8    C10   A    
C2    C8    S    
C42   O10   S    
C17   H1    S    
C32   O14   S    
C3    C5    A    
C45   C46   S    
C11   O16   S    
C53   H42   S    
C54   H44   S    
C27   H7    S    
C53   H41   S    
C25   C27   A    
Cu1   O8    S    
C26   C28   A    
C51   C52   S    
C1    O1    A    
C55   C56   S    
C28   C30   A    
C55   H46   S    
N5    N6    D    
C37   C39   A    
C38   C40   A    
C11   C13   A    
C19   H4    S    
C36   C38   A    
C47   H27   S    
C33   C35   A    
C51   H38   S    
C50   H36   S    
C34   C36   A    
C47   H29   S    
C53   H43   S    
C7    C9    A    
C16   C18   A    
C22   C26   A    
C50   H34   S    
C56   H49   S    
C14   N2    S    
Cu1   O5    S    
C23   O7    A    
C46   H25   S    
C21   H6    S    
C37   H11   S    
C22   H5    S    
