data_mof_unit_55753.cif
_audit_creation_date              2012-12-10T18:38:32-0500
_audit_creation_method            fapswitch 2.2
_symmetry_space_group_name_H-M    P1
_symmetry_Int_Tables_number       1
_space_group_crystal_system       triclinic
_cell_length_a                    15.863775
_cell_length_b                    15.056875
_cell_length_c                    14.007108
_cell_angle_alpha                 89.914784
_cell_angle_beta                  89.247393
_cell_angle_gamma                 91.891997
_cell_volume                      3343.60347491

loop_
_atom_site_label
_atom_site_type_symbol
_atom_type_description
_atom_site_fract_x
_atom_site_fract_y
_atom_site_fract_z
_atom_type_partial_charge
C1    C     C_R   0.499133 0.330490 0.500004 0.815693
C2    C     C_R   0.497868 0.670152 0.500250 0.827096
C3    C     C_R   0.562203 0.187447 0.534201 -0.220739
C4    C     C_R   0.472116 0.813920 0.419306 -0.212849
C5    C     C_R   0.494660 0.234602 0.500032 -0.067570
C6    C     C_R   0.491456 0.767076 0.502176 -0.099232
C7    C     C_R   0.421564 0.190144 0.468259 -0.191802
C8    C     C_R   0.501714 0.813264 0.588492 -0.192551
C9    C     C_R   0.415022 0.097727 0.472073 0.375770
C10   C     C_R   0.495958 0.905239 0.591427 0.377405
C11   C     C_R   0.483671 0.049721 0.505248 0.047060
C12   C     C_R   0.481362 0.952332 0.506684 0.062911
C13   C     C_R   0.560073 0.548951 0.106142 -0.309856
C14   C     C_R   0.453272 0.436302 0.893379 -0.312743
C15   C     C_R   0.558546 0.550651 0.206648 0.114265
C16   C     C_R   0.452135 0.437838 0.792856 0.118074
C17   C     C_R   0.442651 0.447818 0.209576 0.554512
C18   C     C_R   0.548971 0.560747 0.790706 0.555121
C19   C     C_R   0.440214 0.448957 0.109082 -0.304830
C20   C     C_R   0.547568 0.563163 0.891190 -0.295334
C21   C     C_R   0.499815 0.499389 0.054415 0.092861
C22   C     C_R   0.499980 0.499956 0.945481 0.087380
C23   C     C_R   0.340139 0.499800 0.500636 0.844670
C24   C     C_R   0.659861 0.499625 0.499469 0.842075
C25   C     C_3   0.970665 0.432721 0.551783 -0.033903
C26   C     C_3   0.029875 0.577303 0.454394 -0.038389
C27   C     C_3   0.029403 0.431609 0.462414 -0.023402
C28   C     C_3   0.971311 0.578821 0.544284 -0.024217
C29   C     C_1   0.250876 0.501977 0.502579 -0.168210
C30   C     C_1   0.749263 0.499554 0.498453 -0.174893
C31   C     C_3   0.025979 0.509730 0.594363 -0.033118
C32   C     C_3   0.974180 0.500561 0.412494 -0.042162
C33   C     C_3   0.084235 0.508507 0.504997 0.037874
C34   C     C_3   0.916257 0.502300 0.502187 0.037540
C35   C     C_1   0.175632 0.504996 0.504454 -0.085298
C36   C     C_1   0.824693 0.500495 0.499291 -0.092298
C37   C     C_R   0.557347 0.095235 0.535116 -0.159271
C38   C     C_R   0.469032 0.906026 0.421029 -0.161387
Cu1   Cu    Cu3+1 0.500000 0.499990 0.596430 0.992556
Cu2   Cu    Cu3+1 0.500000 0.500010 0.403570 0.993133
H1    H     H_    0.390925 0.409591 0.075542 0.160271
H2    H     H_    0.584595 0.615271 0.924999 0.168039
H3    H     H_    0.611054 0.059147 0.559353 0.167426
H4    H     H_    0.457526 0.941353 0.355282 0.175782
H5    H     H_    0.618820 0.222010 0.558801 0.134093
H6    H     H_    0.458812 0.779570 0.353376 0.154922
H7    H     H_    0.368795 0.227466 0.443458 0.196819
H8    H     H_    0.513897 0.778155 0.654094 0.223147
H9    H     H_    0.609567 0.587247 0.069911 0.149584
H10   H     H_    0.417292 0.383823 0.929349 0.150786
N1    N     N_R   0.500000 0.500020 0.258690 -0.217250
N2    N     N_R   0.500000 0.499980 0.741310 -0.217056
O1    O     O_R   0.500010 0.371450 0.581430 -0.587971
O2    O     O_R   0.499990 0.628550 0.418570 -0.593700
O3    O     O_R   0.500010 0.371460 0.418560 -0.534993
O4    O     O_R   0.499990 0.628540 0.581440 -0.544207
O5    O     O_R   0.379080 0.499990 0.581420 -0.598586
O6    O     O_R   0.620920 0.500010 0.418580 -0.591554
O7    O     O_R   0.379080 0.500000 0.418550 -0.532136
O8    O     O_R   0.620920 0.500000 0.581450 -0.531300
C39   C     C_R   0.069100 0.356057 0.408310 0.111456
C40   C     C_R   0.061247 0.267174 0.439041 -0.178082
C41   C     C_R   0.100101 0.199933 0.387595 -0.120489
C42   C     C_R   0.146694 0.220448 0.304785 -0.072564
C43   C     C_R   0.154718 0.308354 0.273361 -0.085616
C44   C     C_R   0.116783 0.375855 0.325119 -0.101070
H11   H     H_    0.026100 0.248557 0.502458 0.153000
H12   H     H_    0.094035 0.131747 0.412011 0.156840
H13   H     H_    0.176587 0.168254 0.265035 0.154673
H14   H     H_    0.190619 0.324299 0.209019 0.162523
H15   H     H_    0.124622 0.443815 0.300271 0.134301
C45   C     C_R   0.948378 0.664457 0.593955 0.088010
C46   C     C_R   0.013794 0.722986 0.623730 -0.097814
C47   C     C_R   0.995653 0.802840 0.669059 -0.124211
C48   C     C_R   0.912003 0.825178 0.685412 -0.125717
C49   C     C_R   0.846468 0.767539 0.656622 -0.105310
C50   C     C_R   0.864363 0.687549 0.611257 -0.147720
H16   H     H_    0.079067 0.706797 0.611448 0.137503
H17   H     H_    0.046505 0.847438 0.691428 0.140388
H18   H     H_    0.897959 0.887081 0.720457 0.131811
H19   H     H_    0.781605 0.784824 0.669497 0.174854
H20   H     H_    0.812093 0.644979 0.590582 0.167560
Cl1   Cl    Cl    0.370899 0.374530 0.268444 -0.651845
Cl2   Cl    Cl    0.618791 0.636449 0.732247 -0.654194
C51   C     C_R   0.938066 0.350762 0.605290 0.096351
C52   C     C_R   0.985685 0.314420 0.678959 -0.162631
C53   C     C_R   0.957167 0.237285 0.726553 -0.139037
C54   C     C_R   0.881683 0.194494 0.700027 -0.103037
C55   C     C_R   0.835169 0.228206 0.625054 -0.136426
C56   C     C_R   0.863487 0.305363 0.577289 -0.147237
H21   H     H_    0.045657 0.344481 0.698800 0.137035
H22   H     H_    0.994093 0.210199 0.783441 0.134680
H23   H     H_    0.859841 0.134546 0.736667 0.129486
H24   H     H_    0.777524 0.194001 0.603239 0.125516
H25   H     H_    0.827647 0.327969 0.517554 0.124082
C57   C     C_R   0.056443 0.662246 0.402448 0.090860
C58   C     C_R   0.995077 0.724216 0.380610 -0.144078
C59   C     C_R   0.017498 0.803374 0.333206 -0.142718
C60   C     C_R   0.101391 0.821368 0.306385 -0.084253
C61   C     C_R   0.162765 0.759867 0.326367 -0.111208
C62   C     C_R   0.140521 0.680524 0.373738 -0.170792
H26   H     H_    0.929813 0.711465 0.400880 0.126066
H27   H     H_    0.969770 0.850755 0.317303 0.128225
H28   H     H_    0.118776 0.882722 0.269705 0.137340
H29   H     H_    0.227680 0.773483 0.304740 0.142957
H30   H     H_    0.189197 0.633881 0.385949 0.145057
C63   C     C_R   0.941700 0.485024 0.312508 0.102527
C64   C     C_R   0.968692 0.538530 0.234881 -0.180361
C65   C     C_R   0.936911 0.522563 0.143707 -0.135786
C66   C     C_R   0.879385 0.451991 0.128502 -0.110544
C67   C     C_R   0.853972 0.396843 0.204479 -0.152105
C68   C     C_R   0.885079 0.413063 0.295913 -0.126734
H31   H     H_    0.014763 0.591936 0.243219 0.148985
H32   H     H_    0.957285 0.564878 0.084769 0.126373
H33   H     H_    0.854962 0.439677 0.057795 0.126902
H34   H     H_    0.809926 0.341660 0.192633 0.135127
H35   H     H_    0.865000 0.369349 0.353797 0.123170
C69   C     C_R   0.045490 0.520256 0.699272 0.094044
C70   C     C_R   0.978812 0.514262 0.766344 -0.109362
C71   C     C_R   0.994413 0.523644 0.863764 -0.131655
C72   C     C_R   0.076586 0.540273 0.895214 -0.105665
C73   C     C_R   0.143060 0.548308 0.829062 -0.133429
C74   C     C_R   0.127645 0.538860 0.731463 -0.178549
H36   H     H_    0.914666 0.501786 0.743060 0.145643
H37   H     H_    0.942675 0.518079 0.914702 0.123698
H38   H     H_    0.088704 0.547550 0.970704 0.123704
H39   H     H_    0.206601 0.562302 0.853388 0.132933
H40   H     H_    0.179861 0.547552 0.682111 0.139217
Cl3   Cl    Cl    0.318831 0.045164 0.439352 -0.668109
Cl4   Cl    Cl    0.505084 0.958682 0.702882 -0.645798
C75   C     C_R   0.621042 0.611305 0.251466 0.165871
C76   C     C_R   0.703344 0.583841 0.267698 -0.114570
C77   C     C_R   0.764097 0.643820 0.303660 -0.141676
C78   C     C_R   0.744237 0.732309 0.319704 -0.131678
C79   C     C_R   0.664119 0.761408 0.297484 -0.135105
C80   C     C_R   0.603374 0.701450 0.261467 -0.130025
H41   H     H_    0.719736 0.515735 0.254271 0.142612
H42   H     H_    0.826510 0.621761 0.318877 0.149425
H43   H     H_    0.791337 0.778666 0.347506 0.125495
H44   H     H_    0.649418 0.830553 0.306949 0.138615
H45   H     H_    0.542942 0.725114 0.239789 0.116891
C81   C     C_R   0.397842 0.369228 0.747208 0.161129
C82   C     C_R   0.314311 0.387517 0.724627 -0.118638
C83   C     C_R   0.261026 0.321197 0.686480 -0.157142
C84   C     C_R   0.289587 0.234995 0.675078 -0.119518
C85   C     C_R   0.371070 0.214868 0.702986 -0.117836
C86   C     C_R   0.424837 0.281482 0.739865 -0.131918
H46   H     H_    0.291013 0.453415 0.735779 0.126777
H47   H     H_    0.197536 0.336549 0.666325 0.138048
H48   H     H_    0.248323 0.183619 0.645637 0.164005
H49   H     H_    0.392740 0.147776 0.695587 0.191252
H50   H     H_    0.487759 0.265092 0.761529 0.145171

loop_
_geom_bond_atom_site_label_1
_geom_bond_atom_site_label_2
_ccdc_geom_bond_type
C25   C31   S    
C53   C54   A    
C26   C32   S    
C63   C68   A    
C67   C68   A    
C17   N1    A    
C8    H8    S    
C84   C85   A    
C18   N2    A    
C79   C80   A    
C4    H6    S    
C51   C52   A    
C27   C33   S    
C23   O7    A    
Cu1   O1    S    
C61   H29   S    
C45   C50   A    
C40   H11   S    
C1    C5    S    
C23   C29   S    
C19   C21   A    
C82   C83   A    
C52   H21   S    
C68   H35   S    
C59   H27   S    
Cu1   O5    S    
C55   H24   S    
C64   C65   A    
C23   O5    A    
C46   C47   A    
C73   H39   S    
C11   C37   A    
C1    O1    A    
C69   C70   A    
C27   C39   S    
C17   C19   A    
C66   C67   A    
C39   C44   A    
C44   H15   S    
C76   C77   A    
C32   C63   S    
C18   Cl2   S    
C63   C64   A    
C31   C33   S    
C67   H34   S    
C15   N1    A    
C48   H18   S    
C18   C20   A    
C58   H26   S    
C24   O8    A    
C25   C34   S    
C60   H28   S    
C28   C34   S    
C77   H42   S    
Cu2   O7    S    
C21   C22   S    
C2    C6    S    
C58   C59   A    
C26   C57   S    
C79   H44   S    
C51   C56   A    
Cu2   O6    S    
C47   C48   A    
C16   N2    A    
C56   H25   S    
C57   C62   A    
C49   C50   A    
C4    C6    A    
C75   C80   A    
C2    O2    A    
Cu1   Cu2   S    
C5    C7    A    
C71   H37   S    
C83   C84   A    
C6    C8    A    
C76   H41   S    
C70   H36   S    
C3    H5    S    
C41   C42   A    
C17   Cl1   S    
C7    H7    S    
C64   H31   S    
C37   H3    S    
C16   C81   S    
C48   C49   A    
C10   Cl4   S    
C31   C69   S    
C38   H4    S    
C80   H45   S    
C26   C33   S    
C60   C61   A    
C46   H16   S    
Cu2   O3    S    
C57   C58   A    
C40   C41   A    
C25   C51   S    
C13   C21   A    
Cu1   O4    S    
C42   H13   S    
C9    C11   A    
C72   C73   A    
C10   C12   A    
C65   H32   S    
C13   H9    S    
C24   O6    A    
C4    C38   A    
C59   C60   A    
Cu2   O2    S    
C47   H17   S    
C13   C15   A    
C77   C78   A    
C14   C16   A    
C75   C76   A    
C55   C56   A    
C78   H43   S    
C71   C72   A    
C85   C86   A    
C62   H30   S    
C7    C9    A    
C29   C35   T    
C54   H23   S    
C83   H47   S    
C27   C32   S    
C52   C53   A    
C81   C86   A    
C28   C31   S    
C84   H48   S    
C20   C22   A    
C45   C46   A    
C3    C5    A    
C49   H19   S    
C20   H2    S    
C70   C71   A    
C78   C79   A    
C9    Cl3   S    
C25   C27   S    
Cu2   N1    S    
C41   H12   S    
C26   C28   S    
C30   C36   T    
C42   C43   A    
C14   C22   A    
C86   H50   S    
C1    O3    A    
C72   H38   S    
C2    O4    A    
C65   C66   A    
C28   C45   S    
C74   H40   S    
C14   H10   S    
C50   H20   S    
Cu1   O8    S    
C61   C62   A    
C33   C35   S    
Cu1   N2    S    
C34   C36   S    
C69   C74   A    
C12   C38   A    
C39   C40   A    
C24   C30   S    
C82   H46   S    
C85   H49   S    
C19   H1    S    
C15   C75   S    
C54   C55   A    
C3    C37   A    
C8    C10   A    
C43   C44   A    
C81   C82   A    
C73   C74   A    
C53   H22   S    
C66   H33   S    
C43   H14   S    
C11   C12   S    
C32   C34   S    
