data_mof_unit_24051.cif
_audit_creation_date              2012-12-10T17:16:47-0500
_audit_creation_method            fapswitch 2.2
_symmetry_space_group_name_H-M    P1
_symmetry_Int_Tables_number       1
_space_group_crystal_system       triclinic
_cell_length_a                    23.550315
_cell_length_b                    13.000345
_cell_length_c                    11.666275
_cell_angle_alpha                 100.195094
_cell_angle_beta                  93.300318
_cell_angle_gamma                 90.386361
_cell_volume                      3509.02565676

loop_
_atom_site_label
_atom_site_type_symbol
_atom_type_description
_atom_site_fract_x
_atom_site_fract_y
_atom_site_fract_z
_atom_type_partial_charge
C1    C     C_R   0.500341 0.299237 0.478248 0.828629
C2    C     C_R   0.499652 0.700763 0.521753 0.828593
C3    C     C_R   0.243172 0.507382 0.612594 0.176229
C4    C     C_R   0.756845 0.492427 0.387462 0.176237
C5    C     C_R   0.302415 0.507063 0.609209 -0.225558
C6    C     C_R   0.697597 0.492700 0.390799 -0.225628
C7    C     C_R   0.328445 0.500044 0.503005 -0.120204
C8    C     C_R   0.671555 0.500013 0.497018 -0.120203
C9    C     C_R   0.294541 0.493060 0.399001 -0.218027
C10   C     C_R   0.705448 0.507345 0.601079 -0.217983
C11   C     C_R   0.235167 0.493120 0.400316 0.181361
C12   C     C_R   0.764822 0.507336 0.599807 0.181335
C13   C     C_R   0.209302 0.500416 0.507527 0.371677
C14   C     C_R   0.790702 0.499748 0.492586 0.371731
C15   C     C_R   0.499482 0.814305 0.534957 -0.108136
C16   C     C_R   0.500482 0.185694 0.465049 -0.108166
C17   C     C_R   0.469578 0.018508 0.352353 0.190737
C18   C     C_R   0.530334 0.981506 0.647675 0.190696
C19   C     C_R   0.473313 0.126606 0.365693 -0.245866
C20   C     C_R   0.526627 0.873408 0.634330 -0.245911
C21   C     C_R   0.528226 0.136427 0.549880 0.113099
C22   C     C_R   0.471720 0.863559 0.450131 0.113179
C23   C     C_R   0.390908 0.499963 0.500849 0.818813
C24   C     C_R   0.609091 0.500048 0.499153 0.818852
C25   C     C_R   0.515044 0.030064 0.550305 0.057950
C26   C     C_R   0.484878 0.969936 0.449712 0.057900
C27   C     C_R   0.446665 0.399561 0.022296 0.075102
C28   C     C_R   0.553335 0.600438 0.977704 0.075099
C29   C     C_R   0.452115 0.410337 0.144901 0.076163
C30   C     C_R   0.547885 0.589663 0.855099 0.076171
C31   C     C_R   0.522707 0.542848 0.157370 0.002716
C32   C     C_R   0.477293 0.457152 0.842630 0.002699
C33   C     C_R   0.519331 0.536434 0.034277 0.007133
C34   C     C_R   0.480669 0.463566 0.965723 0.007141
C35   C     C_R   0.880279 0.592251 0.500613 0.540166
C36   C     C_R   0.119718 0.407943 0.499531 0.540197
C37   C     C_R   0.878985 0.406778 0.482435 0.540805
C38   C     C_R   0.121028 0.593424 0.517855 0.540773
C39   C     C_R   0.939034 0.403575 0.481994 -0.054404
C40   C     C_R   0.060979 0.596646 0.518378 -0.054382
C41   C     C_R   0.969864 0.499839 0.496722 -0.094337
C42   C     C_R   0.030143 0.500393 0.503637 -0.094331
C43   C     C_R   0.940333 0.595186 0.500161 -0.054259
C44   C     C_R   0.059672 0.405047 0.500158 -0.054284
C45   C     C_R   0.969011 0.308000 0.470314 0.157757
C46   C     C_R   0.031006 0.692229 0.530153 0.157793
C47   C     C_R   0.028461 0.310089 0.494521 0.159579
C48   C     C_R   0.971555 0.690167 0.505919 0.159494
Cu1   Cu    Cu3+1 0.504210 0.507730 0.615930 0.934051
Cu2   Cu    Cu3+1 0.495790 0.492270 0.384070 0.934047
H1    H     H_    0.448161 0.402568 0.787599 0.150211
H2    H     H_    0.551839 0.597432 0.212400 0.150242
H3    H     H_    0.328160 0.512370 0.690187 0.170512
H4    H     H_    0.671862 0.487114 0.309774 0.170537
N1    N     N_R   0.851671 0.499517 0.490960 -0.458480
N2    N     N_R   0.148335 0.500670 0.509208 -0.458477
N3    N     N_R   0.510550 0.519360 0.790130 -0.202870
N4    N     N_R   0.489450 0.480640 0.209870 -0.202881
O1    O     O_R   0.502990 0.354470 0.582000 -0.577312
O2    O     O_R   0.497010 0.645530 0.418000 -0.577304
O3    O     O_R   0.495870 0.341410 0.386200 -0.591217
O4    O     O_R   0.504130 0.658590 0.613800 -0.591220
O5    O     O_R   0.421440 0.506500 0.597920 -0.584636
O6    O     O_R   0.578560 0.493500 0.402080 -0.584638
O7    O     O_R   0.414320 0.493440 0.402120 -0.590425
O8    O     O_R   0.585680 0.506560 0.597880 -0.590413
O9    O     O_2   0.850188 0.681013 0.515461 -0.547088
O10   O     O_2   0.149788 0.319158 0.484481 -0.547013
O11   O     O_2   0.847599 0.319101 0.479358 -0.547363
O12   O     O_2   0.152415 0.681102 0.520948 -0.547388
C49   C     C_3   0.939320 0.203773 0.422608 -0.756078
H5    H     H_    0.916985 0.175144 0.492422 0.257623
H6    H     H_    0.909092 0.211360 0.348062 0.251634
H7    H     H_    0.969331 0.143117 0.385436 0.209625
C50   C     C_3   0.060710 0.796423 0.577972 -0.756114
H8    H     H_    0.083024 0.825139 0.508185 0.257618
H9    H     H_    0.030709 0.857048 0.615267 0.209619
H10   H     H_    0.090960 0.788750 0.652454 0.251625
H11   H     H_    0.573556 0.637980 0.810894 0.126739
H12   H     H_    0.426444 0.362019 0.189106 0.126774
C51   C     C_3   0.404827 0.319915 0.954739 -0.917307
H13   H     H_    0.427575 0.261817 0.893016 0.239199
H14   H     H_    0.382135 0.276994 0.013159 0.234706
H15   H     H_    0.372523 0.359482 0.905489 0.238707
C52   C     C_3   0.595173 0.680084 0.045260 -0.917303
H16   H     H_    0.572426 0.738183 0.106983 0.239206
H17   H     H_    0.627478 0.640517 0.094510 0.238727
H18   H     H_    0.617866 0.723004 0.986840 0.234690
C53   C     C_3   0.056854 0.212801 0.524496 -0.758359
H19   H     H_    0.026131 0.158517 0.552604 0.209031
H20   H     H_    0.078260 0.170497 0.448124 0.257727
H21   H     H_    0.087704 0.234015 0.600839 0.251059
C54   C     C_3   0.943176 0.787532 0.476107 -0.758189
H22   H     H_    0.973910 0.841915 0.448198 0.208976
H23   H     H_    0.912376 0.766439 0.399665 0.251154
H24   H     H_    0.921722 0.829704 0.552490 0.257653
C55   C     C_3   0.217802 0.515247 0.729400 -0.834170
H25   H     H_    0.231604 0.447986 0.770396 0.231410
H26   H     H_    0.232871 0.588818 0.787016 0.233304
H27   H     H_    0.170660 0.515184 0.723198 0.233384
C56   C     C_3   0.782233 0.484205 0.270641 -0.834044
H28   H     H_    0.768366 0.551215 0.229270 0.231314
H29   H     H_    0.829377 0.484431 0.276900 0.233405
H30   H     H_    0.767235 0.410430 0.213329 0.233381
H31   H     H_    0.314300 0.487504 0.316557 0.165865
H32   H     H_    0.685679 0.513132 0.683534 0.165841
C57   C     C_3   0.199597 0.485302 0.287545 -0.830548
H33   H     H_    0.171684 0.414541 0.274392 0.245292
H34   H     H_    0.172836 0.555535 0.290136 0.246893
H35   H     H_    0.226350 0.479794 0.211394 0.221547
C58   C     C_3   0.800376 0.515480 0.712636 -0.830555
H36   H     H_    0.827133 0.445265 0.710337 0.246735
H37   H     H_    0.828299 0.586218 0.725561 0.245378
H38   H     H_    0.773604 0.521228 0.788787 0.221541
C59   C     C_3   0.421259 0.807803 0.377749 -0.795119
H39   H     H_    0.401750 0.749272 0.422996 0.221975
H40   H     H_    0.386711 0.863461 0.366999 0.230492
H41   H     H_    0.434254 0.766484 0.292012 0.241073
C60   C     C_3   0.578698 0.192147 0.622261 -0.795083
H42   H     H_    0.598262 0.250561 0.576931 0.221959
H43   H     H_    0.565696 0.233593 0.707937 0.241092
H44   H     H_    0.613206 0.136447 0.633155 0.230536
H45   H     H_    0.543394 0.835245 0.704273 0.166876
H46   H     H_    0.456547 0.164785 0.295764 0.166839
C61   C     C_3   0.455201 0.959371 0.230292 -0.854488
H47   H     H_    0.465282 0.007327 0.163871 0.227311
H48   H     H_    0.481497 0.888494 0.212034 0.236167
H49   H     H_    0.409192 0.939418 0.217065 0.235835
C62   C     C_3   0.544664 0.040657 0.769748 -0.854557
H50   H     H_    0.534449 0.992773 0.836150 0.227358
H51   H     H_    0.590690 0.060446 0.783105 0.235827
H52   H     H_    0.518440 0.111635 0.787891 0.236195

loop_
_geom_bond_atom_site_label_1
_geom_bond_atom_site_label_2
_ccdc_geom_bond_type
C38   O12   S    
C16   C21   A    
Cu1   O5    S    
C37   O11   S    
C45   C49   S    
Cu2   O6    S    
C41   C42   A    
C58   H36   S    
C31   H2    S    
C17   C61   S    
C55   H27   S    
C51   H13   S    
C39   C41   A    
C52   H16   S    
C40   C46   A    
C56   H28   S    
C17   C26   A    
C31   N4    A    
C5    H3    S    
C1    O1    A    
C2    O2    A    
C23   O5    A    
C52   H18   S    
C27   C29   A    
C9    H31   S    
C59   H39   S    
C30   N3    A    
Cu1   N3    S    
C54   H23   S    
C20   H45   S    
C55   H26   S    
C15   C22   A    
C59   H40   S    
C61   H49   S    
C57   H33   S    
C31   C33   A    
C53   H20   S    
C35   C43   A    
C43   C48   A    
C3    C13   A    
C44   C47   A    
C24   O8    A    
C39   C45   A    
C13   N2    S    
C45   C47   A    
C14   N1    S    
C24   O6    A    
C41   C43   A    
C18   C25   A    
C42   C44   A    
C32   N3    A    
C6    H4    S    
C50   H10   S    
C46   C50   S    
C51   H14   S    
C55   H25   S    
C60   H43   S    
C27   C34   A    
C15   C20   A    
C37   C39   A    
C46   C48   A    
C19   H46   S    
C48   C54   S    
C52   H17   S    
C35   N1    A    
Cu2   N4    S    
C27   C51   S    
C4    C6    A    
Cu1   O8    S    
C5    C7    A    
C17   C19   A    
C6    C8    A    
C25   C26   A    
C32   C34   A    
C50   H8    S    
C32   H1    S    
C36   N2    A    
C50   H9    S    
C3    C55   S    
C35   O9    S    
C59   H41   S    
C4    C56   S    
C33   C34   A    
C58   H37   S    
C1    C16   S    
C53   H21   S    
C2    C15   S    
C9    C11   A    
C10   C12   A    
C30   H11   S    
C22   C59   S    
C12   C14   A    
C28   C33   A    
C47   C53   S    
C56   H30   S    
C11   C57   S    
C61   H47   S    
C57   H35   S    
C10   H32   S    
C51   H15   S    
C49   H6    S    
C62   H50   S    
C56   H29   S    
C60   H44   S    
C7    C9    A    
C21   C25   A    
Cu1   O4    S    
C3    C5    A    
C1    O3    A    
C49   H7    S    
C60   H42   S    
C36   O10   S    
C54   H24   S    
C54   H22   S    
Cu1   O1    S    
Cu2   O2    S    
C62   H52   S    
C28   C30   A    
C49   H5    S    
C21   C60   S    
C38   C40   A    
C11   C13   A    
C23   O7    A    
C57   H34   S    
C29   H12   S    
C16   C19   A    
C7    C23   S    
C40   C42   A    
C8    C24   S    
C58   H38   S    
C18   C20   A    
C4    C14   A    
Cu2   O7    S    
C36   C44   A    
C37   N1    A    
C38   N2    A    
C29   N4    A    
C8    C10   A    
Cu1   Cu2   S    
C22   C26   A    
C28   C52   S    
C61   H48   S    
Cu2   O3    S    
C18   C62   S    
C53   H19   S    
C12   C58   S    
C2    O4    A    
C62   H51   S    
