data_mof_unit_45809.cif
_audit_creation_date              2012-12-11T14:17:44-0500
_audit_creation_method            fapswitch 2.2
_symmetry_space_group_name_H-M    P1
_symmetry_Int_Tables_number       1
_space_group_crystal_system       triclinic
_cell_length_a                    6.950719
_cell_length_b                    13.693307
_cell_length_c                    20.459354
_cell_angle_alpha                 102.407589
_cell_angle_beta                  90.340473
_cell_angle_gamma                 90.652575
_cell_volume                      1901.61242901

loop_
_atom_site_label
_atom_site_type_symbol
_atom_type_description
_atom_site_fract_x
_atom_site_fract_y
_atom_site_fract_z
_atom_type_partial_charge
O1    O     O_R   0.506860 0.599390 0.449240 -0.541561
O2    O     O_R   0.180220 0.594600 0.586780 -0.543681
O3    O     O_R   0.004500 0.400610 0.550760 -0.539132
C1    C     C_R   0.349643 0.614728 0.613820 0.755996
O4    O     O_R   0.177490 0.611290 0.451970 -0.543755
O5    O     O_R   0.001750 0.417420 0.414990 -0.539409
C2    C     C_R   0.346535 0.637294 0.435436 0.694222
O6    O     O_R   0.509610 0.582580 0.585010 -0.542063
O7    O     O_3   0.337420 0.436370 0.488020 -0.373092
V1    V     V_3+5 0.064680 0.511800 0.502220 1.427736
O8    O     O_R   0.671710 0.405400 0.413220 -0.545981
C3    C     C_R   0.839179 0.385337 0.386124 0.740972
O9    O     O_R   0.674440 0.388710 0.548030 -0.541598
C4    C     C_R   0.842838 0.362964 0.565405 0.698924
V2    V     V_3+5 0.564010 0.488200 0.497780 1.426624
O10   O     O_3   0.841140 0.563630 0.511980 -0.373825
C5    C     C_R   0.858722 0.112564 0.612182 -0.159117
H1    H     H_    0.852056 0.162880 0.519877 0.107546
H2    H     H_    0.867719 0.987045 0.694268 0.130132
H3    H     H_    0.861369 0.034519 0.586735 0.114411
C6    C     C_R   0.850341 0.286327 0.605425 -0.032078
C7    C     C_R   0.858516 0.314262 0.928897 -0.175021
C8    C     C_R   0.853493 0.390425 0.893730 -0.107192
C9    C     C_R   0.852550 0.368246 0.823980 -0.149140
C10   C     C_R   0.856551 0.268003 0.787207 0.071843
C11   C     C_R   0.861267 0.190108 0.823733 0.064793
C12   C     C_R   0.856116 0.242473 0.715574 0.073653
C13   C     C_R   0.859915 0.139949 0.682396 0.139226
C14   C     C_R   0.864640 0.065274 0.719329 -0.200551
C15   C     C_R   0.865413 0.089733 0.788781 -0.195771
C16   C     C_R   0.851798 0.314875 0.675414 -0.212263
C17   C     C_R   0.853583 0.185317 0.573992 -0.172184
C18   C     C_R   0.862258 0.214353 0.894746 -0.071717
H4    H     H_    0.848786 0.393974 0.696659 0.101142
H5    H     H_    0.859698 0.333294 0.983127 0.102515
H6    H     H_    0.848726 0.431472 0.800548 0.126181
H7    H     H_    0.850573 0.467591 0.920782 0.135377
H8    H     H_    0.869206 0.028884 0.814913 0.136171
C19   C     C_2   0.999652 0.304472 0.280168 -0.120463
C20   C     C_2   0.840651 0.319531 0.318457 -0.310034
H9    H     H_    0.133367 0.341580 0.299746 0.137135
H10   H     H_    0.704023 0.285670 0.299871 0.138734
C21   C     C_2   0.007696 0.240134 0.211276 -0.121228
C22   C     C_2   0.859097 0.185225 0.179761 -0.282780
H11   H     H_    0.144600 0.238146 0.185901 0.157131
H12   H     H_    0.719712 0.189617 0.203050 0.157625
C23   C     C_2   0.203147 0.765346 0.789056 0.171696
C24   C     C_2   0.357100 0.819434 0.818400 -0.313132
H13   H     H_    0.489165 0.819195 0.790516 0.134047
C25   C     C_2   0.204037 0.706844 0.718657 -0.151844
C26   C     C_2   0.362584 0.678347 0.682070 -0.343417
H14   H     H_    0.064033 0.682291 0.697009 0.162114
H15   H     H_    0.505255 0.697051 0.703009 0.148071
C27   C     C_R   0.378236 0.888390 0.393392 -0.145683
H16   H     H_    0.374042 0.835114 0.484408 0.103495
H17   H     H_    0.387617 0.015521 0.315821 0.148437
H18   H     H_    0.388272 0.965900 0.419861 0.114992
C28   C     C_R   0.356660 0.714665 0.397158 -0.026783
C29   C     C_R   0.346103 0.691832 0.075442 -0.162515
C30   C     C_R   0.338869 0.615908 0.110338 -0.117566
C31   C     C_R   0.343388 0.638101 0.179775 -0.143266
C32   C     C_R   0.354784 0.738238 0.216817 0.058439
C33   C     C_R   0.361602 0.817621 0.180991 0.025704
C34   C     C_R   0.359659 0.761456 0.288438 0.071716
C35   C     C_R   0.372626 0.862692 0.323184 0.104992
C36   C     C_R   0.378805 0.938482 0.288225 -0.199662
C37   C     C_R   0.372379 0.918259 0.218838 0.086897
C38   C     C_R   0.351657 0.687804 0.327331 -0.205592
C39   C     C_R   0.370184 0.814533 0.430222 -0.173744
C40   C     C_R   0.357594 0.791845 0.109350 -0.073522
H19   H     H_    0.340655 0.609024 0.305537 0.089675
H20   H     H_    0.343057 0.672357 0.021189 0.114041
H21   H     H_    0.338035 0.574418 0.202681 0.104686
H22   H     H_    0.330157 0.538778 0.083259 0.119456
O11   O     O_R   0.203230 0.917310 0.915020 -0.523695
O12   O     O_R   0.535500 0.888690 0.048040 -0.534728
O13   O     O_R   0.711080 0.082610 0.085000 -0.531913
C41   C     C_R   0.366987 0.865277 0.067131 0.751287
O14   O     O_R   0.532630 0.905370 0.913230 -0.535883
O15   O     O_R   0.708190 0.099410 0.949230 -0.544026
C42   C     C_R   0.362825 0.883026 0.886875 0.773727
O16   O     O_R   0.206120 0.900510 0.050790 -0.529158
O17   O     O_3   0.375360 0.063570 0.011990 -0.370348
V3    V     V_3+5 0.648170 0.988200 0.997780 1.502494
O18   O     O_R   0.038240 0.111390 0.951940 -0.545629
C43   C     C_R   0.869833 0.136967 0.934502 0.672064
O19   O     O_R   0.041120 0.094710 0.086750 -0.531241
C44   C     C_R   0.872757 0.117427 0.112934 0.771664
V4    V     V_3+5 0.148810 0.011930 0.002180 1.498018
O20   O     O_3   0.871750 0.936430 0.988010 -0.353722
I1    I     I_    0.938266 0.753635 0.838913 -0.463637
I2    I     I_    0.377078 0.053379 0.184801 -0.451459

loop_
_geom_bond_atom_site_label_1
_geom_bond_atom_site_label_2
_ccdc_geom_bond_type
O19   C44   A    
C40   C41   S    
O15   V3    S    
O12   V3    S    
C19   H9    S    
C27   C35   A    
O18   C43   A    
C7    H5    S    
C6    C16   A    
C9    H6    S    
O16   V4    S    
C34   C38   A    
C4    C6    S    
C13   C14   A    
O12   C41   A    
O5    C3    A    
O14   V3    S    
V2    O10   S    
C5    H3    S    
C24   C42   S    
C15   H8    S    
C32   C34   A    
O8    V2    S    
O17   V3    S    
O13   C44   A    
C25   H14   S    
C8    C9    A    
O1    V2    S    
O7    V1    S    
C2    C28   S    
C1    O6    A    
C29   H20   S    
C20   H10   S    
C36   C37   A    
C29   C30   A    
O9    C4    A    
V3    O20   S    
C22   H12   S    
C23   C25   S    
O17   V4    S    
C6    C17   A    
C33   C37   A    
C1    C26   S    
C12   C16   A    
C9    C10   A    
C19   C20   D    
O4    C2    A    
O18   V4    S    
O11   C42   A    
C19   C21   S    
O13   V3    S    
C31   H21   S    
C10   C11   A    
C8    H7    S    
C30   C31   A    
C26   H15   S    
C3    C20   S    
O2    C1    A    
C21   C22   D    
C14   C15   A    
C41   O16   A    
C11   C18   A    
C23   C24   D    
C33   C40   A    
C32   C33   A    
C25   C26   D    
C16   H4    S    
C21   H11   S    
H16   C39   S    
O3    C4    A    
C28   C38   A    
C24   H13   S    
C11   C15   A    
O6    V2    S    
O19   V4    S    
H1    C17   S    
O2    V1    S    
O14   C42   A    
C7    C18   A    
O1    C2    A    
C5    C13   A    
C23   I1    S    
O5    V1    S    
O8    C3    A    
C28   C39   A    
C10   C12   A    
O15   C43   A    
C34   C35   A    
O9    V2    S    
O7    V2    S    
O4    V1    S    
O3    V1    S    
V1    O10   S    
C27   C39   A    
C38   H19   S    
H17   C36   S    
C30   H22   S    
C37   I2    S    
C31   C32   A    
O11   V4    S    
C29   C40   A    
C35   C36   A    
C12   C13   A    
C5    C17   A    
C7    C8    A    
V4    O20   S    
C22   C44   S    
C18   C43   S    
C27   H18   S    
H2    C14   S    
