data_mof_unit_32504.cif
_audit_creation_date              2012-12-10T17:26:17-0500
_audit_creation_method            fapswitch 2.2
_symmetry_space_group_name_H-M    P1
_symmetry_Int_Tables_number       1
_space_group_crystal_system       triclinic
_cell_length_a                    10.205277
_cell_length_b                    10.703229
_cell_length_c                    27.701012
_cell_angle_alpha                 91.305831
_cell_angle_beta                  81.363766
_cell_angle_gamma                 95.897508
_cell_volume                      2975.54182876

loop_
_atom_site_label
_atom_site_type_symbol
_atom_type_description
_atom_site_fract_x
_atom_site_fract_y
_atom_site_fract_z
_atom_type_partial_charge
C1    C     C_R   0.556080 0.732883 0.494939 0.952076
C2    C     C_R   0.570479 0.605009 0.124412 -0.021403
C3    C     C_R   0.501446 0.500776 0.646030 -0.031157
C4    C     C_R   0.500008 0.502347 0.353425 -0.044801
C5    C     C_R   0.567271 0.612299 0.022694 0.044236
C6    C     C_R   0.425944 0.411214 0.977094 0.043945
C7    C     C_R   0.416738 0.415367 0.028584 0.047688
C8    C     C_R   0.562208 0.616403 0.971960 0.044639
C9    C     C_R   0.491566 0.513436 0.050911 0.068612
C10   C     C_R   0.495594 0.513538 0.949193 0.068986
C11   C     C_R   0.647221 0.702931 0.046249 -0.218543
C12   C     C_R   0.443966 0.266969 0.501629 0.947857
C13   C     C_R   0.369402 0.307010 0.952303 -0.219687
C14   C     C_R   0.648627 0.699099 0.096163 -0.142664
C15   C     C_R   0.375977 0.306032 0.901957 -0.144873
C16   C     C_R   0.500220 0.499760 0.593678 0.881258
C17   C     C_R   0.499927 0.500609 0.406145 0.871469
C18   C     C_R   0.621223 0.720347 0.943023 -0.220343
C19   C     C_R   0.334676 0.324720 0.058744 -0.221226
C20   C     C_2   0.587431 0.865445 0.485611 -0.370013
C21   C     C_2   0.412806 0.133295 0.497303 -0.355010
C22   C     C_2   0.487930 0.931786 0.479051 -0.150999
C23   C     C_R   0.498932 0.512845 0.897921 -0.052861
C24   C     C_2   0.509523 0.065591 0.477037 -0.156352
C25   C     C_2   0.926129 0.507300 0.506252 -0.047042
C26   C     C_2   0.067328 0.476933 0.501887 -0.052388
C27   C     C_R   0.563993 0.613680 0.819388 0.480260
C28   C     C_R   0.413948 0.417896 0.181112 0.466615
C29   C     C_R   0.444542 0.409451 0.823809 0.520875
C30   C     C_R   0.570782 0.600449 0.174785 0.521216
C31   C     C_R   0.594327 0.433905 0.715608 0.041467
C32   C     C_R   0.609350 0.464333 0.271006 0.047368
C33   C     C_R   0.588079 0.429506 0.665635 -0.283114
C34   C     C_R   0.491182 0.512248 0.102014 -0.051357
C35   C     C_R   0.609225 0.464649 0.321438 -0.261498
C36   C     C_R   0.418077 0.574839 0.676475 -0.221946
C37   C     C_R   0.391313 0.542377 0.334727 -0.236800
C38   C     C_R   0.422795 0.579213 0.726244 -0.125667
C39   C     C_R   0.390009 0.541648 0.284792 -0.118442
C40   C     C_R   0.510395 0.509513 0.745928 0.284521
C41   C     C_R   0.497824 0.502648 0.252897 0.288649
C42   C     C_R   0.099428 0.355318 0.479416 0.220575
C43   C     C_R   0.063029 0.244597 0.506529 -0.144395
C44   C     C_R   0.078172 0.127562 0.484054 -0.191305
C45   C     C_R   0.562024 0.616341 0.869973 -0.012781
C46   C     C_R   0.130116 0.120399 0.434532 -0.113738
C47   C     C_R   0.163952 0.230162 0.407147 -0.150558
C48   C     C_R   0.146233 0.347095 0.429313 -0.134418
C49   C     C_R   0.882569 0.602304 0.543211 0.228073
C50   C     C_R   0.863542 0.571933 0.593008 -0.146566
C51   C     C_R   0.834204 0.663954 0.628536 -0.135370
C52   C     C_R   0.827401 0.787515 0.614634 -0.106272
C53   C     C_R   0.852871 0.819750 0.565264 -0.186900
C54   C     C_R   0.883070 0.728020 0.529692 -0.146120
C55   C     C_R   0.726965 0.425760 0.238056 0.115637
C56   C     C_R   0.411831 0.418034 0.130797 -0.011799
C57   C     C_R   0.854538 0.486096 0.241148 -0.121297
C58   C     C_R   0.965675 0.451047 0.209843 -0.111807
C59   C     C_R   0.950443 0.355393 0.175364 -0.083629
C60   C     C_R   0.824270 0.293982 0.172373 -0.138037
C61   C     C_R   0.712959 0.328479 0.203693 -0.157044
C62   C     C_R   0.687950 0.358841 0.735366 0.114604
C63   C     C_R   0.681729 0.228433 0.727205 -0.110581
C64   C     C_R   0.770060 0.157281 0.745770 -0.138955
C65   C     C_R   0.865593 0.215775 0.772336 -0.096461
C66   C     C_R   0.873283 0.345582 0.780215 -0.123571
C67   C     C_R   0.621013 0.720049 0.892975 -0.146927
C68   C     C_R   0.785169 0.417063 0.761703 -0.183621
C69   C     C_R   0.332682 0.326114 0.108891 -0.166009
C70   C     C_R   0.439086 0.408675 0.874503 -0.021279
H1    H     H_    0.350663 0.630377 0.661706 0.159862
H2    H     H_    0.269264 0.253914 0.130413 0.182790
H3    H     H_    0.693891 0.433971 0.335624 0.163608
H4    H     H_    0.651391 0.371099 0.641974 0.150968
H5    H     H_    0.711906 0.770333 0.112504 0.186158
H6    H     H_    0.331236 0.224001 0.884625 0.186826
H7    H     H_    0.713206 0.776386 0.026937 0.141067
H8    H     H_    0.322284 0.222764 0.970617 0.142064
H9    H     H_    0.665971 0.805089 0.958082 0.142145
H10   H     H_    0.268336 0.252559 0.044852 0.140513
H11   H     H_    0.609133 0.108090 0.463090 0.189741
H12   H     H_    0.307997 0.575864 0.358544 0.152350
H13   H     H_    0.386108 0.889007 0.479993 0.185354
H14   H     H_    0.021507 0.249049 0.544814 0.120498
H15   H     H_    0.050523 0.042444 0.505077 0.128431
H16   H     H_    0.142790 0.029791 0.417296 0.133567
H17   H     H_    0.201457 0.224558 0.368560 0.155340
H18   H     H_    0.165225 0.430788 0.407297 0.128544
H19   H     H_    0.871286 0.476994 0.604186 0.121092
H20   H     H_    0.817451 0.639608 0.666837 0.153880
H21   H     H_    0.804464 0.858638 0.642143 0.137294
H22   H     H_    0.850272 0.915997 0.554603 0.128772
H23   H     H_    0.314615 0.089623 0.511960 0.157970
H24   H     H_    0.906295 0.754723 0.491642 0.125367
H25   H     H_    0.867674 0.561115 0.267429 0.136773
H26   H     H_    0.063577 0.498224 0.212231 0.140870
H27   H     H_    0.036383 0.328614 0.151060 0.133622
H28   H     H_    0.812749 0.219284 0.145880 0.139226
H29   H     H_    0.616370 0.278501 0.201428 0.160420
H30   H     H_    0.607801 0.181833 0.706857 0.139779
H31   H     H_    0.764402 0.056776 0.739573 0.148076
H32   H     H_    0.933948 0.160597 0.786664 0.140067
H33   H     H_    0.947924 0.390919 0.800499 0.144572
H34   H     H_    0.688800 0.908937 0.484863 0.146831
H35   H     H_    0.793887 0.517747 0.767397 0.156544
H36   H     H_    0.131685 0.635910 0.534706 0.165398
H37   H     H_    0.876765 0.384235 0.454344 0.164012
H38   H     H_    0.357557 0.636030 0.749781 0.144225
H39   H     H_    0.305674 0.572926 0.270626 0.135141
H40   H     H_    0.667911 0.801687 0.872333 0.186518
N1    N     N_R   0.507191 0.510581 0.797540 -0.350907
N2    N     N_R   0.494554 0.506875 0.201704 -0.353656
N3    N     N_2   0.842700 0.448890 0.480020 -0.219324
N4    N     N_2   0.157300 0.551110 0.519980 -0.218480
O1    O     O_R   0.431060 0.692470 0.504020 -0.618102
O2    O     O_2   0.337872 0.328640 0.209258 -0.581201
O3    O     O_2   0.646181 0.688672 0.196840 -0.567531
O4    O     O_2   0.387136 0.310532 0.800833 -0.572975
O5    O     O_R   0.568940 0.307530 0.495980 -0.616479
O6    O     O_R   0.651120 0.659650 0.491200 -0.605795
O7    O     O_R   0.348880 0.340350 0.508800 -0.594686
O8    O     O_R   0.389980 0.516390 0.577660 -0.613246
O9    O     O_R   0.610020 0.483610 0.422340 -0.619911
O10   O     O_R   0.610040 0.483570 0.564830 -0.607124
O11   O     O_R   0.389960 0.516430 0.435170 -0.624072
O12   O     O_2   0.623211 0.712439 0.792075 -0.590979
Zn1   Zn    Zn3+2 0.353060 0.521910 0.508560 0.942929
Zn2   Zn    Zn3+2 0.646940 0.478090 0.491440 0.942264

loop_
_geom_bond_atom_site_label_1
_geom_bond_atom_site_label_2
_ccdc_geom_bond_type
C66   C68   A    
C34   C56   A    
C23   C45   A    
C23   C70   A    
C43   C44   A    
C17   O11   A    
C28   C56   A    
C39   C41   A    
N3    Zn2   S    
C53   C54   A    
C28   N2    A    
C6    C13   A    
C62   C63   A    
H36   N4    S    
C67   H40   S    
O7    Zn1   S    
C60   H28   S    
C51   H20   S    
C27   O12   S    
C3    C33   A    
C49   C54   A    
O1    Zn1   S    
C31   C40   A    
O8    Zn1   S    
C16   O8    A    
H37   N3    S    
C58   H26   S    
C28   O2    S    
C46   C47   A    
C17   O9    A    
C12   O7    A    
C18   H9    S    
C41   N2    S    
C45   C67   A    
C32   C41   A    
C48   H18   S    
C11   H7    S    
C32   C55   S    
C36   H1    S    
O10   Zn2   S    
O5    Zn2   S    
C27   C45   A    
C15   H6    S    
C4    C35   A    
C27   N1    A    
C59   C60   A    
C38   H38   S    
C43   H14   S    
C31   C62   S    
C61   H29   S    
C65   H32   S    
C44   C46   A    
C40   N1    S    
C64   H31   S    
C51   C52   A    
C32   C35   A    
C56   C69   A    
C25   C26   S    
C12   C21   S    
C8    C18   A    
C30   N2    A    
C60   C61   A    
C1    O6    A    
C47   H17   S    
C69   H2    S    
C24   H11   S    
C26   N4    D    
C5    C9    A    
C63   H30   S    
C25   N3    D    
C12   O5    A    
C50   H19   S    
C47   C48   A    
C53   H22   S    
C31   C33   A    
C50   C51   A    
C42   C48   A    
C4    C17   S    
C20   C22   D    
C65   C66   A    
C7    C19   A    
C55   C57   A    
C57   H25   S    
C9    C34   A    
C59   H27   S    
C22   C24   S    
C37   H12   S    
C58   C59   A    
C42   C43   A    
C44   H15   S    
C52   C53   A    
C26   C42   S    
C29   C70   A    
C7    C9    A    
C15   C70   A    
C13   H8    S    
C35   H3    S    
C1    C20   S    
C66   H33   S    
C29   N1    A    
C6    C10   A    
C5    C8    A    
O6    Zn2   S    
C5    C11   A    
C6    C7    A    
C20   H34   S    
C30   O3    S    
C10   C23   A    
C29   O4    S    
C62   C68   A    
C2    C30   A    
C14   H5    S    
C13   C15   A    
C18   C67   A    
C37   C39   A    
C64   C65   A    
C22   H13   S    
C38   C40   A    
N4    Zn1   S    
C2    C34   A    
C57   C58   A    
C21   H23   S    
C3    C36   A    
C55   C61   A    
C36   C38   A    
C11   C14   A    
C16   O10   A    
C19   H10   S    
C2    C14   A    
C25   C49   S    
C54   H24   S    
C19   C69   A    
C63   C64   A    
C33   H4    S    
C39   H39   S    
C4    C37   A    
C8    C10   A    
C49   C50   A    
C68   H35   S    
C21   C24   D    
O9    Zn2   S    
O11   Zn1   S    
C52   H21   S    
C1    O1    A    
C3    C16   S    
C46   H16   S    
