data_mof_unit_46449.cif
_audit_creation_date              2012-12-10T16:32:38-0500
_audit_creation_method            fapswitch 2.2
_symmetry_space_group_name_H-M    P1
_symmetry_Int_Tables_number       1
_space_group_crystal_system       triclinic
_cell_length_a                    16.91506
_cell_length_b                    16.904088
_cell_length_c                    16.893143
_cell_angle_alpha                 65.350759
_cell_angle_beta                  65.333596
_cell_angle_gamma                 65.315258
_cell_volume                      3812.15708154

loop_
_atom_site_label
_atom_site_type_symbol
_atom_type_description
_atom_site_fract_x
_atom_site_fract_y
_atom_site_fract_z
_atom_type_partial_charge
Br1   Br    Br    0.715080 0.142277 0.715453 -0.469185
Br2   Br    Br    0.284920 0.857723 0.284547 -0.469185
Br3   Br    Br    0.142219 0.715155 0.715426 -0.463523
Br4   Br    Br    0.857781 0.284844 0.284574 -0.463523
Br5   Br    Br    0.715100 0.715364 0.142346 -0.474437
Br6   Br    Br    0.284900 0.284636 0.857654 -0.474437
C1    C     C_R   0.591142 0.034053 0.590323 0.069366
C2    C     C_R   0.821178 0.563352 0.035993 0.930056
C3    C     C_R   0.436573 0.964238 0.178864 0.929879
C4    C     C_R   0.563426 0.035762 0.821136 0.929878
C5    C     C_R   0.563473 0.821148 0.035695 0.930115
C6    C     C_R   0.436527 0.178852 0.964305 0.930116
C7    C     C_R   0.035781 0.563417 0.821120 0.929839
C8    C     C_R   0.964219 0.436583 0.178880 0.929839
C9    C     C_R   0.821161 0.036015 0.563341 0.930050
C10   C     C_R   0.178839 0.963985 0.436659 0.930050
C11   C     C_R   0.544626 0.016408 0.543966 0.125852
C12   C     C_R   0.408858 0.965947 0.409677 0.069367
C13   C     C_R   0.455374 0.983592 0.456034 0.125853
C14   C     C_R   0.016429 0.544563 0.544006 0.125232
C15   C     C_R   0.983571 0.455437 0.455994 0.125232
C16   C     C_R   0.544611 0.544073 0.016295 0.123325
C17   C     C_R   0.455389 0.455927 0.983705 0.123325
C18   C     C_R   0.592640 0.955901 0.490654 -0.176630
C19   C     C_R   0.407360 0.044098 0.509346 -0.176630
C20   C     C_R   0.060256 0.451349 0.552656 -0.164114
C21   C     C_R   0.939744 0.548651 0.447343 -0.164114
C22   C     C_R   0.451379 0.553020 0.059981 -0.160403
C23   C     C_R   0.034138 0.591044 0.590334 0.069554
C24   C     C_R   0.548621 0.446980 0.940019 -0.160403
C25   C     C_R   0.548598 0.939855 0.447159 -0.162120
C26   C     C_R   0.451402 0.060145 0.552841 -0.162120
C27   C     C_R   0.407359 0.509424 0.044050 -0.175001
C28   C     C_R   0.592641 0.490576 0.955950 -0.175000
C29   C     C_R   0.044191 0.407363 0.509108 -0.178960
C30   C     C_R   0.955809 0.592637 0.490892 -0.178960
C31   C     C_R   0.549644 0.038579 0.679845 -0.232033
C32   C     C_R   0.450356 0.961421 0.320154 -0.232033
C33   C     C_R   0.039003 0.680350 0.549043 -0.225172
C34   C     C_R   0.965862 0.408956 0.409666 0.069553
C35   C     C_R   0.960997 0.319650 0.450957 -0.225172
C36   C     C_R   0.680453 0.549177 0.038760 -0.222642
C37   C     C_R   0.319547 0.450823 0.961240 -0.222642
C38   C     C_R   0.319544 0.961178 0.450913 -0.224096
C39   C     C_R   0.680456 0.038822 0.549087 -0.224096
C40   C     C_R   0.450310 0.320037 0.961626 -0.231145
C41   C     C_R   0.549690 0.679962 0.038374 -0.231145
C42   C     C_R   0.961395 0.450435 0.320143 -0.233750
C43   C     C_R   0.038604 0.549565 0.679857 -0.233750
C44   C     C_R   0.594581 0.054895 0.723370 -0.114191
C45   C     C_R   0.591148 0.590446 0.033905 0.069445
C46   C     C_R   0.405419 0.945105 0.276630 -0.114191
C47   C     C_R   0.055090 0.723518 0.594449 -0.115382
C48   C     C_R   0.944910 0.276482 0.405551 -0.115382
C49   C     C_R   0.723583 0.594546 0.054916 -0.115067
C50   C     C_R   0.276417 0.405454 0.945084 -0.115067
C51   C     C_R   0.276430 0.945048 0.405487 -0.115102
C52   C     C_R   0.723570 0.054952 0.594513 -0.115102
C53   C     C_R   0.405356 0.276577 0.945247 -0.113865
C54   C     C_R   0.594644 0.723423 0.054753 -0.113865
C55   C     C_R   0.945083 0.405449 0.276641 -0.114043
C56   C     C_R   0.408852 0.409554 0.966095 0.069445
C57   C     C_R   0.054917 0.594550 0.723359 -0.114043
C58   C     C_R   0.674863 0.077481 0.674900 0.211500
C59   C     C_R   0.325137 0.922519 0.325100 0.211500
C60   C     C_R   0.077533 0.674849 0.674862 0.211336
C61   C     C_R   0.922467 0.325151 0.325138 0.211336
C62   C     C_R   0.674899 0.674911 0.077425 0.211561
C63   C     C_R   0.325101 0.325089 0.922575 0.211561
C64   C     C_R   0.963914 0.178850 0.436707 0.929805
C65   C     C_R   0.036086 0.821150 0.563293 0.929805
C66   C     C_R   0.178822 0.436648 0.964007 0.930056
H1    H     H_    0.412739 0.107993 0.592406 0.148339
H2    H     H_    0.412691 0.592710 0.107718 0.150486
H3    H     H_    0.891817 0.587333 0.407924 0.148639
H4    H     H_    0.108182 0.412667 0.592076 0.148638
H5    H     H_    0.484654 0.024692 0.716829 0.174061
H6    H     H_    0.515346 0.975307 0.283171 0.174061
H7    H     H_    0.028207 0.716893 0.482629 0.172315
H8    H     H_    0.971793 0.283107 0.517371 0.172315
H9    H     H_    0.717013 0.482782 0.027961 0.173166
H10   H     H_    0.282987 0.517218 0.972039 0.173166
H11   H     H_    0.282969 0.972032 0.517315 0.172674
H12   H     H_    0.587261 0.892007 0.407594 0.148339
H13   H     H_    0.717031 0.027968 0.482685 0.172674
H14   H     H_    0.515291 0.283026 0.975565 0.174244
H15   H     H_    0.484709 0.716974 0.024435 0.174244
H16   H     H_    0.975322 0.515435 0.283150 0.173130
H17   H     H_    0.024678 0.484565 0.716850 0.173130
H18   H     H_    0.919448 0.664035 0.484162 0.134458
H19   H     H_    0.080552 0.335965 0.515838 0.134458
H20   H     H_    0.664046 0.483576 0.919677 0.137401
H21   H     H_    0.335954 0.516424 0.080323 0.137401
H22   H     H_    0.335962 0.080406 0.516265 0.134088
H23   H     H_    0.664038 0.919594 0.483735 0.134088
H24   H     H_    0.587309 0.407290 0.892282 0.150486
O1    O     O_R   0.982940 0.138950 0.510160 -0.639580
O2    O     O_R   0.982940 0.510160 0.138950 -0.638135
O3    O     O_R   0.861050 0.017060 0.489840 -0.639402
O4    O     O_R   0.138950 0.982940 0.510160 -0.639402
O5    O     O_R   0.867700 0.025880 0.612340 -0.583001
O6    O     O_R   0.132300 0.974120 0.387660 -0.583001
O7    O     O_R   0.025880 0.612340 0.867700 -0.583226
O8    O     O_R   0.974120 0.387660 0.132300 -0.583226
O9    O     O_R   0.612340 0.867700 0.025880 -0.583486
O10   O     O_R   0.387660 0.132300 0.974120 -0.583487
O11   O     O_R   0.387660 0.974120 0.132300 -0.583565
O12   O     O_R   0.017060 0.861050 0.489840 -0.639580
O13   O     O_R   0.612340 0.025880 0.867700 -0.583565
O14   O     O_R   0.132300 0.387660 0.974120 -0.583314
O15   O     O_R   0.867700 0.612340 0.025880 -0.583314
O16   O     O_R   0.974120 0.132300 0.387660 -0.583073
O17   O     O_R   0.025880 0.867700 0.612340 -0.583073
O18   O     O_R   0.138950 0.510160 0.982940 -0.638329
O19   O     O_R   0.861050 0.489840 0.017060 -0.638328
O20   O     O_R   0.510160 0.982940 0.138950 -0.636958
O21   O     O_R   0.489840 0.017060 0.861050 -0.636959
O22   O     O_R   0.489840 0.861050 0.017060 -0.636821
O23   O     O_R   0.510160 0.138950 0.982940 -0.636821
O24   O     O_R   0.017060 0.489840 0.861050 -0.638135
Zn1   Zn    Zn3+2 0.004880 0.004880 0.583590 1.038492
Zn2   Zn    Zn3+2 0.995120 0.995120 0.416410 1.038492
Zn3   Zn    Zn3+2 0.004880 0.583590 0.004880 1.039880
Zn4   Zn    Zn3+2 0.995120 0.416410 0.995120 1.039880
Zn5   Zn    Zn3+2 0.583590 0.004880 0.004880 1.041466
Zn6   Zn    Zn3+2 0.416410 0.995120 0.995120 1.041465

loop_
_geom_bond_atom_site_label_1
_geom_bond_atom_site_label_2
_ccdc_geom_bond_type
Br6   C63   S    
C43   C57   A    
C40   C53   A    
C44   C58   A    
C37   C50   A    
Br2   C59   S    
C13   C25   A    
C35   H8    S    
C49   C62   A    
O1    Zn1   S    
C4    C44   S    
C23   C43   A    
C3    C46   S    
C40   C56   A    
C1    C39   A    
O4    Zn1   S    
C32   C46   A    
C66   O18   A    
C65   O17   A    
C4    O13   A    
C12   C13   S    
C24   H24   S    
C2    O19   A    
O14   Zn4   S    
C41   C54   A    
C6    C53   S    
C17   C56   S    
C50   C66   S    
C7    C57   S    
C5    O9    A    
C20   H4    S    
C42   H16   S    
C7    O7    A    
O21   Zn6   S    
C64   O1    A    
C36   C45   A    
C38   H11   S    
C19   C26   A    
C15   C21   A    
C57   C60   A    
C22   H2    S    
C19   H22   S    
C16   C22   A    
C65   O12   A    
O13   Zn5   S    
O12   Zn2   S    
O7    Zn3   S    
C36   H9    S    
Br5   C62   S    
C21   H3    S    
C2    C49   S    
C8    O2    A    
C14   C23   S    
C52   C58   A    
O2    Zn3   S    
C16   C28   A    
C66   O14   A    
C39   C52   A    
C11   C18   A    
C24   C28   A    
O15   Zn3   S    
C17   C24   A    
C18   H23   S    
C43   H17   S    
C26   H1    S    
C10   O4    A    
C41   C45   A    
C48   C61   A    
C32   H6    S    
C17   C27   A    
C8    C55   S    
C31   H5    S    
O5    Zn1   S    
C25   H12   S    
C33   H7    S    
C39   H13   S    
O16   Zn2   S    
C12   C38   A    
C36   C49   A    
C6    O23   A    
C55   C61   A    
C8    O8    A    
C48   C64   S    
C38   C51   A    
C23   C33   A    
C1    C31   A    
C9    O5    A    
C47   C60   A    
C64   O16   A    
C53   C63   A    
O3    Zn2   S    
C15   C29   A    
O18   Zn3   S    
O23   Zn5   S    
C10   O6    A    
C34   C35   A    
C22   C27   A    
O20   Zn5   S    
C9    C52   S    
C2    O15   A    
Br3   C60   S    
C5    C54   S    
C47   C65   S    
Br1   C58   S    
C7    O24   A    
C30   H18   S    
C34   C42   A    
O19   Zn4   S    
C3    O20   A    
O11   Zn6   S    
C51   C59   A    
C27   H21   S    
Br4   C61   S    
O8    Zn4   S    
C21   C30   A    
C3    O11   A    
O10   Zn6   S    
O9    Zn5   S    
C12   C32   A    
C18   C25   A    
C4    O21   A    
C6    O10   A    
C31   C44   A    
C42   C55   A    
C33   C47   A    
C15   C34   S    
C14   C20   A    
C10   C51   S    
C13   C19   A    
C28   H20   S    
C35   C48   A    
C14   C30   A    
O24   Zn4   S    
C20   C29   A    
O17   Zn1   S    
C54   C62   A    
C50   C63   A    
C9    O3    A    
C11   C26   A    
O22   Zn6   S    
O6    Zn2   S    
C5    O22   A    
C46   C59   A    
C37   H10   S    
C37   C56   A    
C41   H15   S    
C16   C45   S    
C40   H14   S    
C1    C11   S    
C29   H19   S    
