data_mof_unit_41635.cif
_audit_creation_date              2013-03-05T16:05:19-0500
_audit_creation_method            fapswitch 2.2
_symmetry_space_group_name_H-M    P1
_symmetry_Int_Tables_number       1
_space_group_crystal_system       triclinic
_cell_length_a                    10.788546
_cell_length_b                    9.524524
_cell_length_c                    15.929808
_cell_angle_alpha                 89.823483
_cell_angle_beta                  89.913137
_cell_angle_gamma                 89.89805
_cell_volume                      1636.86738526

loop_
_atom_site_label
_atom_site_type_symbol
_atom_site_description
_atom_site_fract_x
_atom_site_fract_y
_atom_site_fract_z
_atom_type_partial_charge
O1    O     O_R   0.319660 0.618740 0.500000 -0.553579
O2    O     O_R   0.319660 0.381260 0.500000 -0.556877
C1    C     C_R   0.262479 0.500086 0.500053 0.939145
O3    O     O_R   0.500020 0.618840 0.379440 -0.566269
O4    O     O_R   0.500020 0.381160 0.379440 -0.590014
C2    C     C_R   0.500625 0.500153 0.340320 0.853240
Cu1   Cu    Cu3+1 0.500020 0.640660 0.500000 1.038501
Cu2   Cu    Cu3+1 0.500020 0.359340 0.500000 1.040301
O5    O     O_R   0.680370 0.618830 0.500010 -0.575346
O6    O     O_R   0.680370 0.381170 0.500010 -0.574269
O7    O     O_R   0.500010 0.618730 0.620560 -0.581417
O8    O     O_R   0.500010 0.381270 0.620560 -0.552591
C3    C     C_R   0.737708 0.500111 0.500294 0.864202
C4    C     C_R   0.499649 0.499778 0.659627 0.845106
C5    C     C_3   0.375834 0.575126 0.049309 0.151282
C6    C     C_3   0.504529 0.339671 0.051077 0.144452
C7    C     C_3   0.482446 0.336158 0.951307 0.268230
C8    C     C_3   0.388957 0.599649 0.948972 0.247881
C9    C     C_1   0.498739 0.498938 0.748776 0.001352
C10   C     C_3   0.499685 0.499352 0.083599 -0.190818
C11   C     C_3   0.499213 0.496261 0.916213 -0.262409
C12   C     C_3   0.629484 0.557675 0.949660 0.176708
C13   C     C_3   0.618562 0.583177 0.048446 0.166238
C14   C     C_1   0.498523 0.497400 0.824068 0.192197
C15   C     C_1   0.500862 0.500072 0.175708 0.115346
C16   C     C_1   0.501078 0.500345 0.251032 -0.058009
C17   C     C_R   0.064807 0.419693 0.560477 0.270772
C18   C     C_R   0.064791 0.582647 0.441019 0.276549
C19   C     C_R   0.935575 0.421447 0.561388 0.069732
C20   C     C_R   0.935568 0.583007 0.441080 0.084455
C21   C     C_R   0.871518 0.500988 0.500705 -0.239299
C22   C     C_R   0.128627 0.500378 0.500335 -0.319095
C23   C     C_R   0.434099 0.074799 0.441433 0.030899
C24   C     C_R   0.434141 0.926039 0.441417 0.041405
H1    H     H_    0.380971 0.131048 0.394594 0.152803
H2    H     H_    0.381262 0.870433 0.394492 0.181935
N1    N     N_R   0.500030 0.852070 0.500020 -0.187321
N2    N     N_R   0.500030 0.147930 0.500020 -0.183556
C25   C     C_R   0.565877 0.925160 0.558617 0.035860
C26   C     C_R   0.565620 0.073859 0.558717 0.045854
H3    H     H_    0.618944 0.868905 0.605486 0.152760
H4    H     H_    0.617948 0.129245 0.605887 0.165548
I1    I     I_    0.211084 0.582561 0.880662 -0.029763
I2    I     I_    0.305439 0.242400 0.913954 0.025837
I3    I     I_    0.205420 0.467296 0.085700 -0.091434
I4    I     I_    0.395676 0.186597 0.122964 -0.105856
I5    I     I_    0.672295 0.231000 0.094127 -0.077295
I6    I     I_    0.307288 0.747359 0.129009 -0.013897
N3    N     N_R   0.565492 0.231112 0.910982 0.168416
O9    O     O_R   0.594126 0.242131 0.831854 -0.324856
O10   O     O_R   0.566675 0.103766 0.941031 -0.220254
N4    N     N_R   0.418544 0.746787 0.924108 0.159883
O11   O     O_R   0.430904 0.775326 0.844457 -0.301363
O12   O     O_R   0.390298 0.853035 0.971067 -0.240638
I7    I     I_    0.618705 0.803208 0.085449 -0.042770
I8    I     I_    0.792693 0.559224 0.117595 -0.115230
I9    I     I_    0.703667 0.737348 0.879401 -0.036689
I10   I     I_    0.789846 0.430556 0.913494 -0.056840
N5    N     N_R   0.131304 0.340663 0.622736 0.158523
O13   O     O_R   0.206111 0.403825 0.674202 -0.347065
O14   O     O_R   0.121114 0.204663 0.625776 -0.278582
N6    N     N_R   0.131346 0.660913 0.378459 0.149624
O15   O     O_R   0.125061 0.797318 0.377068 -0.313331
O16   O     O_R   0.203765 0.596359 0.325768 -0.358483
I11   I     I_    0.840437 0.318911 0.662372 -0.138615
I12   I     I_    0.840268 0.700549 0.346060 -0.131206

loop_
_geom_bond_atom_site_label_1
_geom_bond_atom_site_label_2
_geom_bond_distance
_ccdc_geom_bond_type
C12   I10   2.187419 S    
O4    Cu2   1.931073 S    
Cu1   O7    1.931181 S    
C13   I7    2.178769 S    
N6    O15   1.300962 A    
C17   C19   1.394346 A    
C24   N1    1.367225 A    
C1    C22   1.444062 S    
C5    C8    1.620632 S    
C23   N2    1.367447 A    
C10   C13   1.610767 S    
C6    C10   1.608940 S    
Cu2   O8    1.932461 S    
C12   I9    2.193647 S    
C18   C20   1.394129 A    
C9    C14   1.199430 T    
Cu1   N1    2.013581 S    
C7    I2    2.193403 S    
C8    N4    1.490150 S    
C13   I8    2.190398 S    
C19   C21   1.407697 A    
C17   C22   1.406357 A    
C17   N5    1.435454 S    
C11   C12   1.615047 S    
N2    C26   1.367072 A    
C18   C22   1.405920 A    
C2    C16   1.422347 S    
Cu2   N2    2.013579 S    
C5    I6    2.203521 S    
O3    Cu1   1.932346 S    
C19   I11   2.141011 S    
O4    C2    1.291719 A    
C20   I12   2.142842 S    
C6    I5    2.193224 S    
C26   H4    1.079996 S    
C23   H1    1.081675 S    
N4    O12   1.295906 A    
O2    C1    1.288009 A    
C24   H2    1.081452 S    
C20   C21   1.408997 A    
N1    C25   1.366883 A    
O7    C4    1.290962 A    
C7    C11   1.632793 S    
N5    O14   1.300935 A    
O3    C2    1.292505 A    
Cu1   Cu2   2.679439 S    
C10   C15   1.467390 S    
C5    I3    2.184225 S    
C7    N3    1.488421 S    
C8    C11   1.629121 S    
N5    O13   1.300829 A    
C23   C24   1.416866 A    
N4    O11   1.303485 A    
C25   H3    1.081674 S    
N3    O9    1.301326 A    
C11   C14   1.467889 S    
C6    I4    2.192685 S    
C25   C26   1.416285 A    
Cu1   O5    1.956425 S    
O5    C3    1.287922 A    
C12   C13   1.597153 S    
C6    C7    1.607904 S    
N6    O16   1.300947 A    
O1    Cu1   1.957360 S    
C15   C16   1.199909 T    
C8    I1    2.213968 S    
C4    C9    1.420142 S    
C3    C21   1.443680 S    
Cu2   O6    1.957161 S    
O2    Cu2   1.956621 S    
N3    O10   1.302615 A    
O8    C4    1.290599 A    
C5    C10   1.612743 S    
O1    C1    1.288496 A    
O6    C3    1.291734 A    
C18   N6    1.435111 S    
