data_mof_unit_34457.cif
_audit_creation_date              2012-10-26T19:45:59-0400
_audit_creation_method            fapswitch 2.2
_symmetry_space_group_name_H-M    P1
_symmetry_Int_Tables_number       1
_space_group_crystal_system       triclinic
_cell_length_a                    10.805057
_cell_length_b                    9.571001
_cell_length_c                    15.872373
_cell_angle_alpha                 90.1463
_cell_angle_beta                  90.9697
_cell_angle_gamma                 89.890049
_cell_volume                      1641.20149007

loop_
_atom_site_label
_atom_site_type_symbol
_atom_type_description
_atom_site_fract_x
_atom_site_fract_y
_atom_site_fract_z
_atom_type_partial_charge
C1    C     C_R   0.261978 0.500125 0.498020 0.543236
C2    C     C_R   0.936112 0.630162 0.469054 0.106719
C3    C     C_R   0.870852 0.502139 0.474268 0.025402
C4    C     C_R   0.127815 0.500706 0.488882 -0.042418
C5    C     C_R   0.429080 0.074016 0.443486 -0.040269
C6    C     C_R   0.429518 0.925821 0.443232 -0.040468
C7    C     C_R   0.500180 0.499856 0.340301 0.524617
C8    C     C_R   0.570429 0.925074 0.558022 0.271193
C9    C     C_R   0.572809 0.075145 0.556637 0.274277
C10   C     C_R   0.736996 0.500332 0.490556 0.547553
C11   C     C_R   0.500212 0.500092 0.659716 0.553744
C12   C     C_3   0.624708 0.441717 0.952141 -0.229267
C13   C     C_3   0.481810 0.652127 0.048842 0.027715
C14   C     C_3   0.391317 0.409701 0.047387 0.027012
C15   C     C_3   0.393712 0.407900 0.949258 -0.203276
C16   C     C_3   0.483430 0.651292 0.950654 -0.205583
C17   C     C_1   0.500361 0.500170 0.749359 -0.055227
C18   C     C_3   0.500981 0.500128 0.082814 0.104871
C19   C     C_3   0.500480 0.500386 0.917052 0.035059
C20   C     C_3   0.604008 0.859051 0.705441 -0.295536
C21   C     C_3   0.778279 0.132702 0.616758 -0.285260
C22   C     C_3   0.276946 0.195867 0.082393 -0.332881
C23   C     C_3   0.625170 0.440928 0.049665 -0.215503
C24   C     C_3   0.537961 0.893249 0.087898 -0.328837
C25   C     C_3   0.828637 0.248756 0.354907 -0.278067
C26   C     C_3   0.945935 0.874621 0.417345 -0.341114
C27   C     C_1   0.500531 0.500262 0.824908 -0.087833
C28   C     C_1   0.501300 0.499771 0.175155 -0.012997
C29   C     C_1   0.500923 0.499624 0.250687 -0.029811
C30   C     C_R   0.064457 0.375331 0.476031 -0.145692
C31   C     C_R   0.064321 0.627710 0.483024 -0.121342
C32   C     C_R   0.936485 0.375555 0.465300 0.093631
Cu1   Cu    Cu3+1 0.500020 0.640660 0.500000 0.953878
Cu2   Cu    Cu3+1 0.500020 0.359340 0.500000 0.962512
H1    H     H_    0.394875 0.695726 0.925740 0.089623
H2    H     H_    0.639375 0.333466 0.928454 0.108997
H3    H     H_    0.114414 0.277292 0.472138 0.125064
H4    H     H_    0.115973 0.724193 0.486339 0.138084
H5    H     H_    0.371584 0.129418 0.398164 0.118428
H6    H     H_    0.372514 0.870298 0.397618 0.116592
H7    H     H_    0.736418 0.852331 0.610300 0.247819
H8    H     H_    0.645324 0.951530 0.736936 0.100290
H9    H     H_    0.637347 0.765426 0.740150 0.146299
H10   H     H_    0.501477 0.863792 0.709656 0.151205
H11   H     H_    0.606702 0.161739 0.675202 0.234739
H12   H     H_    0.303510 0.447100 0.923858 0.091238
H13   H     H_    0.809622 0.078948 0.675223 0.097986
H14   H     H_    0.823489 0.236551 0.615246 0.176983
H15   H     H_    0.808415 0.070425 0.561725 0.150717
H16   H     H_    0.465745 0.206350 0.060378 0.246796
H17   H     H_    0.288862 0.093436 0.114168 0.132122
H18   H     H_    0.242198 0.177718 0.017018 0.129164
H19   H     H_    0.207896 0.257480 0.117965 0.146877
H20   H     H_    0.662742 0.734140 0.061308 0.248182
H21   H     H_    0.519357 0.934770 0.023611 0.125260
H22   H     H_    0.453987 0.904892 0.126691 0.152186
H23   H     H_    0.388328 0.687572 0.068849 0.114889
H24   H     H_    0.613442 0.955291 0.117983 0.139007
H25   H     H_    0.926074 0.161505 0.455016 0.224053
H26   H     H_    0.770115 0.154955 0.344459 0.140078
H27   H     H_    0.906783 0.246234 0.310292 0.113749
H28   H     H_    0.770415 0.342148 0.341659 0.157993
H29   H     H_    0.801044 0.738025 0.401399 0.269075
H30   H     H_    0.883009 0.954796 0.390370 0.136623
H31   H     H_    0.011861 0.843866 0.367563 0.136131
H32   H     H_    0.995956 0.920511 0.472438 0.137257
H33   H     H_    0.303685 0.461360 0.066966 0.115596
H34   H     H_    0.405163 0.299453 0.925018 0.125788
H35   H     H_    0.558996 0.718770 0.926877 0.121903
H36   H     H_    0.704729 0.503009 0.074291 0.107847
H37   H     H_    0.641191 0.332924 0.072947 0.105699
H38   H     H_    0.703003 0.506498 0.929801 0.109723
N1    N     N_R   0.500030 0.852070 0.500020 -0.222390
N2    N     N_R   0.500030 0.147930 0.500020 -0.220917
N3    N     N_2   0.642124 0.849176 0.618461 -0.448761
N4    N     N_2   0.645236 0.151335 0.616584 -0.456526
N5    N     N_2   0.394390 0.268218 0.081422 -0.519670
N6    N     N_2   0.574481 0.747886 0.083632 -0.519187
N7    N     N_2   0.875594 0.249860 0.440965 -0.496568
N8    N     N_2   0.873513 0.755742 0.443186 -0.496716
O1    O     O_R   0.319660 0.618740 0.500000 -0.512217
O2    O     O_R   0.319660 0.381260 0.500000 -0.508831
O3    O     O_R   0.500020 0.618840 0.379440 -0.507347
O4    O     O_R   0.500020 0.381160 0.379440 -0.506190
O5    O     O_R   0.680370 0.618830 0.500010 -0.482548
O6    O     O_R   0.680370 0.381170 0.500010 -0.441437
O7    O     O_R   0.500010 0.618730 0.620560 -0.465897
O8    O     O_R   0.500010 0.381270 0.620560 -0.484894

loop_
_geom_bond_atom_site_label_1
_geom_bond_atom_site_label_2
_ccdc_geom_bond_type
C7    O3    A    
C10   O5    A    
C7    C29   S    
C14   C18   S    
C21   H15   S    
C24   H21   S    
C15   C19   S    
C12   C23   S    
C13   C18   S    
H11   N4    S    
C28   C29   T    
C16   H1    S    
C5    C6    A    
C13   H23   S    
C1    O1    A    
Cu2   O6    S    
C14   N5    S    
C5    N2    A    
C26   H30   S    
Cu1   O5    S    
C11   C17   S    
C11   O7    A    
C8    C9    A    
C14   H33   S    
C9    N4    S    
C12   H2    S    
C19   C27   S    
C21   H14   S    
C7    O4    A    
C12   H38   S    
C23   H36   S    
Cu2   O4    S    
C20   H10   S    
C22   H19   S    
H29   N8    S    
C18   C23   S    
C26   H32   S    
C23   H37   S    
C18   C28   S    
H25   N7    S    
C25   H27   S    
C1    O2    A    
C8    N3    S    
C26   N8    S    
C20   N3    S    
C2    C31   A    
C17   C27   T    
H7    N3    S    
C21   N4    S    
C11   O8    A    
Cu1   Cu2   S    
Cu2   O8    S    
Cu1   O3    S    
Cu2   N2    S    
Cu1   N1    S    
C25   H26   S    
C5    H5    S    
C6    H6    S    
C9    N2    A    
H16   N5    S    
C20   H9    S    
C6    N1    A    
C22   H18   S    
C24   N6    S    
C13   N6    S    
C10   O6    A    
C25   N7    S    
C26   H31   S    
C16   H35   S    
C22   N5    S    
C20   H8    S    
C24   H22   S    
C31   H4    S    
C1    C4    S    
C2    C3    A    
Cu1   O7    S    
C3    C10   S    
C32   N7    S    
C30   C32   A    
C16   C19   S    
C15   H34   S    
C12   C19   S    
C8    N1    A    
C25   H28   S    
C3    C32   A    
C4    C31   A    
C2    N8    S    
C30   H3    S    
C24   H24   S    
C13   C16   S    
C14   C15   S    
Cu2   O2    S    
C15   H12   S    
C21   H13   S    
Cu1   O1    S    
C4    C30   A    
C22   H17   S    
H20   N6    S    
