data_mof_unit_34643.cif
_audit_creation_date              2012-12-11T15:55:42-0500
_audit_creation_method            fapswitch 2.2
_symmetry_space_group_name_H-M    P1
_symmetry_Int_Tables_number       1
_space_group_crystal_system       triclinic
_cell_length_a                    11.032774
_cell_length_b                    10.997812
_cell_length_c                    18.754063
_cell_angle_alpha                 90.585302
_cell_angle_beta                  90.672465
_cell_angle_gamma                 59.766654
_cell_volume                      1965.87419183

loop_
_atom_site_label
_atom_site_type_symbol
_atom_type_description
_atom_site_fract_x
_atom_site_fract_y
_atom_site_fract_z
_atom_type_partial_charge
C1    C     C_R   0.386924 0.708836 0.389722 0.560186
C2    C     C_R   0.608160 0.188418 0.154768 0.041402
C3    C     C_R   0.344395 0.329219 0.165816 0.014840
C4    C     C_R   0.485931 0.268835 0.271229 -0.151417
C5    C     C_R   0.478152 0.266966 0.197654 -0.028419
C6    C     C_R   0.072842 0.459841 0.387348 -0.049754
C7    C     C_R   0.966767 0.557361 0.431664 -0.064465
C8    C     C_R   0.700384 0.044042 0.166796 -0.115843
C9    C     C_R   0.797648 0.960785 0.114783 -0.124471
C10   C     C_R   0.222509 0.401928 0.207585 -0.180146
C11   C     C_R   0.230181 0.409943 0.281177 -0.050567
C12   C     C_R   0.386902 0.353794 0.388104 0.530044
C13   C     C_R   0.876403 0.694266 0.407911 -0.090425
C14   C     C_R   0.894498 0.734889 0.340451 -0.135845
C15   C     C_R   0.006893 0.640776 0.298064 -0.109870
C16   C     C_R   0.099526 0.502795 0.321813 0.048749
C17   C     C_R   0.364156 0.337854 0.313300 0.005466
C18   C     C_R   0.939015 0.310248 0.193329 0.013551
C19   C     C_R   0.988658 0.197301 0.240786 -0.028027
C20   C     C_R   0.934535 0.218410 0.308911 0.017444
C21   C     C_R   0.806883 0.467870 0.289354 -0.137896
C22   C     C_R   0.856985 0.447498 0.220626 -0.149038
C23   C     C_R   0.775149 0.380757 0.402452 0.535297
C24   C     C_3   0.996436 0.058490 0.234138 -0.242800
C25   C     C_3   0.928209 0.086712 0.307194 -0.162149
C26   C     C_R   0.838560 0.352134 0.332961 0.020668
C27   C     C_R   0.370058 0.812733 0.168893 0.057412
C28   C     C_R   0.434509 0.856545 0.219121 -0.043583
C29   C     C_R   0.446398 0.817874 0.290141 0.001858
C30   C     C_R   0.339181 0.679077 0.262912 -0.172915
C31   C     C_R   0.330507 0.714848 0.190066 0.208710
C32   C     C_3   0.399008 0.002616 0.238134 -0.266256
C33   C     C_3   0.416084 0.959532 0.315644 -0.253844
C34   C     C_R   0.345490 0.768792 0.604691 0.550516
C35   C     C_R   0.388494 0.738232 0.313941 -0.028487
C36   C     C_R   0.305123 0.308922 0.809672 -0.012813
C37   C     C_R   0.384608 0.188678 0.767821 0.117846
C38   C     C_R   0.389033 0.194872 0.694827 -0.027200
C39   C     C_R   0.221485 0.443477 0.701268 -0.168172
C40   C     C_R   0.217337 0.436090 0.775468 -0.194700
C41   C     C_3   0.537045 0.081557 0.773329 0.103412
C42   C     C_3   0.539729 0.079356 0.692783 -0.227241
C43   C     C_R   0.318294 0.325645 0.661233 -0.002174
C44   C     C_R   0.809615 0.340971 0.836502 -0.000351
C45   C     C_R   0.369016 0.349454 0.594916 0.552733
C46   C     C_R   0.793954 0.458006 0.798881 0.061354
C47   C     C_R   0.782738 0.464382 0.726316 0.086545
C48   C     C_R   0.780421 0.247321 0.724194 -0.164961
C49   C     C_R   0.789671 0.241611 0.799141 -0.172783
C50   C     C_3   0.883658 0.525015 0.798231 -0.163282
C51   C     C_3   0.870976 0.530591 0.718198 0.084514
C52   C     C_R   0.787781 0.354529 0.687215 -0.018228
C53   C     C_R   0.298117 0.839958 0.826297 0.004363
C54   C     C_R   0.179929 0.898104 0.781776 0.008421
C55   C     C_R   0.191940 0.890754 0.708439 0.000696
C56   C     C_R   0.759057 0.378849 0.611564 0.541256
C57   C     C_R   0.443191 0.776950 0.721468 -0.064202
C58   C     C_R   0.431940 0.779064 0.795563 0.263440
C59   C     C_3   0.064170 0.865170 0.779598 -0.263306
C60   C     C_3   0.072144 0.864871 0.699263 -0.254624
C61   C     C_R   0.324187 0.824003 0.677012 -0.047248
C62   C     C_R   0.972836 0.290558 0.117991 0.548721
C63   C     C_R   0.325886 0.293428 0.093334 0.543395
C64   C     C_R   0.310111 0.894700 0.103873 0.568868
C65   C     C_R   0.879598 0.311485 0.905722 0.541295
C66   C     C_R   0.295403 0.287464 0.885009 0.540539
C67   C     C_R   0.805166 0.021313 0.051084 -0.061863
C68   C     C_R   0.275562 0.892112 0.898784 0.540437
C69   C     C_R   0.717723 0.165646 0.040107 -0.053073
C70   C     C_R   0.623406 0.249812 0.092650 -0.060111
Cr1   Cr    Cr6+3 0.601740 0.606840 0.505840 0.993728
Cr2   Cr    Cr6+3 0.291500 0.601560 0.495070 0.996627
Cr3   Cr    Cr6+3 0.606780 0.291630 0.499130 0.989542
Cr4   Cr    Cr6+3 0.062440 0.063060 0.008240 1.001623
Cr5   Cr    Cr6+3 0.062950 0.375000 0.998920 1.003310
Cr6   Cr    Cr6+3 0.374550 0.061770 0.992470 1.056655
H1    H     H_    0.588690 0.220135 0.295659 0.130435
H2    H     H_    0.791929 0.768503 0.441606 0.101313
H3    H     H_    0.824247 0.840871 0.322000 0.097293
H4    H     H_    0.023905 0.677383 0.247859 0.092058
H5    H     H_    0.736617 0.574978 0.306769 0.155637
H6    H     H_    0.822868 0.540076 0.188051 0.147803
H7    H     H_    0.106469 0.970734 0.233217 0.153699
H8    H     H_    0.930270 0.057012 0.190222 0.174833
H9    H     H_    0.820136 0.104606 0.305345 0.141015
H10   H     H_    0.300494 0.611820 0.280249 0.127340
H11   H     H_    0.866377 0.849264 0.123722 0.110922
H12   H     H_    0.289707 0.083037 0.223374 0.134077
H13   H     H_    0.479970 0.024667 0.219464 0.158566
H14   H     H_    0.509030 0.955632 0.341699 0.143856
H15   H     H_    0.317094 0.016864 0.346318 0.136879
H16   H     H_    0.157472 0.543688 0.676004 0.135365
H17   H     H_    0.148565 0.529236 0.805971 0.120104
H18   H     H_    0.599769 0.123272 0.799455 0.099651
H19   H     H_    0.613438 0.109954 0.671917 0.127622
H20   H     H_    0.952850 0.525816 0.484019 0.116203
H21   H     H_    0.551239 0.981226 0.668719 0.175643
H22   H     H_    0.772741 0.166421 0.695346 0.119791
H23   H     H_    0.790725 0.156212 0.827438 0.106605
H24   H     H_    0.991341 0.450534 0.816372 0.127461
H25   H     H_    0.832988 0.629715 0.824942 0.192919
H26   H     H_    0.970604 0.462403 0.689367 0.104716
H27   H     H_    0.546813 0.724704 0.698947 0.215659
H28   H     H_    0.964800 0.950700 0.800925 0.141652
H29   H     H_    0.878645 0.956571 0.010292 0.113472
H30   H     H_    0.096646 0.760271 0.802280 0.129420
H31   H     H_    0.101320 0.761887 0.675377 0.159088
H32   H     H_    0.980100 0.955173 0.673717 0.132970
H33   H     H_    0.719949 0.212452 0.990223 0.118514
H34   H     H_    0.553145 0.360535 0.082049 0.123341
H35   H     H_    0.139525 0.353239 0.406078 0.091203
H36   H     H_    0.694429 0.994432 0.215037 0.084488
H37   H     H_    0.119366 0.450751 0.183021 0.142356
O1    O     O_R   0.748670 0.497520 0.427970 -0.538971
O2    O     O_R   0.300170 0.471020 0.567120 -0.510834
O3    O     O_R   0.491630 0.259030 0.574940 -0.524553
O4    O     O_R   0.718640 0.304340 0.577850 -0.505314
O5    O     O_3   0.500010 0.500010 0.500020 -0.263424
O6    O     O_R   0.186620 0.923750 0.087000 -0.487349
O7    O     O_R   0.957350 0.194160 0.084660 -0.502801
O8    O     O_R   0.935120 0.407280 0.085350 -0.529197
O9    O     O_R   0.203800 0.365060 0.067090 -0.520833
O10   O     O_R   0.417470 0.174910 0.067830 -0.508157
O11   O     O_R   0.375160 0.946380 0.070880 -0.513447
O12   O     O_R   0.476470 0.723930 0.429450 -0.497986
O13   O     O_R   0.160500 0.919670 0.926690 -0.523981
O14   O     O_R   0.933140 0.190380 0.936050 -0.514962
O15   O     O_R   0.909010 0.403210 0.925030 -0.520810
O16   O     O_R   0.179590 0.361290 0.918480 -0.514633
O17   O     O_R   0.391360 0.170840 0.907510 -0.477121
O18   O     O_R   0.350950 0.942600 0.922260 -0.454202
O19   O     O_3   0.166650 0.166610 0.999880 -0.277301
O20   O     O_R   0.264730 0.744140 0.416740 -0.533628
O21   O     O_R   0.309440 0.472410 0.418220 -0.508405
O22   O     O_R   0.501630 0.260530 0.414310 -0.533849
O23   O     O_R   0.727920 0.305730 0.428950 -0.507896
O24   O     O_R   0.738670 0.496020 0.588600 -0.523643
O25   O     O_R   0.467190 0.722540 0.578350 -0.505049
O26   O     O_R   0.254720 0.742640 0.577370 -0.517245
C71   C     C_3   0.018755 0.985222 0.364950 -0.376980
H38   H     H_    0.962482 0.016528 0.416548 0.149862
H39   H     H_    0.040325 0.878376 0.350370 0.171882
H40   H     H_    0.118763 0.985582 0.370893 0.168581
O27   O     O_3   0.271059 0.667282 0.140115 -0.694434
H41   H     H_    0.223999 0.624330 0.165335 0.318779
O28   O     O_3   0.559740 0.955338 0.802072 -0.622451
H42   H     H_    0.663059 0.892442 0.803468 0.346115
O29   O     O_3   0.794065 0.669501 0.693691 -0.715529
H43   H     H_    0.822085 0.667735 0.643469 0.325509
O30   O     O_3   0.553425 0.718156 0.835903 -0.672771
H44   H     H_    0.532906 0.697389 0.884100 0.320149

loop_
_geom_bond_atom_site_label_1
_geom_bond_atom_site_label_2
_ccdc_geom_bond_type
C44   C49   A    
C7    C13   A    
C21   C26   A    
Cr4   O19   S    
C63   O10   A    
Cr5   O9    S    
C41   C42   S    
C19   C20   A    
C71   H40   S    
C40   H17   S    
C57   C58   A    
C58   O30   S    
Cr1   O24   S    
C41   H18   S    
C53   C54   A    
C51   H26   S    
C7    H20   S    
Cr2   O2    S    
C64   O6    A    
C23   O23   A    
C59   H28   S    
C22   H6    S    
C21   C22   A    
C36   C37   A    
C24   H7    S    
C71   H39   S    
C38   C42   S    
C8    H36   S    
C30   C31   A    
Cr6   O18   S    
C36   C66   S    
C20   C25   S    
C15   C16   A    
C32   H12   S    
C29   C33   S    
C34   O26   A    
C18   C19   A    
Cr5   O15   S    
C56   O4    A    
C23   C26   S    
C31   O27   S    
C4    H1    S    
C53   C68   S    
C70   H34   S    
C46   C47   A    
Cr6   O17   S    
Cr2   O26   S    
C11   C17   A    
C41   O28   S    
Cr3   O22   S    
C8    C9    A    
C12   O22   A    
C12   C17   S    
C30   H10   S    
C62   O7    A    
C60   H32   S    
C66   O16   A    
C59   C60   S    
C12   O21   A    
C55   C60   S    
C44   C65   S    
C69   H33   S    
C1    O20   A    
Cr5   O8    S    
C44   C46   A    
Cr1   O25   S    
C54   C59   S    
C71   H38   S    
C57   H27   S    
C59   H30   S    
Cr3   O4    S    
C27   C31   A    
C42   H19   S    
Cr6   O11   S    
C65   O15   A    
C28   C32   S    
C25   C71   S    
O29   H43   S    
C10   C11   A    
C42   H21   S    
C39   C40   A    
C67   H29   S    
C39   C43   A    
C64   O11   A    
C34   O25   A    
C34   C61   S    
Cr1   O1    S    
C67   C69   A    
C68   O18   A    
C9    C67   A    
C37   C38   A    
Cr4   O6    S    
C49   H23   S    
C43   C45   S    
C11   C16   S    
C45   O2    A    
Cr2   O21   S    
Cr4   O14   S    
C14   C15   A    
Cr3   O23   S    
C36   C40   A    
C25   H9    S    
C50   C51   S    
C14   H3    S    
C24   C25   S    
Cr3   O3    S    
C47   C52   A    
C60   H31   S    
C4    C17   A    
C30   C35   A    
C48   C49   A    
C21   H5    S    
C32   H13   S    
C2    C5    S    
C68   O13   A    
C39   H16   S    
C63   O9    A    
Cr4   O7    S    
Cr5   O19   S    
C1    C35   S    
O28   H42   S    
C46   C50   S    
C54   C55   A    
C28   C29   A    
C10   H37   S    
Cr3   O5    S    
Cr1   O5    S    
C18   C22   A    
Cr6   O10   S    
C65   O14   A    
C2    C8    A    
C1    O12   A    
O27   H41   S    
C3    C5    A    
C47   C51   S    
C53   C58   A    
C57   C61   A    
C6    C7    A    
C3    C63   S    
C48   H22   S    
C29   C35   A    
C50   H24   S    
C32   C33   S    
C33   H15   S    
C19   C24   S    
C24   H8    S    
C38   C43   A    
C3    C10   A    
C2    C70   A    
C33   H14   S    
C9    H11   S    
C23   O1    A    
C56   O24   A    
Cr6   O19   S    
C45   O3    A    
Cr2   O20   S    
Cr4   O13   S    
C20   C26   A    
C51   O29   S    
C4    C5    A    
C55   C61   A    
C6    H35   S    
C37   C41   S    
C69   C70   A    
C15   H4    S    
C27   C64   S    
C13   H2    S    
C6    C16   A    
Cr5   O16   S    
C48   C52   A    
C50   H25   S    
Cr2   O5    S    
C27   C28   A    
O30   H44   S    
Cr1   O12   S    
C18   C62   S    
C13   C14   A    
C62   O8    A    
C52   C56   S    
C66   O17   A    
