data_mof_unit_67560.cif
_audit_creation_date              2013-03-05T15:41:21-0500
_audit_creation_method            fapswitch 2.2
_symmetry_space_group_name_H-M    P1
_symmetry_Int_Tables_number       1
_space_group_crystal_system       triclinic
_cell_length_a                    10.832476
_cell_length_b                    8.850047
_cell_length_c                    7.595062
_cell_angle_alpha                 100.196475
_cell_angle_beta                  95.522818
_cell_angle_gamma                 91.534353
_cell_volume                      712.582857003

loop_
_atom_site_label
_atom_site_type_symbol
_atom_site_description
_atom_site_fract_x
_atom_site_fract_y
_atom_site_fract_z
_atom_type_partial_charge
O1    O     O_R   0.509190 0.286130 0.619780 -0.553625
O2    O     O_R   0.490810 0.713870 0.380220 -0.587789
O3    O     O_R   0.485310 0.256770 0.308360 -0.546483
O4    O     O_R   0.514690 0.743230 0.691640 -0.570553
C1    C     C_R   0.497854 0.201796 0.456617 0.791193
C2    C     C_R   0.499295 0.797888 0.543830 0.773747
O5    O     O_R   0.328790 0.514640 0.655680 -0.606927
O6    O     O_R   0.671210 0.485360 0.344320 -0.552457
O7    O     O_R   0.304910 0.485280 0.344260 -0.601229
O8    O     O_R   0.695090 0.514720 0.655740 -0.565588
C3    C     C_R   0.259964 0.505467 0.501493 0.889208
C4    C     C_R   0.739525 0.512596 0.500855 0.877075
Cu1   Cu    Cu3+1 0.514140 0.517380 0.684380 0.990644
Cu2   Cu    Cu3+1 0.485860 0.482620 0.315620 0.995061
N1    N     N_2   0.464560 0.456420 0.038510 -0.232918
N2    N     N_2   0.535440 0.543580 0.961490 -0.223823
C5    C     C_3   0.047994 0.485523 0.660826 0.311271
C6    C     C_3   0.951670 0.557468 0.349749 0.269231
C7    C     C_3   0.950801 0.385032 0.525250 0.441593
C8    C     C_3   0.050799 0.655066 0.487658 0.341135
C9    C     C_3   0.876636 0.527416 0.503937 -0.357219
C10   C     C_3   0.122521 0.509366 0.504106 -0.340398
C11   C     C_3   0.973323 0.628602 0.640499 0.258233
C12   C     C_3   0.023971 0.410014 0.368451 0.304103
H1    H     H_    0.421389 0.362842 0.952650 0.264835
H2    H     H_    0.565316 0.642850 0.045798 0.248115
C13   C     C_2   0.491663 0.036075 0.431786 0.239649
C14   C     C_2   0.493123 0.962920 0.569698 0.292426
F1    F     F_    0.891847 0.253450 0.553005 -0.728592
F2    F     F_    0.113711 0.791269 0.480146 -0.723117
O9    O     O_3   0.106642 0.431900 0.810845 -0.599384
C15   C     C_3   0.122482 0.548329 0.963437 0.147113
H3    H     H_    0.155156 0.495016 0.079048 0.223360
H4    H     H_    0.032876 0.595389 0.990563 0.227096
C16   C     C_3   0.218088 0.674892 0.948994 -0.379826
H5    H     H_    0.310304 0.628556 0.943789 0.271370
H6    H     H_    0.194574 0.727889 0.829130 0.266993
C17   C     C_3   0.228995 0.799306 0.111614 -0.791503
H7    H     H_    0.136514 0.834105 0.145231 0.238746
H8    H     H_    0.281185 0.899031 0.079982 0.305796
H9    H     H_    0.277480 0.758803 0.228602 0.313912
O10   O     O_3   0.887847 0.602308 0.196083 -0.568533
C18   C     C_3   0.886580 0.765868 0.212819 0.012545
H10   H     H_    0.937846 0.801753 0.108099 0.185402
H11   H     H_    0.928206 0.833345 0.341223 0.193470
C19   C     C_3   0.756102 0.820589 0.184624 -0.363740
H12   H     H_    0.721988 0.783510 0.041934 0.235011
H13   H     H_    0.696761 0.770996 0.272499 0.244615
C20   C     C_3   0.752889 0.995341 0.228735 -0.829393
H14   H     H_    0.764029 0.034190 0.375915 0.274534
H15   H     H_    0.664569 0.034789 0.171769 0.325527
H16   H     H_    0.826155 0.050761 0.168594 0.242818
O11   O     O_3   0.948360 0.747617 0.780197 -0.611653
C21   C     C_3   0.851522 0.837995 0.723776 0.060993
H17   H     H_    0.765342 0.803915 0.775761 0.172303
H18   H     H_    0.830115 0.825182 0.576367 0.103423
C22   C     C_3   0.886533 0.006219 0.797852 -0.347272
H19   H     H_    0.934107 0.017136 0.934054 0.216633
H20   H     H_    0.952852 0.046126 0.713100 0.274299
C23   C     C_3   0.774562 0.106984 0.805005 -0.660720
H21   H     H_    0.728656 0.105465 0.668393 0.259307
H22   H     H_    0.804817 0.227145 0.866809 0.299996
H23   H     H_    0.706287 0.065359 0.886474 0.269680
O12   O     O_3   0.056572 0.297504 0.226060 -0.583446
C24   C     C_3   0.075751 0.152899 0.279050 0.085875
H24   H     H_    0.078462 0.070734 0.152718 0.131906
H25   H     H_    0.998439 0.110064 0.343047 0.197801
C25   C     C_3   0.200654 0.142265 0.389528 -0.415383
H26   H     H_    0.240835 0.032551 0.343128 0.227961
H27   H     H_    0.266507 0.226618 0.359911 0.239378
C26   C     C_3   0.196748 0.149683 0.591677 -0.673545
H28   H     H_    0.104075 0.174090 0.632537 0.293477
H29   H     H_    0.264721 0.238289 0.668875 0.266612
H30   H     H_    0.222372 0.038773 0.631119 0.287685
F3    F     F_    0.479790 0.956710 0.260184 -0.693975
F4    F     F_    0.489312 0.040730 0.740649 -0.674064

loop_
_geom_bond_atom_site_label_1
_geom_bond_atom_site_label_2
_geom_bond_distance
_ccdc_geom_bond_type
C6    C9    1.544245 S    
C16   H5    1.091502 S    
O7    Cu2   1.993172 S    
C8    F2    1.381500 S    
O11   C21   1.415464 S    
O5    C3    1.314864 A    
C19   C20   1.525449 S    
C5    C11   1.543224 S    
C23   H23   1.104423 S    
C6    C12   1.560596 S    
C7    C9    1.536526 S    
C6    O10   1.421596 S    
C17   H7    1.096153 S    
C22   H20   1.100496 S    
N1    N2    1.319554 D    
C23   H22   1.110690 S    
O4    Cu1   1.989596 S    
C21   H17   1.102912 S    
C2    C14   1.443060 S    
C25   H26   1.089706 S    
C24   H25   1.099063 S    
C20   H16   1.098791 S    
C12   O12   1.413091 S    
C1    C13   1.444110 S    
Cu1   Cu2   2.749085 S    
O2    C2    1.323889 A    
C13   F3    1.359172 S    
C11   O11   1.408222 S    
C19   H13   1.105644 S    
N2    H2    1.016026 S    
C21   H18   1.106234 S    
C15   C16   1.530510 S    
C16   C17   1.495079 S    
C17   H9    1.107632 S    
O4    C2    1.297165 A    
C26   H29   1.106369 S    
C22   C23   1.524087 S    
C20   H15   1.102757 S    
C4    C9    1.485098 S    
C23   H21   1.104275 S    
C15   H4    1.089876 S    
C18   H10   1.098566 S    
O7    C3    1.317611 A    
O9    C15   1.401353 S    
C8    C11   1.542722 S    
O6    C4    1.318648 A    
C24   C25   1.536164 S    
C18   H11   1.098067 S    
O3    Cu2   1.989595 S    
O8    C4    1.310541 A    
C8    C10   1.540752 S    
C20   H14   1.103672 S    
C9    C11   1.544829 S    
C5    O9    1.412555 S    
C10   C12   1.546471 S    
O1    Cu1   2.016336 S    
O10   C18   1.431057 S    
C14   F4    1.362714 S    
O1    C1    1.321425 A    
C19   H12   1.099658 S    
O6    Cu2   1.997660 S    
C16   H6    1.107510 S    
O3    C1    1.300442 A    
O8    Cu1   1.993172 S    
C26   H30   1.110373 S    
C3    C10   1.492130 S    
C5    C10   1.542025 S    
C15   H3    1.102140 S    
C7    C12   1.536520 S    
C26   H28   1.094789 S    
O12   C24   1.422472 S    
C17   H8    1.109405 S    
C22   H19   1.097429 S    
C25   C26   1.529812 S    
C5    C7    1.541650 S    
C6    C8    1.552338 S    
O2    Cu2   2.016338 S    
C18   C19   1.514334 S    
N1    H1    1.029161 S    
O5    Cu1   1.997658 S    
C25   H27   1.085627 S    
C24   H24   1.099913 S    
Cu1   N2    2.065795 S    
C13   C14   1.324392 D    
Cu2   N1    2.065795 S    
C21   C22   1.519538 S    
C7    F1    1.371620 S    
