data_mof_unit_28031.cif
_audit_creation_date              2012-12-10T17:07:40-0500
_audit_creation_method            fapswitch 2.2
_symmetry_space_group_name_H-M    P1
_symmetry_Int_Tables_number       1
_space_group_crystal_system       triclinic
_cell_length_a                    19.312846
_cell_length_b                    11.051719
_cell_length_c                    9.870973
_cell_angle_alpha                 111.555019
_cell_angle_beta                  98.535186
_cell_angle_gamma                 90.479834
_cell_volume                      1933.28011363

loop_
_atom_site_label
_atom_site_type_symbol
_atom_type_description
_atom_site_fract_x
_atom_site_fract_y
_atom_site_fract_z
_atom_type_partial_charge
C1    C     C_R   0.495003 0.253994 0.440364 0.854882
C2    C     C_R   0.504997 0.746006 0.559635 0.854881
C3    C     C_2   0.492389 0.114313 0.406793 -0.359363
C4    C     C_2   0.507611 0.885687 0.593207 -0.359363
C5    C     C_2   0.501167 0.069650 0.516287 -0.148293
C6    C     C_2   0.498833 0.930349 0.483713 -0.148293
C7    C     C_2   0.505462 0.509945 0.081113 0.012282
C8    C     C_2   0.494538 0.490055 0.918887 0.012283
C9    C     C_R   0.367738 0.503855 0.501968 0.807873
C10   C     C_R   0.632262 0.496145 0.498032 0.807874
C11   C     C_R   0.264674 0.600208 0.625675 0.168257
C12   C     C_R   0.735326 0.399794 0.374325 0.168255
C13   C     C_R   0.191684 0.591665 0.629051 0.145441
C14   C     C_R   0.808316 0.408338 0.370949 0.145441
C15   C     C_R   0.146481 0.502154 0.505518 0.004700
C16   C     C_R   0.853519 0.497847 0.494484 0.004703
C17   C     C_R   0.174215 0.416730 0.383563 0.149226
C18   C     C_R   0.825785 0.583270 0.616439 0.149225
C19   C     C_R   0.246591 0.420347 0.386132 -0.229562
C20   C     C_R   0.753409 0.579653 0.613869 -0.229562
C21   C     C_R   0.291964 0.509493 0.505557 -0.116582
C22   C     C_R   0.708036 0.490507 0.494443 -0.116581
C23   C     C_R   0.929893 0.499324 0.497913 0.424844
C24   C     C_R   0.070107 0.500678 0.502089 0.424845
Cu1   Cu    Cu3+1 0.512140 0.521810 0.644910 0.939105
Cu2   Cu    Cu3+1 0.487860 0.478190 0.355090 0.939105
H1    H     H_    0.268043 0.352415 0.294108 0.156654
H2    H     H_    0.731957 0.647583 0.705893 0.156654
H3    H     H_    0.489830 0.863880 0.368783 0.178974
H4    H     H_    0.510170 0.136120 0.631217 0.178974
H5    H     H_    0.516681 0.952403 0.707952 0.147914
H6    H     H_    0.483319 0.047597 0.292048 0.147914
H7    H     H_    0.454547 0.417813 0.843097 0.139561
H8    H     H_    0.545453 0.582187 0.156903 0.139561
N1    N     N_R   0.035582 0.608715 0.509421 -0.232577
N2    N     N_R   0.964418 0.391286 0.490581 -0.232575
N3    N     N_R   0.966549 0.608020 0.507213 -0.237112
N4    N     N_R   0.033451 0.391982 0.492789 -0.237112
N5    N     N_2   0.469620 0.445420 0.137370 -0.134970
N6    N     N_2   0.530380 0.554580 0.862630 -0.134970
O1    O     O_R   0.506480 0.332340 0.577400 -0.579826
O2    O     O_R   0.493520 0.667660 0.422600 -0.579826
O3    O     O_R   0.485980 0.295500 0.332650 -0.580126
O4    O     O_R   0.514020 0.704500 0.667350 -0.580125
O5    O     O_R   0.410390 0.518410 0.622410 -0.574416
O6    O     O_R   0.589610 0.481590 0.377590 -0.574417
O7    O     O_R   0.389900 0.481570 0.377660 -0.573659
O8    O     O_R   0.610100 0.518430 0.622340 -0.573660
C25   C     C_3   0.311743 0.710548 0.744349 -0.830332
H9    H     H_    0.359998 0.732274 0.706729 0.231595
H10   H     H_    0.284681 0.802772 0.773862 0.228118
H11   H     H_    0.326396 0.686156 0.843938 0.235150
C26   C     C_3   0.688258 0.289455 0.255649 -0.830332
H12   H     H_    0.640003 0.267726 0.293269 0.231595
H13   H     H_    0.673604 0.313850 0.156062 0.235149
H14   H     H_    0.715320 0.197232 0.226132 0.228119
C27   C     C_3   0.161397 0.675958 0.763599 -0.840190
H15   H     H_    0.136371 0.758772 0.742548 0.247238
H16   H     H_    0.121684 0.617678 0.788992 0.233495
H17   H     H_    0.201364 0.714781 0.864757 0.235610
C28   C     C_3   0.838603 0.324045 0.236401 -0.840189
H18   H     H_    0.863623 0.241224 0.257445 0.247236
H19   H     H_    0.798636 0.285234 0.135241 0.235610
H20   H     H_    0.878321 0.382321 0.211015 0.233496
C29   C     C_3   0.127436 0.322297 0.249038 -0.825951
H21   H     H_    0.157703 0.269026 0.160315 0.223068
H22   H     H_    0.100317 0.248956 0.278789 0.248770
H23   H     H_    0.087880 0.375829 0.203826 0.235925
C30   C     C_3   0.872563 0.677702 0.750965 -0.825952
H24   H     H_    0.842297 0.730973 0.839688 0.223068
H25   H     H_    0.912120 0.624168 0.796176 0.235925
H26   H     H_    0.899683 0.751043 0.721215 0.248770
C31   C     C_3   0.584727 0.653681 0.955807 -0.540742
H27   H     H_    0.608786 0.697199 0.887581 0.224392
H28   H     H_    0.562042 0.733058 0.040384 0.161208
H29   H     H_    0.626787 0.609959 0.008972 0.169417
C32   C     C_3   0.415273 0.346319 0.044193 -0.540742
H30   H     H_    0.391214 0.302801 0.112419 0.224392
H31   H     H_    0.373213 0.390041 0.991028 0.169417
H32   H     H_    0.437958 0.266942 0.959616 0.161208

loop_
_geom_bond_atom_site_label_1
_geom_bond_atom_site_label_2
_ccdc_geom_bond_type
C9    O5    A    
C30   H26   S    
C31   H27   S    
C25   H9    S    
C7    C8    S    
C26   H12   S    
C10   C22   S    
N5    C32   S    
C19   C21   A    
Cu1   N6    S    
C5    C6    S    
Cu2   N5    S    
C32   H32   S    
C13   C27   S    
C23   N2    A    
C12   C22   A    
N6    C31   S    
C28   H19   S    
C30   H25   S    
C17   C19   A    
C1    O3    A    
C2    O4    A    
C25   H10   S    
C10   O6    A    
C24   N4    A    
C19   H1    S    
C12   C26   S    
C32   H30   S    
C29   H23   S    
C18   C30   S    
C32   H31   S    
C31   H28   S    
C30   H24   S    
Cu1   O4    S    
Cu2   O3    S    
C26   H13   S    
C24   N1    A    
C4    C6    D    
Cu1   O1    S    
C27   H17   S    
C20   H2    S    
C29   H22   S    
Cu1   Cu2   S    
C23   N3    A    
C14   C28   S    
C11   C21   A    
C1    C3    S    
C28   H20   S    
C2    C4    S    
C11   C25   S    
C25   H11   S    
Cu1   O8    S    
Cu2   O7    S    
C1    O1    A    
C15   C24   S    
C12   C14   A    
C9    O7    A    
C16   C23   S    
C13   C15   A    
C10   O8    A    
C31   H29   S    
C14   C16   A    
Cu1   O5    S    
Cu2   O2    S    
C5    H4    S    
C26   H14   S    
C15   C17   A    
N1    N3    A    
C20   C22   A    
C3    C5    D    
C17   C29   S    
C28   H18   S    
C11   C13   A    
C9    C21   S    
C27   H15   S    
C2    O2    A    
N2    N4    A    
C7    H8    S    
C18   C20   A    
C8    H7    S    
C3    H6    S    
C4    H5    S    
C27   H16   S    
Cu2   O6    S    
C6    H3    S    
C16   C18   A    
C29   H21   S    
C7    N5    D    
C8    N6    D    
