data_mof_unit_18496.cif
_audit_creation_date              2013-03-05T16:12:14-0500
_audit_creation_method            fapswitch 2.2
_symmetry_space_group_name_H-M    P1
_symmetry_Int_Tables_number       1
_space_group_crystal_system       triclinic
_cell_length_a                    10.760726
_cell_length_b                    9.410199
_cell_length_c                    27.74173
_cell_angle_alpha                 89.908956
_cell_angle_beta                  86.744061
_cell_angle_gamma                 90.017403
_cell_volume                      2804.60516673

loop_
_atom_site_label
_atom_site_type_symbol
_atom_site_description
_atom_site_fract_x
_atom_site_fract_y
_atom_site_fract_z
_atom_type_partial_charge
O1    O     O_R   0.317570 0.620260 0.500030 -0.606859
O2    O     O_R   0.317570 0.379740 0.500030 -0.577024
C1    C     C_R   0.259563 0.499874 0.500098 0.804404
O3    O     O_R   0.499900 0.620250 0.430280 -0.602652
O4    O     O_R   0.499900 0.379750 0.430280 -0.537193
C2    C     C_R   0.506644 0.500178 0.407348 0.876748
Cu1   Cu    Cu3+1 0.499860 0.642410 0.500020 0.910863
Cu2   Cu    Cu3+1 0.499860 0.357590 0.500020 0.976752
O5    O     O_R   0.682190 0.620260 0.500010 -0.608605
O6    O     O_R   0.682190 0.379740 0.500010 -0.578235
O7    O     O_R   0.499860 0.620280 0.569750 -0.599262
O8    O     O_R   0.499860 0.379720 0.569750 -0.551797
C3    C     C_R   0.740190 0.499889 0.499885 0.798767
C4    C     C_R   0.493667 0.500094 0.592682 0.883216
C5    C     C_R   0.412429 0.485752 0.181185 0.588050
O9    O     O_2   0.309086 0.464902 0.210259 -0.512923
N1    N     N_R   0.523200 0.516379 0.200767 -0.457642
C6    C     C_R   0.629962 0.535334 0.172054 0.568288
C7    C     C_R   0.596444 0.415509 0.275567 -0.148882
C8    C     C_R   0.594763 0.407720 0.326007 0.415116
C9    C     C_R   0.451438 0.608455 0.330346 -0.278633
C10   C     C_R   0.456702 0.616574 0.280105 -0.064278
C11   C     C_R   0.527818 0.518724 0.252472 0.253155
C12   C     C_R   0.514578 0.489147 0.101036 -0.047953
C13   C     C_R   0.405980 0.472990 0.131060 -0.099490
C14   C     C_R   0.294557 0.436645 0.110809 -0.156098
C15   C     C_R   0.627851 0.521113 0.121603 -0.030205
C16   C     C_R   0.517669 0.502900 0.354040 -0.179885
H1    H     H_    0.403111 0.696999 0.262583 0.169689
H2    H     H_    0.212585 0.413521 0.134017 0.233979
C17   C     C_R   0.485738 0.502961 0.645968 -0.184021
C18   C     C_R   0.388491 0.483830 0.979395 0.073021
C19   C     C_R   0.615759 0.452733 0.970330 -0.062553
C20   C     C_R   0.499717 0.474497 0.949634 0.043534
C21   C     C_R   0.279557 0.530927 0.958445 -0.080878
C22   C     C_R   0.276652 0.551699 0.908730 -0.121340
C23   C     C_R   0.383272 0.527890 0.878440 -0.020599
C24   C     C_R   0.495123 0.489639 0.898976 -0.049331
C25   C     C_R   0.602701 0.467748 0.868901 -0.075987
C26   C     C_R   0.596481 0.480722 0.818734 0.583206
N2    N     N_R   0.487067 0.517691 0.799184 -0.458096
C27   C     C_R   0.381555 0.542898 0.828004 0.566438
C28   C     C_R   0.404707 0.423111 0.725144 -0.134973
C29   C     C_R   0.403362 0.415425 0.674830 0.412632
C30   C     C_R   0.560748 0.601748 0.668846 -0.282031
C31   C     C_R   0.558479 0.610304 0.719062 -0.064068
C32   C     C_R   0.481647 0.519470 0.747475 0.248753
O10   O     O_2   0.275418 0.581932 0.807956 -0.506123
C33   C     C_R   0.392946 0.458188 0.029724 -0.084881
C34   C     C_R   0.509614 0.474381 0.050400 0.040398
C35   C     C_R   0.621138 0.478380 0.020634 0.066056
C36   C     C_R   0.287524 0.423162 0.060969 0.359798
H3    H     H_    0.345635 0.353077 0.747413 0.203217
H4    H     H_    0.190544 0.586650 0.894150 0.189342
H5    H     H_    0.196938 0.557134 0.980502 0.208198
O11   O     O_2   0.737604 0.567522 0.192214 -0.504409
C37   C     C_R   0.735403 0.539786 0.091308 -0.105651
H6    H     H_    0.650744 0.340013 0.253771 0.196699
H7    H     H_    0.822935 0.569670 0.105884 0.210654
C38   C     C_R   0.719627 0.412451 0.939065 0.316511
C39   C     C_R   0.712617 0.425823 0.889165 -0.195878
O12   O     O_2   0.698531 0.453683 0.789624 -0.520443
C40   C     C_R   0.731612 0.520384 0.041560 -0.079429
H8    H     H_    0.622857 0.671438 0.647708 0.165348
H9    H     H_    0.793471 0.398826 0.865906 0.214887
H10   H     H_    0.618335 0.685727 0.735927 0.169345
H11   H     H_    0.815129 0.542935 0.019467 0.216210
C41   C     C_3   0.064629 0.578105 0.545239 -0.342749
C42   C     C_3   0.070914 0.344737 0.500470 -0.367403
H12   H     H_    0.098329 0.689934 0.545538 0.163539
H13   H     H_    0.109655 0.286106 0.468173 0.165703
H14   H     H_    0.094254 0.526449 0.578746 0.215758
H15   H     H_    0.099938 0.286913 0.532991 0.207993
C43   C     C_3   0.921087 0.577224 0.545316 -0.402369
C44   C     C_3   0.928610 0.344747 0.500434 -0.372296
H16   H     H_    0.881762 0.523455 0.578553 0.168436
H17   H     H_    0.889783 0.287480 0.533073 0.160631
H18   H     H_    0.886279 0.688627 0.546113 0.166418
H19   H     H_    0.899520 0.285590 0.468252 0.209255
H20   H     H_    0.113689 0.686688 0.452788 0.166570
H21   H     H_    0.117945 0.520210 0.421316 0.172406
C45   C     C_3   0.078707 0.575338 0.454235 -0.398797
C46   C     C_3   0.121574 0.499450 0.500073 0.139065
C47   C     C_3   0.878145 0.499464 0.499927 0.142954
C48   C     C_3   0.935133 0.576203 0.454305 -0.343293
C49   C     C_3   0.627204 0.083564 0.491570 -0.195193
C50   C     C_3   0.627263 0.916299 0.491517 -0.200152
H22   H     H_    0.689402 0.121014 0.519606 0.135446
H23   H     H_    0.689553 0.878458 0.519507 0.143605
H24   H     H_    0.667755 0.123226 0.456434 0.205513
H25   H     H_    0.667638 0.876956 0.456202 0.149373
H26   H     H_    0.509286 0.120653 0.577439 0.183115
H27   H     H_    0.509383 0.878945 0.577560 0.161807
C51   C     C_3   0.451511 0.083423 0.547999 -0.134418
C52   C     C_3   0.451463 0.915939 0.548075 -0.181279
C53   C     C_3   0.420554 0.083775 0.463872 -0.196096
C54   C     C_3   0.421768 0.916423 0.463456 -0.191048
N3    N     N_3   0.500250 0.143650 0.501060 -0.146114
N4    N     N_3   0.500250 0.856350 0.501060 -0.128572
H28   H     H_    0.323100 0.121386 0.470335 0.134629
H29   H     H_    0.324755 0.876480 0.468909 0.141656
H30   H     H_    0.451827 0.123250 0.427583 0.213945
H31   H     H_    0.456502 0.879845 0.427076 0.166657
H32   H     H_    0.393500 0.683721 0.350826 0.168690
S1    S     S_3+6 0.852371 0.320034 0.957415 0.053764
O13   O     O_2   0.834797 0.263086 0.007978 -0.222576
O14   O     O_2   0.879501 0.197090 0.923892 -0.244729
O15   O     O_3   0.973647 0.432568 0.952885 -0.483206
H33   H     H_    0.989494 0.448979 0.917806 0.341642
H34   H     H_    0.901546 0.687994 0.453343 0.159558
H35   H     H_    0.905318 0.523018 0.421134 0.214160
H36   H     H_    0.355200 0.122255 0.556220 0.208459
H37   H     H_    0.355497 0.875825 0.556773 0.155511
S2    S     S_3+6 0.291718 0.299915 0.651746 -0.039350
O16   O     O_2   0.259035 0.342600 0.601948 -0.372484
O17   O     O_2   0.342726 0.151339 0.651115 -0.333477
O18   O     O_3   0.161839 0.303865 0.688438 -0.504802
H38   H     H_    0.104349 0.235651 0.674104 0.378177
S3    S     S_3+6 0.153638 0.333434 0.042642 0.049772
O19   O     O_2   0.047183 0.436807 0.044503 -0.270020
O20   O     O_2   0.173458 0.271375 0.992908 -0.211664
O21   O     O_3   0.118904 0.200826 0.081857 -0.504636
H39   H     H_    0.038075 0.162958 0.072229 0.405104
S4    S     S_3+6 0.695019 0.281434 0.350891 -0.021974
O22   O     O_2   0.805035 0.255464 0.316149 -0.265015
O23   O     O_2   0.741144 0.333175 0.397751 -0.360997
O24   O     O_3   0.617076 0.128014 0.359703 -0.568960
H40   H     H_    0.680801 0.057947 0.368397 0.359389

loop_
_geom_bond_atom_site_label_1
_geom_bond_atom_site_label_2
_geom_bond_distance
_ccdc_geom_bond_type
C10   H1    1.082839 S    
C53   H30   1.106800 S    
N2    C27   1.371949 A    
C21   C22   1.394781 A    
C12   C15   1.407503 A    
C4    C17   1.476128 S    
H21   C45   1.113209 S    
Cu1   Cu2   2.680212 S    
C30   C31   1.394335 A    
Cu1   O7    1.945279 S    
S1    O14   1.503793 D    
C3    C47   1.484567 S    
N1    C11   1.438274 S    
Cu1   N4    2.013477 S    
C22   C23   1.401382 A    
C31   H10   1.082830 S    
C50   H25   1.112898 S    
O4    C2    1.298711 A    
O7    C4    1.296587 A    
C49   H22   1.112168 S    
C44   C47   1.554366 S    
C5    C13   1.401557 A    
C51   N3    1.487217 S    
C41   C43   1.544517 S    
C5    O9    1.350249 S    
C26   O12   1.350157 S    
O15   H33   0.990257 S    
C5    N1    1.368505 A    
C23   C27   1.407228 A    
C42   H13   1.113676 S    
Cu2   N3    2.013388 S    
O5    C3    1.293362 A    
C9    H32   1.083714 S    
C28   H3    1.083462 S    
C2    C16   1.477067 S    
C7    C8    1.400168 A    
C53   N3    1.489720 S    
C42   H15   1.112697 S    
C43   H18   1.113168 S    
C6    O11   1.349121 S    
C29   S2    1.767391 S    
H27   C52   1.111674 S    
C22   H4    1.082883 S    
O1    Cu1   1.972538 S    
C9    C10   1.393689 A    
O3    Cu1   1.946219 S    
C54   N4    1.489807 S    
N1    C6    1.371721 A    
C50   N4    1.488054 S    
S3    O20   1.503120 D    
C7    H6    1.083159 S    
C12   C34   1.415830 A    
C25   C39   1.394899 A    
S1    O15   1.679396 S    
C40   H11   1.079473 S    
C17   C29   1.422051 A    
C21   H5    1.079085 S    
C18   C21   1.408962 A    
C35   C40   1.409009 A    
C12   C13   1.404066 A    
O3    C2    1.297593 A    
C48   H34   1.113201 S    
C15   C37   1.401978 A    
C25   C26   1.402253 A    
C49   C50   1.574001 S    
C8    C16   1.422878 A    
C34   C35   1.418031 A    
C13   C14   1.395373 A    
C45   C46   1.550399 S    
C41   H14   1.110977 S    
O1    C1    1.293224 A    
C18   C20   1.417722 A    
C7    C11   1.396929 A    
C28   C29   1.398691 A    
C23   C24   1.407232 A    
C42   C46   1.554243 S    
C14   C36   1.394985 A    
Cu2   O8    1.945937 S    
C33   C36   1.426188 A    
C53   C54   1.574925 S    
H26   C51   1.111184 S    
C19   C20   1.418462 A    
N2    C32   1.439046 S    
C27   O10   1.349230 S    
C47   C48   1.551794 S    
C44   H17   1.113626 S    
C54   H31   1.111359 S    
C43   H16   1.113249 S    
S4    O24   1.679989 S    
H20   C45   1.113175 S    
C26   N2    1.368791 A    
C9    C16   1.406479 A    
O8    C4    1.299922 A    
C14   H2    1.083915 S    
C19   C38   1.427021 A    
C50   H23   1.112387 S    
C49   H24   1.109168 S    
O24   H40   0.990805 S    
S4    O23   1.499522 D    
S3    O21   1.682134 S    
Cu1   O5    1.973091 S    
C31   C32   1.399602 A    
C20   C24   1.415970 A    
C41   C46   1.552196 S    
Cu2   O6    1.972965 S    
O2    Cu2   1.972664 S    
C6    C15   1.407658 A    
C37   C40   1.395297 A    
C43   C47   1.550251 S    
C48   H35   1.111351 S    
O6    C3    1.291185 A    
O4    Cu2   1.945560 S    
S2    O17   1.501927 D    
S3    O19   1.501769 D    
S2    O16   1.499006 D    
C19   C35   1.421019 A    
C45   C48   1.544876 S    
S1    O13   1.502654 D    
C30   H8    1.083808 S    
O2    C1    1.291479 A    
O18   H38   0.990645 S    
C1    C46   1.484903 S    
C24   C25   1.403414 A    
C44   H19   1.112740 S    
C52   H37   1.112778 S    
C53   H28   1.111844 S    
C51   H36   1.110531 S    
C42   C44   1.531352 S    
C52   N4    1.488597 S    
C51   C52   1.576057 S    
C49   N3    1.488416 S    
C18   C33   1.420017 A    
C8    S4    1.770717 S    
S2    O18   1.682059 S    
C37   H7    1.083159 S    
C36   S3    1.769428 S    
C39   H9    1.083865 S    
C41   H12   1.113157 S    
C33   C34   1.417845 A    
C17   C30   1.406453 A    
C10   C11   1.398979 A    
C38   C39   1.396111 A    
O21   H39   0.990633 S    
C28   C32   1.396807 A    
C54   H29   1.111580 S    
C38   S1    1.771382 S    
S4    O22   1.503813 D    
