data_mof_unit_36155.cif
_audit_creation_date              2012-12-11T17:14:09-0500
_audit_creation_method            fapswitch 2.2
_symmetry_space_group_name_H-M    P1
_symmetry_Int_Tables_number       1
_space_group_crystal_system       triclinic
_cell_length_a                    18.225971
_cell_length_b                    7.093415
_cell_length_c                    13.018341
_cell_angle_alpha                 89.630266
_cell_angle_beta                  72.014877
_cell_angle_gamma                 90.10542
_cell_volume                      1600.78154227

loop_
_atom_site_label
_atom_site_type_symbol
_atom_type_description
_atom_site_fract_x
_atom_site_fract_y
_atom_site_fract_z
_atom_type_partial_charge
O1    O     O_R   0.453880 0.506200 0.150010 -0.538021
O2    O     O_R   0.546120 0.006200 0.849990 -0.538429
O3    O     O_R   0.604080 0.177770 0.007280 -0.539878
O4    O     O_R   0.395920 0.677770 0.992720 -0.539635
C1    C     C_R   0.635972 0.344617 0.001816 0.730541
C2    C     C_R   0.364028 0.844409 0.998199 0.730116
O5    O     O_R   0.458010 0.176640 0.159130 -0.541732
O6    O     O_R   0.541990 0.676640 0.840870 -0.541258
O7    O     O_R   0.399010 0.004010 0.002930 -0.536264
O8    O     O_R   0.600990 0.504010 0.997070 -0.535893
C3    C     C_R   0.443184 0.344392 0.201793 0.689600
C4    C     C_R   0.556778 0.846116 0.798273 0.689615
O9    O     O_3   0.480810 0.338440 0.948570 -0.374970
O10   O     O_3   0.519190 0.838440 0.051430 -0.374282
V1    V     V_3+5 0.503560 0.064490 0.009540 1.423757
V2    V     V_3+5 0.496440 0.564490 0.990460 1.425126
C5    C     C_R   0.584202 0.927352 0.503882 -0.161679
C6    C     C_R   0.416706 0.313057 0.498651 -0.162463
H1    H     H_    0.486887 0.923856 0.647722 0.106095
H2    H     H_    0.513978 0.306131 0.354896 0.104691
H3    H     H_    0.663885 0.966370 0.296945 0.124696
H4    H     H_    0.337490 0.298218 0.706750 0.125569
H5    H     H_    0.548977 0.962343 0.452930 0.119672
H6    H     H_    0.452353 0.292721 0.550799 0.119710
C7    C     C_R   0.592747 0.858807 0.681590 -0.028172
C8    C     C_R   0.407363 0.348652 0.318660 -0.027163
C9    C     C_R   0.953372 0.812854 0.382709 -0.169796
C10   C     C_R   0.046071 0.387064 0.615591 -0.170793
C11   C     C_R   0.921418 0.790199 0.493620 -0.123138
C12   C     C_R   0.077763 0.394819 0.504021 -0.123990
C13   C     C_R   0.842089 0.806732 0.542233 -0.161280
C14   C     C_R   0.157311 0.382951 0.456060 -0.161057
C15   C     C_R   0.792221 0.847470 0.480255 0.077712
C16   C     C_R   0.207679 0.362133 0.519413 0.077859
C17   C     C_R   0.825628 0.873402 0.366616 0.066090
C18   C     C_R   0.174566 0.350956 0.633862 0.066397
C19   C     C_R   0.710488 0.863100 0.527057 0.071221
C20   C     C_R   0.289630 0.352340 0.473192 0.071529
C21   C     C_R   0.664445 0.907462 0.459648 0.139669
C22   C     C_R   0.336212 0.327701 0.542117 0.140224
C23   C     C_R   0.698671 0.932787 0.348730 -0.206666
C24   C     C_R   0.302285 0.316565 0.653823 -0.207716
C25   C     C_R   0.777862 0.915419 0.302748 -0.196409
C26   C     C_R   0.222864 0.328808 0.699146 -0.196606
C27   C     C_R   0.672589 0.837258 0.638684 -0.214003
C28   C     C_R   0.327243 0.364964 0.360742 -0.214147
C29   C     C_R   0.548670 0.904735 0.614430 -0.177404
C30   C     C_R   0.451968 0.321580 0.387431 -0.177745
C31   C     C_R   0.906378 0.854835 0.318826 -0.071592
C32   C     C_R   0.093563 0.364547 0.680934 -0.070779
H7    H     H_    0.015086 0.796761 0.346322 0.104309
H8    H     H_    0.984150 0.399663 0.651323 0.103576
H9    H     H_    0.958396 0.758219 0.542434 0.126947
H10   H     H_    0.040390 0.411749 0.454127 0.126914
H11   H     H_    0.801364 0.936007 0.216277 0.125971
H12   H     H_    0.199618 0.319955 0.786258 0.125804
C33   C     C_1   0.216320 0.858915 0.000275 -0.186664
C34   C     C_1   0.783681 0.358593 0.999740 -0.187086
C35   C     C_1   0.283608 0.852460 0.999074 -0.188461
C36   C     C_1   0.716388 0.352701 0.000933 -0.188681
O11   O     O_R   0.899030 0.205490 0.002790 -0.536826
O12   O     O_R   0.100970 0.705490 0.997210 -0.535203
O13   O     O_R   0.042000 0.536370 0.840840 -0.540280
O14   O     O_R   0.958000 0.036370 0.159160 -0.541236
C37   C     C_R   0.057631 0.369064 0.798234 0.681064
C38   C     C_R   0.942435 0.867364 0.201701 0.680780
O15   O     O_R   0.895930 0.535070 0.992690 -0.538884
O16   O     O_R   0.104070 0.035070 0.007310 -0.540501
O17   O     O_R   0.953870 0.707520 0.150040 -0.537414
O18   O     O_R   0.046130 0.207520 0.849960 -0.538523
C39   C     C_R   0.864123 0.366629 0.998721 0.729128
C40   C     C_R   0.135873 0.866865 0.001280 0.728733
O19   O     O_3   0.019200 0.374340 0.051340 -0.374403
O20   O     O_3   0.980800 0.874340 0.948660 -0.373988
V3    V     V_3+5 0.996440 0.648350 0.990470 1.427517
V4    V     V_3+5 0.003560 0.148350 0.009530 1.422824
H13   H     H_    0.703239 0.803351 0.695084 0.096305
H14   H     H_    0.296179 0.383775 0.303196 0.096165
H15   H     H_    0.821927 0.786716 0.628460 0.107580
H16   H     H_    0.177247 0.390622 0.369228 0.107608

loop_
_geom_bond_atom_site_label_1
_geom_bond_atom_site_label_2
_ccdc_geom_bond_type
C12   C14   A    
O13   C37   A    
C9    C11   A    
C23   C25   A    
O1    C3    A    
O2    C4    A    
C2    O7    A    
O3    V1    S    
C21   C23   A    
O5    C3    A    
C12   H10   S    
C5    H5    S    
C11   H9    S    
C6    H6    S    
H1    C29   S    
C34   C39   S    
C33   C35   T    
C38   O17   A    
C34   C36   T    
C37   O18   A    
C5    C21   A    
C6    C22   A    
C10   C32   A    
C17   C31   A    
C13   C15   A    
C17   C25   A    
C7    C29   A    
C16   C18   A    
C8    C30   A    
O11   C39   A    
C22   C24   A    
O6    V2    S    
O19   V3    S    
C24   C26   A    
C9    H7    S    
O11   V4    S    
O20   V3    S    
O4    C2    A    
C31   C38   S    
C28   H14   S    
C3    C8    S    
C15   C19   A    
O16   C40   A    
O14   C38   A    
O4    V2    S    
C14   H16   S    
C26   H12   S    
O6    C4    A    
O14   V4    S    
O12   C40   A    
O1    V2    S    
O2    V1    S    
H2    C30   S    
O20   V4    S    
H3    C23   S    
C25   H11   S    
O18   V4    S    
O19   V4    S    
O12   V3    S    
C18   C26   A    
O15   V3    S    
C19   C27   A    
C7    C27   A    
C18   C32   A    
C1    C36   S    
C16   C20   A    
C2    C35   S    
C5    C29   A    
O3    C1    A    
C6    C30   A    
C13   H15   S    
O16   V4    S    
C4    C7    S    
C10   C12   A    
O7    V1    S    
C1    O8    A    
C11   C13   A    
O8    V2    S    
C20   C22   A    
C10   H8    S    
H4    C24   S    
O13   V3    S    
O5    V1    S    
C15   C17   A    
O17   V3    S    
O15   C39   A    
C33   C40   S    
C32   C37   S    
C20   C28   A    
C8    C28   A    
C19   C21   A    
O9    V2    S    
O10   V1    S    
C27   H13   S    
C9    C31   A    
C14   C16   A    
