data_mof_unit_19521.cif
_audit_creation_date              2013-03-05T16:48:19-0500
_audit_creation_method            fapswitch 2.2
_symmetry_space_group_name_H-M    P1
_symmetry_Int_Tables_number       1
_space_group_crystal_system       triclinic
_cell_length_a                    15.001084
_cell_length_b                    10.871715
_cell_length_c                    13.940461
_cell_angle_alpha                 90.63149
_cell_angle_beta                  88.45205
_cell_angle_gamma                 86.867397
_cell_volume                      2269.1115148

loop_
_atom_site_label
_atom_site_type_symbol
_atom_site_description
_atom_site_fract_x
_atom_site_fract_y
_atom_site_fract_z
_atom_type_partial_charge
O1    O     O_R   0.500000 0.319630 0.582270 -0.616821
O2    O     O_R   0.500000 0.680370 0.417730 -0.616818
O3    O     O_R   0.499990 0.319660 0.417730 -0.551177
O4    O     O_R   0.500010 0.680340 0.582270 -0.551180
C1    C     C_R   0.499990 0.262566 0.498952 0.817729
C2    C     C_R   0.500011 0.737434 0.501047 0.817768
O5    O     O_R   0.370260 0.499960 0.582280 -0.524086
O6    O     O_R   0.629740 0.500040 0.417720 -0.524081
O7    O     O_R   0.370250 0.499990 0.417740 -0.582455
O8    O     O_R   0.629750 0.500010 0.582260 -0.582456
C3    C     C_R   0.329286 0.503245 0.501296 0.830352
C4    C     C_R   0.670714 0.496753 0.498703 0.830391
Cu1   Cu    Cu3+1 0.500010 0.499980 0.597420 1.015652
Cu2   Cu    Cu3+1 0.499990 0.500020 0.402580 1.015658
C5    C     C_R   0.809118 0.590278 0.458732 -0.104667
C6    C     C_R   0.190899 0.409625 0.541220 -0.104665
C7    C     C_R   0.767485 0.489911 0.495225 -0.013495
C8    C     C_R   0.232516 0.510028 0.504764 -0.013530
C9    C     C_R   0.817121 0.385033 0.525717 0.095826
C10   C     C_R   0.182863 0.614861 0.474228 0.095871
C11   C     C_R   0.910835 0.392469 0.536765 -0.008237
C12   C     C_R   0.089170 0.607348 0.463104 -0.008126
C13   C     C_R   0.953257 0.496756 0.498551 -0.020316
C14   C     C_R   0.046754 0.503062 0.501322 -0.020333
C15   C     C_R   0.901920 0.594261 0.456470 0.081525
C16   C     C_R   0.098099 0.405572 0.543410 0.081502
C17   C     C_R   0.963141 0.300133 0.584622 0.349227
C18   C     C_R   0.036889 0.699610 0.415155 0.349190
C19   C     C_R   0.056555 0.306037 0.587358 0.064010
C20   C     C_R   0.943474 0.693729 0.412436 0.063907
H1    H     H_    0.767068 0.664730 0.430917 0.177960
H2    H     H_    0.232961 0.335204 0.569061 0.177957
H3    H     H_    0.425395 0.225472 0.057093 0.197186
H4    H     H_    0.574630 0.774516 0.942898 0.197185
C21   C     C_R   0.366197 0.213726 0.199573 0.256753
C22   C     C_R   0.633822 0.786264 0.800415 0.256759
C23   C     C_R   0.378160 0.167930 0.293598 0.281044
C24   C     C_R   0.621855 0.832059 0.706391 0.281004
C25   C     C_R   0.462831 0.114584 0.318024 -0.075420
C26   C     C_R   0.537184 0.885412 0.681971 -0.075422
C27   C     C_R   0.530222 0.096573 0.246783 -0.113897
C28   C     C_R   0.469798 0.903424 0.753215 -0.113890
H5    H     H_    0.593331 0.050212 0.264686 0.182640
H6    H     H_    0.406689 0.949789 0.735317 0.182637
C29   C     C_R   0.516010 0.133033 0.152397 0.128365
C30   C     C_R   0.484013 0.866959 0.847600 0.128361
C31   C     C_R   0.434823 0.193389 0.129622 -0.277026
C32   C     C_R   0.565200 0.806602 0.870370 -0.277021
C33   C     C_R   0.480521 0.932910 0.418212 -0.242550
C34   C     C_R   0.519490 0.067089 0.581785 -0.242565
H7    H     H_    0.464993 0.881654 0.354136 0.161796
H8    H     H_    0.535018 0.118344 0.645861 0.161799
C35   C     C_R   0.500111 0.871533 0.503249 -0.025247
C36   C     C_R   0.499897 0.128466 0.496749 -0.025234
C37   C     C_R   0.519891 0.939836 0.586623 0.113770
C38   C     C_R   0.480122 0.060162 0.413373 0.113799
C39   C     C_R   0.571112 0.446747 0.792807 0.272971
C40   C     C_R   0.428887 0.553252 0.207193 0.272862
N1    N     N_R   0.499960 0.499900 0.743810 -0.244508
N2    N     N_R   0.500040 0.500100 0.256190 -0.244507
C41   C     C_R   0.425610 0.546233 0.796649 0.437964
C42   C     C_R   0.574390 0.453769 0.203351 0.437962
C43   C     C_R   0.421963 0.542315 0.899792 -0.203478
C44   C     C_R   0.578037 0.457686 0.100208 -0.203475
C45   C     C_R   0.499271 0.500586 0.948484 -0.012251
C46   C     C_R   0.500729 0.499414 0.051516 -0.012235
C47   C     C_R   0.574977 0.458006 0.894397 -0.035447
C48   C     C_R   0.425022 0.541993 0.105603 -0.035455
C49   C     C_R   0.344258 0.578154 0.957018 0.326245
C50   C     C_R   0.655742 0.421848 0.042982 0.326248
C51   C     C_R   0.346918 0.576170 0.056928 -0.188861
C52   C     C_R   0.653081 0.423830 0.943072 -0.188896
H9    H     H_    0.285484 0.602450 0.096217 0.212435
H10   H     H_    0.714516 0.397550 0.903783 0.212364
C53   C     C_3   0.641827 0.362551 0.742979 -0.718887
H11   H     H_    0.620738 0.324186 0.675215 0.246811
H12   H     H_    0.704456 0.411010 0.731947 0.268460
H13   H     H_    0.656072 0.279120 0.786499 0.198183
C54   C     C_3   0.358172 0.637447 0.257021 -0.718670
H14   H     H_    0.379263 0.675813 0.324784 0.246765
H15   H     H_    0.343925 0.720877 0.213500 0.198226
H16   H     H_    0.295545 0.588985 0.268055 0.268549
N3    N     N_R   0.349160 0.593831 0.747653 0.163548
O9    O     O_R   0.279569 0.528002 0.740502 -0.312268
O10   O     O_R   0.348722 0.702253 0.709257 -0.348767
N4    N     N_R   0.650842 0.406176 0.252346 0.163557
O11   O     O_R   0.720431 0.472009 0.259495 -0.312329
O12   O     O_R   0.651282 0.297756 0.290749 -0.348720
N5    N     N_R   0.260593 0.617386 0.917414 0.172529
O13   O     O_R   0.246451 0.731924 0.893490 -0.296231
O14   O     O_R   0.192455 0.549650 0.929938 -0.227720
N6    N     N_R   0.739408 0.382622 0.082586 0.172516
O15   O     O_R   0.807543 0.450363 0.070062 -0.227771
O16   O     O_R   0.753555 0.268086 0.106512 -0.296247
C55   C     C_3   0.771407 0.263828 0.531747 -0.690812
H17   H     H_    0.706113 0.266886 0.496154 0.197271
H18   H     H_    0.812705 0.190373 0.493042 0.275302
H19   H     H_    0.758937 0.237850 0.607185 0.255294
C56   C     C_3   0.228508 0.736125 0.468285 -0.690905
H20   H     H_    0.293715 0.733149 0.504052 0.197484
H21   H     H_    0.241124 0.762082 0.392869 0.255289
H22   H     H_    0.187082 0.809562 0.506860 0.275220
N7    N     N_R   0.921530 0.206526 0.638696 0.104099
O17   O     O_R   0.888809 0.232301 0.724412 -0.310828
O18   O     O_R   0.927691 0.092567 0.608464 -0.300437
N8    N     N_R   0.078541 0.793056 0.360935 0.104219
O19   O     O_R   0.111525 0.766949 0.275382 -0.311022
O20   O     O_R   0.072348 0.907114 0.390933 -0.300374
C57   C     C_3   0.112071 0.208567 0.640471 -0.648713
H23   H     H_    0.072556 0.141033 0.679314 0.284855
H24   H     H_    0.157463 0.155771 0.588822 0.251253
H25   H     H_    0.151903 0.253480 0.695566 0.233380
C58   C     C_3   0.887971 0.791116 0.359225 -0.648726
H26   H     H_    0.927500 0.858516 0.320252 0.284844
H27   H     H_    0.848090 0.746112 0.304222 0.233441
H28   H     H_    0.842626 0.844059 0.410831 0.251188
N9    N     N_R   0.285457 0.282279 0.174678 0.161179
O21   O     O_R   0.261326 0.287322 0.085761 -0.299522
O22   O     O_R   0.242002 0.352588 0.238243 -0.300113
N10   N     N_R   0.714564 0.717710 0.825306 0.161171
O23   O     O_R   0.738699 0.712666 0.914222 -0.299538
O24   O     O_R   0.758016 0.647402 0.761739 -0.300144
N11   N     N_R   0.302721 0.163901 0.359375 0.141346
O25   O     O_R   0.226732 0.128688 0.329139 -0.246210
O26   O     O_R   0.311239 0.183210 0.450716 -0.424680
N12   N     N_R   0.697290 0.836079 0.640607 0.141374
O27   O     O_R   0.773279 0.871304 0.670832 -0.246136
O28   O     O_R   0.688769 0.816734 0.549271 -0.424577
C59   C     C_3   0.586612 0.105920 0.075550 -0.711495
H29   H     H_    0.597707 0.189735 0.033498 0.233101
H30   H     H_    0.650841 0.072619 0.106452 0.272452
H31   H     H_    0.565261 0.033569 0.026105 0.214013
C60   C     C_3   0.413413 0.894070 0.924450 -0.711496
H32   H     H_    0.402321 0.810254 0.966503 0.233094
H33   H     H_    0.434763 0.966423 0.973893 0.214017
H34   H     H_    0.349182 0.927366 0.893550 0.272461

loop_
_geom_bond_atom_site_label_1
_geom_bond_atom_site_label_2
_geom_bond_distance
_ccdc_geom_bond_type
C46   C48   1.400412 A    
C43   C45   1.415374 A    
C3    C8    1.448978 S    
C29   C59   1.501288 S    
N12   O27   1.301435 A    
C17   C19   1.407808 A    
C55   H17   1.108940 S    
C53   H11   1.090109 S    
C21   C31   1.405605 A    
C55   H19   1.105614 S    
N11   O25   1.301434 A    
C25   C27   1.402304 A    
O5    C3    1.299836 A    
C42   N4    1.426459 S    
C34   C36   1.397045 A    
N3    O9    1.302937 A    
O1    C1    1.310751 A    
C19   C57   1.522774 S    
C9    C11   1.424925 A    
C14   C16   1.417654 A    
C59   H29   1.106689 S    
C57   H24   1.110496 S    
N4    O12   1.299705 A    
C5    C15   1.394680 A    
N8    O19   1.301203 A    
C40   N2    1.385781 A    
N2    C42   1.387916 A    
C47   C52   1.404334 A    
C28   C30   1.396881 A    
O4    Cu1   1.974478 S    
C49   C51   1.394815 A    
C42   C44   1.438608 A    
N11   O26   1.299079 A    
C23   N11   1.440026 S    
C25   C38   1.484368 S    
C18   N8    1.433382 S    
C33   H7    1.084948 S    
C4    C7    1.448991 S    
C60   H34   1.110282 S    
C34   H8    1.084948 S    
C13   C14   1.409519 A    
C44   C50   1.428377 A    
N5    O14   1.301159 A    
C59   H31   1.106312 S    
C29   C31   1.397410 A    
C11   C17   1.423166 A    
O2    Cu2   1.969748 S    
C12   C18   1.423064 A    
Cu1   Cu2   2.716174 S    
C27   H5    1.084419 S    
O2    C2    1.310745 A    
C28   H6    1.084418 S    
C39   C47   1.423171 A    
C49   N5    1.430401 S    
C24   N12   1.440025 S    
N10   O24   1.301471 A    
C30   C32   1.397410 A    
C35   C37   1.419158 A    
C6    C16   1.394731 A    
C36   C38   1.419161 A    
N1    C41   1.387917 A    
C43   C49   1.428376 A    
C1    C36   1.457961 S    
C52   H10   1.082325 S    
C41   N3    1.426458 S    
C57   H25   1.110750 S    
C51   H9    1.082326 S    
N4    O11   1.302937 A    
O6    Cu2   1.963472 S    
C45   C47   1.400413 A    
C44   C46   1.415375 A    
O7    Cu2   1.952014 S    
C53   H12   1.109926 S    
C56   H20   1.108943 S    
O6    C4    1.299830 A    
C26   C37   1.484364 S    
N6    O16   1.300351 A    
N7    O18   1.301917 A    
O7    C3    1.301423 A    
O3    Cu2   1.974478 S    
O8    C4    1.301427 A    
C40   C54   1.511856 S    
C40   C48   1.423172 A    
N3    O10   1.299704 A    
C10   C12   1.424832 A    
C11   C13   1.431111 A    
C60   H32   1.106689 S    
H3    C31   1.083543 S    
C12   C14   1.431071 A    
C21   N9    1.439670 S    
O4    C2    1.297243 A    
O1    Cu1   1.969747 S    
C2    C35   1.457958 S    
C22   C24   1.419668 A    
C9    C55   1.520451 S    
N10   O23   1.301566 A    
C21   C23   1.419670 A    
C54   H15   1.111033 S    
C58   H26   1.105699 S    
C15   C20   1.415074 A    
C5    C7    1.381674 A    
N12   O28   1.299074 A    
C56   H21   1.105609 S    
C41   C43   1.438607 A    
C50   N6    1.430403 S    
C26   C28   1.402304 A    
O3    C1    1.297239 A    
O8    Cu1   1.952014 S    
C54   H16   1.109926 S    
C55   H18   1.109523 S    
C5    H1    1.080628 S    
Cu1   N1    2.040732 S    
C6    H2    1.080614 S    
C33   C38   1.385531 A    
Cu2   N2    2.040734 S    
C34   C37   1.385534 A    
C58   H28   1.110495 S    
N9    O22   1.301475 A    
C18   C20   1.407786 A    
C23   C25   1.418735 A    
N9    O21   1.301566 A    
C30   C60   1.501290 S    
C24   C26   1.418734 A    
C39   C53   1.511862 S    
C10   C56   1.520452 S    
N8    O20   1.301921 A    
C48   C51   1.404335 A    
C33   C35   1.397044 A    
C17   N7    1.433336 S    
N6    O15   1.301159 A    
C7    C9    1.403627 A    
C22   C32   1.405605 A    
C8    C10   1.403562 A    
C13   C15   1.417675 A    
C22   N10   1.439672 S    
C53   H13   1.111034 S    
C39   N1    1.385784 A    
C54   H14   1.090110 S    
O5    Cu1   1.963472 S    
C56   H22   1.109516 S    
H4    C32   1.083544 S    
C16   C19   1.415059 A    
C6    C8    1.381697 A    
C45   C46   1.437250 A    
N7    O17   1.301233 A    
C60   H33   1.106305 S    
C27   C29   1.396881 A    
C50   C52   1.394813 A    
C59   H30   1.110285 S    
N5    O13   1.300350 A    
C57   H23   1.105727 S    
C58   H27   1.110748 S    
C20   C58   1.522758 S    
