data_mof_unit_61787.cif
_audit_creation_date              2013-03-05T16:02:36-0500
_audit_creation_method            fapswitch 2.2
_symmetry_space_group_name_H-M    P1
_symmetry_Int_Tables_number       1
_space_group_crystal_system       triclinic
_cell_length_a                    18.31743
_cell_length_b                    18.317787
_cell_length_c                    51.429742
_cell_angle_alpha                 89.997012
_cell_angle_beta                  90.000174
_cell_angle_gamma                 89.991443
_cell_volume                      17256.4670094

loop_
_atom_site_label
_atom_site_type_symbol
_atom_site_description
_atom_site_fract_x
_atom_site_fract_y
_atom_site_fract_z
_atom_type_partial_charge
Zn1   Zn    Zn3+2 0.913060 0.500000 0.727930 1.065199
Zn2   Zn    Zn3+2 0.086940 0.500000 0.272070 1.063102
Zn3   Zn    Zn3+2 0.500000 0.913060 0.727930 1.065172
Zn4   Zn    Zn3+2 0.500000 0.086940 0.272070 1.063132
Zn5   Zn    Zn3+2 0.086940 0.500000 0.727930 1.065201
Zn6   Zn    Zn3+2 0.913060 0.500000 0.272070 1.063118
Zn7   Zn    Zn3+2 0.500000 0.086940 0.727930 1.065175
Zn8   Zn    Zn3+2 0.500000 0.913060 0.272070 1.063143
Zn9   Zn    Zn3+2 0.413060 1.000000 0.227930 1.062698
Zn10  Zn    Zn3+2 0.586940 0.000000 0.772070 1.065233
Zn11  Zn    Zn3+2 1.000000 0.413060 0.227930 1.062803
Zn12  Zn    Zn3+2 0.000000 0.586940 0.772070 1.065226
Zn13  Zn    Zn3+2 0.586940 1.000000 0.227930 1.062742
Zn14  Zn    Zn3+2 0.413060 0.000000 0.772070 1.065234
Zn15  Zn    Zn3+2 0.000000 0.586940 0.227930 1.062671
Zn16  Zn    Zn3+2 1.000000 0.413060 0.772070 1.065191
O1    O     O_3   0.000000 0.500000 0.750000 -0.529873
O2    O     O_3   1.000000 0.500000 0.250000 -0.528569
O3    O     O_3   0.500000 0.000000 0.750000 -0.529869
O4    O     O_3   0.500000 0.000000 0.250000 -0.528587
O5    O     O_R   1.000000 0.439150 0.807730 -0.624261
O6    O     O_R   0.000000 0.560850 0.192270 -0.633763
O7    O     O_R   0.560850 0.000000 0.807730 -0.624162
O8    O     O_R   0.439150 0.000000 0.192270 -0.633755
O9    O     O_R   1.000000 0.560850 0.807730 -0.624165
O10   O     O_R   0.000000 0.439150 0.192270 -0.633922
O11   O     O_R   0.439150 0.000000 0.807730 -0.624159
O12   O     O_R   0.560850 0.000000 0.192270 -0.633726
O13   O     O_R   0.500000 0.939150 0.307730 -0.633580
O14   O     O_R   0.500000 0.060850 0.692270 -0.624277
O15   O     O_R   0.060850 0.500000 0.307730 -0.633658
O16   O     O_R   0.939150 0.500000 0.692270 -0.624208
O17   O     O_R   0.500000 0.060850 0.307730 -0.633571
O18   O     O_R   0.500000 0.939150 0.692270 -0.624264
O19   O     O_R   0.939150 0.500000 0.307730 -0.633656
O20   O     O_R   0.060850 0.500000 0.692270 -0.624206
O21   O     O_R   0.914360 0.646040 0.764890 -0.614050
O22   O     O_R   0.085640 0.353960 0.235110 -0.606348
O23   O     O_R   0.353960 0.914360 0.764890 -0.613928
O24   O     O_R   0.646040 0.085640 0.235110 -0.615871
O25   O     O_R   0.085640 0.353960 0.764890 -0.614063
O26   O     O_R   0.914360 0.646040 0.235110 -0.606310
O27   O     O_R   0.646040 0.085640 0.764890 -0.613928
O28   O     O_R   0.353960 0.914360 0.235110 -0.615917
O29   O     O_R   0.914360 0.353960 0.235110 -0.615266
O30   O     O_R   0.085640 0.646040 0.764890 -0.614403
O31   O     O_R   0.353960 0.085640 0.235110 -0.605980
O32   O     O_R   0.646040 0.914360 0.764890 -0.614531
O33   O     O_R   0.085640 0.646040 0.235110 -0.615376
O34   O     O_R   0.914360 0.353960 0.764890 -0.614419
O35   O     O_R   0.646040 0.914360 0.235110 -0.605969
O36   O     O_R   0.353960 0.085640 0.764890 -0.614528
O37   O     O_R   0.414360 0.146040 0.264890 -0.606453
O38   O     O_R   0.585640 0.853960 0.735110 -0.614107
O39   O     O_R   0.853960 0.414360 0.264890 -0.615013
O40   O     O_R   0.146040 0.585640 0.735110 -0.614434
O41   O     O_R   0.585640 0.853960 0.264890 -0.606458
O42   O     O_R   0.414360 0.146040 0.735110 -0.614114
O43   O     O_R   0.146040 0.585640 0.264890 -0.614972
O44   O     O_R   0.853960 0.414360 0.735110 -0.614432
O45   O     O_R   0.414360 0.853960 0.735110 -0.614407
O46   O     O_R   0.585640 0.146040 0.264890 -0.614781
O47   O     O_R   0.853960 0.585640 0.735110 -0.614077
O48   O     O_R   0.146040 0.414360 0.264890 -0.606357
O49   O     O_R   0.585640 0.146040 0.735110 -0.614417
O50   O     O_R   0.414360 0.853960 0.264890 -0.614764
O51   O     O_R   0.146040 0.414360 0.735110 -0.614071
O52   O     O_R   0.853960 0.585640 0.264890 -0.606354
C1    C     C_R   1.000000 0.499995 0.820239 0.867028
C2    C     C_R   0.000002 0.500007 0.179759 0.847732
C3    C     C_R   0.500000 0.000000 0.820239 0.866940
C4    C     C_R   0.500000 1.000000 0.179756 0.847581
C5    C     C_R   0.500000 0.999998 0.320241 0.847895
C6    C     C_R   0.500000 0.000002 0.679759 0.867153
C7    C     C_R   0.000000 0.500000 0.320243 0.847968
C8    C     C_R   1.000000 0.500000 0.679760 0.867050
C9    C     C_R   0.859739 0.640257 0.750001 0.944235
C10   C     C_R   0.140256 0.359742 0.250001 0.960283
C11   C     C_R   0.359738 0.859740 0.750000 0.944488
C12   C     C_R   0.640260 0.140260 0.249999 0.939554
C13   C     C_R   0.140260 0.359742 0.750001 0.944262
C14   C     C_R   0.859744 0.640259 0.250001 0.960410
C15   C     C_R   0.640261 0.140261 0.749999 0.944516
C16   C     C_R   0.359740 0.859739 0.250000 0.939576
C17   C     C_R   0.859740 0.359740 0.250000 0.939725
C18   C     C_R   0.140260 0.640261 0.749999 0.944655
C19   C     C_R   0.359741 0.140256 0.250000 0.960188
C20   C     C_R   0.640258 0.859742 0.750001 0.944411
C21   C     C_R   0.140260 0.640261 0.250000 0.939719
C22   C     C_R   0.859741 0.359738 0.749999 0.944688
C23   C     C_R   0.640258 0.859742 0.250001 0.960228
C24   C     C_R   0.359742 0.140260 0.750001 0.944432
C25   C     C_R   0.786140 0.267830 0.726631 0.213949
C26   C     C_R   0.269063 0.676969 0.244582 0.208533
C27   C     C_R   0.732277 0.786253 0.726646 0.213241
C28   C     C_R   0.266606 0.212624 0.273234 0.223190
C29   C     C_R   0.213866 0.732171 0.726631 0.213952
C30   C     C_R   0.730937 0.323033 0.244582 0.208609
C31   C     C_R   0.267724 0.213756 0.726645 0.213238
C32   C     C_R   0.733385 0.787360 0.273235 0.223181
C33   C     C_R   0.787366 0.733382 0.273235 0.223080
C34   C     C_R   0.213751 0.267724 0.726646 0.213405
C35   C     C_R   0.676967 0.269062 0.244580 0.208377
C36   C     C_R   0.267827 0.786140 0.726631 0.214109
C37   C     C_R   0.212629 0.266604 0.273234 0.223126
C38   C     C_R   0.786248 0.732282 0.726645 0.213401
C39   C     C_R   0.323033 0.730939 0.244582 0.208346
C40   C     C_R   0.732176 0.213863 0.726632 0.214104
C41   C     C_R   0.230937 0.823031 0.255417 0.208574
C42   C     C_R   0.713850 0.232184 0.773364 0.213769
C43   C     C_R   0.233398 0.287382 0.226770 0.222650
C44   C     C_R   0.767723 0.713751 0.773358 0.213937
C45   C     C_R   0.769063 0.176967 0.255417 0.208607
C46   C     C_R   0.286144 0.767815 0.773365 0.213766
C47   C     C_R   0.766612 0.712635 0.226769 0.222788
C48   C     C_R   0.232275 0.286239 0.773359 0.213931
C49   C     C_R   0.286240 0.232262 0.773359 0.213638
C50   C     C_R   0.712626 0.766607 0.226770 0.222942
C51   C     C_R   0.232174 0.713855 0.773365 0.213468
C52   C     C_R   0.823033 0.230938 0.255418 0.208566
C53   C     C_R   0.713761 0.767731 0.773359 0.213634
C54   C     C_R   0.287380 0.233407 0.226771 0.222843
C55   C     C_R   0.767823 0.286141 0.773365 0.213462
C56   C     C_R   0.176966 0.769062 0.255416 0.208536
C57   C     C_R   0.696272 0.196276 0.749998 -0.254320
C58   C     C_R   0.303728 0.803727 0.250000 -0.261202
C59   C     C_R   0.803725 0.696269 0.750001 -0.254605
C60   C     C_R   0.196270 0.303731 0.250002 -0.247498
C61   C     C_R   0.303726 0.803727 0.749999 -0.254313
C62   C     C_R   0.696273 0.196272 0.249999 -0.261170
C63   C     C_R   0.196272 0.303728 0.750002 -0.254616
C64   C     C_R   0.803732 0.696272 0.250001 -0.247408
C65   C     C_R   0.696268 0.803727 0.250002 -0.247797
C66   C     C_R   0.303729 0.196270 0.750002 -0.254033
C67   C     C_R   0.803727 0.303728 0.250001 -0.261110
C68   C     C_R   0.196273 0.696271 0.749998 -0.253725
C69   C     C_R   0.303729 0.196270 0.250001 -0.247820
C70   C     C_R   0.696273 0.803733 0.750002 -0.254024
C71   C     C_R   0.196272 0.696273 0.249999 -0.261165
C72   C     C_R   0.803729 0.303726 0.749999 -0.253731
C73   C     C_R   0.504382 0.064803 0.944831 0.515137
C74   C     C_R   0.500860 0.935054 0.055144 0.514967
C75   C     C_R   0.935251 0.502345 0.944850 0.514938
C76   C     C_R   0.065192 0.503175 0.055116 0.516259
C77   C     C_R   0.495622 0.935198 0.944833 0.515138
C78   C     C_R   0.499142 0.064943 0.055141 0.514997
C79   C     C_R   0.065046 0.497164 0.944820 0.515105
C80   C     C_R   0.935432 0.496899 0.055157 0.516760
C81   C     C_R   0.002890 0.564910 0.444852 0.515091
C82   C     C_R   0.002727 0.435130 0.555160 0.515251
C83   C     C_R   0.435228 0.995175 0.444847 0.515105
C84   C     C_R   0.564952 0.999245 0.555152 0.515259
C85   C     C_R   0.997129 0.435143 0.444855 0.515044
C86   C     C_R   0.997285 0.564915 0.555158 0.515229
C87   C     C_R   0.564770 0.004805 0.444846 0.515094
C88   C     C_R   0.435062 0.000767 0.555153 0.515251
N1    N     N_R   0.500001 0.000001 0.931928 -0.342984
N2    N     N_R   0.500000 0.999999 0.068047 -0.342304
N3    N     N_R   0.000125 0.499799 0.931929 -0.343006
N4    N     N_R   0.000347 0.500065 0.068039 -0.347403
N5    N     N_R   0.000008 0.500026 0.431946 -0.342220
N6    N     N_R   0.000003 0.500022 0.568065 -0.343073
N7    N     N_R   0.499998 0.999989 0.431941 -0.342201
N8    N     N_R   0.500008 0.000008 0.568059 -0.343081
C89   C     C_R   0.499740 0.932872 0.972359 -0.058924
C90   C     C_R   0.503394 0.067040 0.027616 -0.058359
C91   C     C_R   0.067303 0.501428 0.972344 -0.058992
C92   C     C_R   0.933133 0.500965 0.027628 -0.061136
C93   C     C_R   0.500272 0.067129 0.972357 -0.058947
C94   C     C_R   0.496617 0.932957 0.027618 -0.058327
C95   C     C_R   0.933095 0.497948 0.972369 -0.058777
C96   C     C_R   0.067379 0.498668 0.027601 -0.060068
C97   C     C_R   0.001422 0.432917 0.472377 -0.058394
C98   C     C_R   0.001560 0.567132 0.527635 -0.058897
C99   C     C_R   0.567128 0.000621 0.472370 -0.058408
C100  C     C_R   0.432975 0.996409 0.527631 -0.058894
C101  C     C_R   0.998609 0.567136 0.472375 -0.058398
C102  C     C_R   0.998467 0.432914 0.527636 -0.058904
C103  C     C_R   0.432874 0.999363 0.472371 -0.058410
C104  C     C_R   0.567036 0.003593 0.527629 -0.058893
C105  C     C_R   0.500006 0.000000 0.986183 -0.090447
C106  C     C_R   0.500005 0.999999 0.013792 -0.091195
C107  C     C_R   0.000214 0.499703 0.986183 -0.089464
C108  C     C_R   0.000240 0.499759 0.013790 -0.092243
C109  C     C_R   0.000015 0.500026 0.486202 -0.091083
C110  C     C_R   0.000014 0.500024 0.513810 -0.090594
C111  C     C_R   0.500002 0.999994 0.486196 -0.091099
C112  C     C_R   0.500004 0.999998 0.513804 -0.090615
C113  C     C_R   0.501715 0.865959 0.986382 0.168365
C114  C     C_R   0.509023 0.133744 0.013594 0.170911
C115  C     C_R   0.134154 0.505477 0.986349 0.168571
C116  C     C_R   0.866250 0.504344 0.013616 0.170193
C117  C     C_R   0.498306 0.134042 0.986378 0.168364
C118  C     C_R   0.490998 0.866253 0.013598 0.170832
C119  C     C_R   0.866297 0.493749 0.986393 0.169049
C120  C     C_R   0.134214 0.495025 0.013579 0.171279
C121  C     C_R   0.005186 0.366076 0.486395 0.170326
C122  C     C_R   0.005439 0.633966 0.513615 0.169252
C123  C     C_R   0.634057 0.998928 0.486389 0.170208
C124  C     C_R   0.366289 0.990478 0.513614 0.169457
C125  C     C_R   0.994859 0.633977 0.486392 0.170292
C126  C     C_R   0.994604 0.366081 0.513618 0.169218
C127  C     C_R   0.365947 0.001057 0.486391 0.170202
C128  C     C_R   0.633720 0.009516 0.513611 0.169449
O53   O     O_2   0.514592 0.126204 0.930841 -0.546542
O54   O     O_2   0.507738 0.873186 0.069132 -0.550703
O55   O     O_2   0.873559 0.511042 0.930891 -0.546132
O56   O     O_2   0.126788 0.512594 0.069067 -0.546105
O57   O     O_2   0.485405 0.873797 0.930847 -0.546523
O58   O     O_2   0.492257 0.126812 0.069127 -0.550602
O59   O     O_2   0.126679 0.488544 0.930823 -0.546275
O60   O     O_2   0.873872 0.488018 0.069171 -0.547591
O61   O     O_2   0.011785 0.626531 0.430871 -0.551284
O62   O     O_2   0.011446 0.373486 0.569144 -0.545918
O63   O     O_2   0.373899 0.984467 0.430866 -0.551483
O64   O     O_2   0.626835 0.992365 0.569132 -0.545855
O65   O     O_2   0.988224 0.373521 0.430877 -0.551262
O66   O     O_2   0.988555 0.626559 0.569138 -0.545912
O67   O     O_2   0.626098 0.015511 0.430863 -0.551477
O68   O     O_2   0.373181 0.007653 0.569133 -0.545849
C129  C     C_R   0.066452 0.505397 0.609869 0.181220
C130  C     C_R   0.066421 0.494208 0.390141 0.183583
C131  C     C_R   0.496417 0.933436 0.609864 0.181173
C132  C     C_R   0.507525 0.933748 0.390136 0.183454
C133  C     C_R   0.933549 0.494641 0.609869 0.181224
C134  C     C_R   0.933590 0.505831 0.390142 0.183589
C135  C     C_R   0.503598 0.066577 0.609863 0.181183
C136  C     C_R   0.492469 0.066236 0.390134 0.183451
C137  C     C_R   0.566601 0.002937 0.109851 0.184490
C138  C     C_R   0.566356 0.993522 0.890125 0.180996
C139  C     C_R   0.994307 0.566803 0.109922 0.182765
C140  C     C_R   0.005561 0.566328 0.890140 0.181067
C141  C     C_R   0.433398 0.997060 0.109851 0.184494
C142  C     C_R   0.433645 0.006479 0.890125 0.180995
C143  C     C_R   0.006360 0.433926 0.109833 0.181266
C144  C     C_R   0.994542 0.433445 0.890113 0.181057
C145  C     C_R   0.065892 0.505207 0.637147 -0.152135
C146  C     C_R   0.065859 0.494364 0.362863 -0.168542
C147  C     C_R   0.496543 0.934000 0.637142 -0.152047
C148  C     C_R   0.507305 0.934302 0.362857 -0.168572
C149  C     C_R   0.934108 0.494812 0.637146 -0.152138
C150  C     C_R   0.934147 0.505653 0.362863 -0.168537
C151  C     C_R   0.503464 0.066010 0.637140 -0.152058
C152  C     C_R   0.492692 0.065686 0.362856 -0.168568
C153  C     C_R   0.566036 0.002790 0.137129 -0.168942
C154  C     C_R   0.565803 0.993741 0.862849 -0.152249
C155  C     C_R   0.994261 0.565928 0.137175 -0.184891
C156  C     C_R   0.005351 0.565819 0.862862 -0.152242
C157  C     C_R   0.433963 0.997207 0.137129 -0.168956
C158  C     C_R   0.434198 0.006260 0.862848 -0.152248
C159  C     C_R   0.006048 0.434335 0.137111 -0.168084
C160  C     C_R   0.994691 0.434058 0.862837 -0.152153
H1    H     H_    0.117057 0.509363 0.647612 0.192792
H2    H     H_    0.116993 0.489840 0.352398 0.189184
H3    H     H_    0.493781 0.882737 0.647605 0.192792
H4    H     H_    0.513161 0.883309 0.352389 0.189539
H5    H     H_    0.882943 0.490652 0.647611 0.192790
H6    H     H_    0.883010 0.510173 0.352399 0.189186
H7    H     H_    0.506225 0.117271 0.647603 0.192788
H8    H     H_    0.486836 0.116681 0.352387 0.189539
H9    H     H_    0.617327 0.005002 0.147590 0.187013
H10   H     H_    0.616891 0.988733 0.852382 0.192817
H11   H     H_    0.989478 0.617120 0.147607 0.194752
H12   H     H_    0.009606 0.616990 0.852405 0.192812
H13   H     H_    0.382671 0.994995 0.147590 0.186990
H14   H     H_    0.383110 0.011268 0.852381 0.192820
H15   H     H_    0.010715 0.383172 0.147551 0.188887
H16   H     H_    0.990413 0.382922 0.852361 0.192854
C161  C     C_R   1.000000 0.500005 0.650970 -0.102241
C162  C     C_R   0.000002 0.500004 0.349038 -0.101454
C163  C     C_R   0.500001 0.000004 0.650966 -0.102336
C164  C     C_R   0.499999 0.999995 0.349033 -0.101780
C165  C     C_R   0.499999 0.999998 0.150957 -0.099127
C166  C     C_R   0.500000 0.000001 0.849027 -0.102138
C167  C     C_R   0.000079 0.500069 0.150968 -0.097005
C168  C     C_R   0.000010 0.499963 0.849028 -0.102231
C169  C     C_R   0.000001 0.500021 0.596124 0.307509
C170  C     C_R   0.000006 0.500025 0.403887 0.309996
C171  C     C_R   0.500009 0.000007 0.596118 0.307504
C172  C     C_R   0.499996 0.999991 0.403881 0.309933
C173  C     C_R   0.499999 0.999999 0.096106 0.310195
C174  C     C_R   0.500000 0.000000 0.903870 0.307619
C175  C     C_R   0.000401 0.500386 0.096092 0.317652
C176  C     C_R   0.000073 0.499859 0.903871 0.307588
Br1   Br    Br    0.838365 0.289840 0.694912 -0.374739
Br2   Br    Br    0.294315 0.577425 0.235890 -0.335366
Br3   Br    Br    0.710409 0.838638 0.694947 -0.367960
Br4   Br    Br    0.287097 0.158746 0.304723 -0.363080
Br5   Br    Br    0.161649 0.710162 0.694910 -0.374744
Br6   Br    Br    0.705684 0.422579 0.235889 -0.335222
Br7   Br    Br    0.289594 0.161383 0.694946 -0.367962
Br8   Br    Br    0.712885 0.841217 0.304725 -0.363086
Br9   Br    Br    0.841232 0.712882 0.304724 -0.362319
Br10  Br    Br    0.161361 0.289589 0.694948 -0.367264
Br11  Br    Br    0.577422 0.294313 0.235886 -0.335563
Br12  Br    Br    0.289829 0.838372 0.694912 -0.373891
Br13  Br    Br    0.158755 0.287088 0.304723 -0.362311
Br14  Br    Br    0.838636 0.710426 0.694948 -0.367270
Br15  Br    Br    0.422580 0.705688 0.235889 -0.335644
Br16  Br    Br    0.710179 0.161635 0.694913 -0.373891
Br17  Br    Br    0.205684 0.922576 0.264107 -0.334833
Br18  Br    Br    0.661586 0.210219 0.805078 -0.368107
Br19  Br    Br    0.212916 0.341267 0.195283 -0.361462
Br20  Br    Br    0.789588 0.661362 0.805056 -0.368704
Br21  Br    Br    0.794316 0.077421 0.264109 -0.334813
Br22  Br    Br    0.338400 0.789780 0.805080 -0.368093
Br23  Br    Br    0.787107 0.658774 0.195279 -0.363010
Br24  Br    Br    0.210409 0.338616 0.805057 -0.368716
Br25  Br    Br    0.338589 0.210352 0.805063 -0.374200
Br26  Br    Br    0.658728 0.787072 0.195285 -0.357818
Br27  Br    Br    0.210168 0.661627 0.805085 -0.373455
Br28  Br    Br    0.922579 0.205685 0.264111 -0.334825
Br29  Br    Br    0.661413 0.789632 0.805063 -0.374191
Br30  Br    Br    0.341285 0.212958 0.195287 -0.357274
Br31  Br    Br    0.789827 0.338362 0.805085 -0.373492
Br32  Br    Br    0.077419 0.794314 0.264107 -0.334849
C177  C     C_3   0.521728 0.794654 0.973075 -0.757394
H17   H     H_    0.543706 0.753743 0.986930 0.219048
H18   H     H_    0.473248 0.771098 0.963208 0.271491
H19   H     H_    0.566774 0.803504 0.958975 0.261032
C178  C     C_3   0.532915 0.203836 0.026901 -0.762726
H20   H     H_    0.557124 0.243464 0.013048 0.219107
H21   H     H_    0.485795 0.230040 0.036762 0.271603
H22   H     H_    0.577392 0.192513 0.041007 0.259413
C179  C     C_3   0.204822 0.527431 0.973001 -0.758002
H23   H     H_    0.245127 0.550659 0.986818 0.218716
H24   H     H_    0.229746 0.479580 0.963167 0.271827
H25   H     H_    0.194640 0.572109 0.958864 0.260755
C180  C     C_3   0.795366 0.525705 0.026944 -0.759356
H26   H     H_    0.754805 0.548402 0.013107 0.219054
H27   H     H_    0.770949 0.477696 0.036839 0.269816
H28   H     H_    0.805099 0.570616 0.041024 0.262764
C181  C     C_3   0.478310 0.205352 0.973070 -0.757488
H29   H     H_    0.456356 0.246274 0.986923 0.219025
H30   H     H_    0.526793 0.228890 0.963197 0.271487
H31   H     H_    0.433252 0.196516 0.958973 0.261032
C182  C     C_3   0.467123 0.796153 0.026907 -0.762486
H32   H     H_    0.442935 0.756514 0.013055 0.219163
H33   H     H_    0.514246 0.769967 0.036773 0.271565
H34   H     H_    0.422634 0.807464 0.041009 0.259458
C183  C     C_3   0.795711 0.471401 0.973073 -0.758653
H35   H     H_    0.806108 0.426904 0.958885 0.260612
H36   H     H_    0.755678 0.447776 0.986907 0.218611
H37   H     H_    0.770398 0.519150 0.963301 0.271881
C184  C     C_3   0.205018 0.473424 0.026912 -0.761173
H38   H     H_    0.195061 0.428910 0.041134 0.260312
H39   H     H_    0.245281 0.450113 0.013093 0.219469
H40   H     H_    0.229861 0.521467 0.036649 0.270606
C185  C     C_3   0.027017 0.295335 0.473070 -0.761523
H41   H     H_    0.050210 0.255047 0.486905 0.219524
H42   H     H_    0.979113 0.270471 0.463253 0.270969
H43   H     H_    0.071690 0.305392 0.458922 0.260053
C186  C     C_3   0.027363 0.704674 0.526939 -0.758817
H44   H     H_    0.050570 0.744942 0.513102 0.218655
H45   H     H_    0.979502 0.729595 0.536768 0.272508
H46   H     H_    0.072051 0.694551 0.541076 0.259987
C187  C     C_3   0.705454 0.979321 0.473066 -0.761313
H47   H     H_    0.746473 0.957459 0.486903 0.219501
H48   H     H_    0.696817 0.934313 0.458934 0.260179
H49   H     H_    0.728785 0.027962 0.463230 0.270896
C188  C     C_3   0.296294 0.966370 0.526941 -0.759077
H50   H     H_    0.256776 0.941896 0.513108 0.218636
H51   H     H_    0.307800 0.922041 0.541089 0.259870
H52   H     H_    0.269880 0.013440 0.536761 0.272509
C189  C     C_3   0.973057 0.704728 0.473065 -0.761499
H53   H     H_    0.949900 0.745034 0.486899 0.219522
H54   H     H_    0.020967 0.729563 0.463241 0.270972
H55   H     H_    0.928368 0.694692 0.458921 0.260064
C190  C     C_3   0.972705 0.295362 0.526943 -0.758784
H56   H     H_    0.949535 0.255077 0.513107 0.218656
H57   H     H_    0.020571 0.270469 0.536779 0.272513
H58   H     H_    0.927998 0.305465 0.541074 0.259997
C191  C     C_3   0.294546 0.020655 0.473068 -0.761312
H59   H     H_    0.303177 0.065662 0.458934 0.260181
H60   H     H_    0.271220 0.972010 0.463235 0.270894
H61   H     H_    0.253526 0.042513 0.486904 0.219501
C192  C     C_3   0.703719 0.033621 0.526935 -0.759072
H62   H     H_    0.743239 0.058084 0.513099 0.218639
H63   H     H_    0.692219 0.077959 0.541078 0.259872
H64   H     H_    0.730128 0.986553 0.536759 0.272511
C193  C     C_3   0.137809 0.511230 0.595508 -0.820357
H65   H     H_    0.184901 0.514643 0.609058 0.247320
H66   H     H_    0.145495 0.462530 0.582955 0.254838
H67   H     H_    0.137823 0.561015 0.583198 0.246557
C194  C     C_3   0.137742 0.487970 0.404504 -0.831863
H68   H     H_    0.184816 0.484276 0.390955 0.245594
H69   H     H_    0.145689 0.536635 0.417053 0.253321
H70   H     H_    0.137484 0.438195 0.416819 0.248979
C195  C     C_3   0.492586 0.861948 0.595503 -0.820366
H71   H     H_    0.490495 0.814776 0.609053 0.247278
H72   H     H_    0.442824 0.860540 0.583192 0.246508
H73   H     H_    0.541487 0.855634 0.582951 0.254892
C196  C     C_3   0.515693 0.862619 0.404499 -0.831438
H74   H     H_    0.467275 0.853358 0.417055 0.253313
H75   H     H_    0.520640 0.815661 0.390949 0.245793
H76   H     H_    0.565457 0.864215 0.416806 0.248912
C197  C     C_3   0.862192 0.488830 0.595506 -0.820356
H77   H     H_    0.815097 0.485427 0.609056 0.247317
H78   H     H_    0.854521 0.537535 0.582954 0.254853
H79   H     H_    0.862166 0.439048 0.583197 0.246562
C198  C     C_3   0.862272 0.512094 0.404506 -0.831855
H80   H     H_    0.815192 0.515734 0.390957 0.245594
H81   H     H_    0.854341 0.463464 0.417074 0.253300
H82   H     H_    0.862524 0.561904 0.416800 0.249019
C199  C     C_3   0.507441 0.138066 0.595499 -0.820357
H83   H     H_    0.509520 0.185236 0.609048 0.247276
H84   H     H_    0.557213 0.139474 0.583194 0.246523
H85   H     H_    0.458550 0.144380 0.582942 0.254881
C200  C     C_3   0.484298 0.137363 0.404496 -0.831441
H86   H     H_    0.479363 0.184323 0.390946 0.245793
H87   H     H_    0.434527 0.135768 0.416799 0.248917
H88   H     H_    0.532709 0.146618 0.417056 0.253308
C201  C     C_3   0.638118 0.006138 0.095486 -0.833608
H89   H     H_    0.685306 0.007919 0.109033 0.244624
H90   H     H_    0.644051 0.957135 0.082962 0.257348
H91   H     H_    0.639909 0.055831 0.083145 0.245399
C202  C     C_3   0.637599 0.986445 0.904489 -0.819849
H92   H     H_    0.684620 0.982129 0.890939 0.247442
H93   H     H_    0.646160 0.035040 0.917019 0.254488
H94   H     H_    0.636718 0.936711 0.916821 0.246997
C203  C     C_3   0.987844 0.639402 0.096361 -0.819256
H95   H     H_    0.935477 0.665731 0.101873 0.253334
H96   H     H_    0.033633 0.675299 0.102417 0.248609
H97   H     H_    0.989348 0.634644 0.074883 0.234566
C204  C     C_3   0.011519 0.637650 0.904516 -0.819987
H98   H     H_    0.061331 0.637584 0.916811 0.247347
H99   H     H_    0.014967 0.684764 0.890975 0.247409
H100  H     H_    0.962856 0.645378 0.917084 0.254016
C205  C     C_3   0.361881 0.993862 0.095485 -0.833535
H101  H     H_    0.314693 0.992069 0.109033 0.244591
H102  H     H_    0.355944 0.042870 0.082963 0.257444
H103  H     H_    0.360093 0.944175 0.083143 0.245346
C206  C     C_3   0.362402 0.013556 0.904488 -0.819822
H104  H     H_    0.315381 0.017876 0.890938 0.247439
H105  H     H_    0.353840 0.964960 0.917019 0.254505
H106  H     H_    0.363284 0.063288 0.916820 0.246993
C207  C     C_3   0.012925 0.362644 0.095456 -0.832819
H107  H     H_    0.016679 0.315546 0.108993 0.245931
H108  H     H_    0.964371 0.354554 0.082863 0.252541
H109  H     H_    0.062786 0.363081 0.083186 0.249570
C208  C     C_3   0.988605 0.362067 0.904458 -0.820080
H110  H     H_    0.985111 0.315006 0.890897 0.247427
H111  H     H_    0.037300 0.354277 0.917008 0.253998
H112  H     H_    0.938826 0.362097 0.916771 0.247284

loop_
_geom_bond_atom_site_label_1
_geom_bond_atom_site_label_2
_geom_bond_distance
_ccdc_geom_bond_type
C187  H47   1.109612 S    
C204  H98   1.110131 S    
Zn5   O51   1.941302 S    
C142  C158  1.402881 A    
C182  H32   1.109606 S    
C137  C201  1.505136 S    
C207  H107  1.110718 S    
C146  H2    1.083437 S    
C95   C107  1.420311 A    
N5    C170  1.443072 S    
C80   O60   1.348148 S    
Zn3   O38   1.941292 S    
C207  H109  1.110129 S    
C87   C99   1.418273 A    
Zn5   O20   1.895227 S    
C85   C97   1.418241 A    
Zn6   O19   1.895227 S    
C80   N4    1.362456 A    
C132  C196  1.505161 S    
C146  C162  1.404075 A    
C115  C120  1.413445 A    
C192  H64   1.110163 S    
C78   O58   1.348188 S    
Zn13  O35   1.941302 S    
C113  C118  1.413427 A    
O34   C22   1.264367 A    
Zn14  O36   1.941300 S    
Zn3   O3    1.955698 S    
C76   N4    1.362297 A    
C127  C191  1.519465 S    
C74   C94   1.418284 A    
C190  H58   1.110426 S    
C40   Br16  1.933633 S    
C201  H90   1.110131 S    
C83   O63   1.348198 S    
C26   C71   1.407239 A    
C150  H6    1.083442 S    
C74   N2    1.362347 A    
C186  H45   1.110159 S    
C100  C112  1.420397 A    
C16   C58   1.451111 S    
C188  H52   1.110163 S    
C54   Br30  1.933136 S    
C4    C165  1.481089 S    
C116  C119  1.413470 A    
C154  C166  1.404005 A    
C54   C69   1.407025 A    
C95   C119  1.422408 A    
C191  H61   1.109609 S    
Zn2   O43   1.941563 S    
C208  H112  1.110140 S    
C93   C117  1.422562 A    
O22   C10   1.264371 A    
Zn3   O18   1.895207 S    
C104  C128  1.422520 A    
C181  H29   1.109593 S    
C38   C59   1.407255 A    
C143  C175  1.411838 A    
C115  C179  1.519469 S    
C85   N5    1.362356 A    
C46   Br22  1.933582 S    
C80   C92   1.418387 A    
C84   C104  1.418249 A    
C177  H19   1.110425 S    
C107  C108  1.419801 A    
C134  C198  1.505134 S    
C42   C55   1.398062 A    
C45   C52   1.398206 A    
C77   N1    1.362338 A    
O40   C18   1.264388 A    
C136  C152  1.402969 A    
C137  C173  1.411005 A    
C206  H106  1.110155 S    
C8    C161  1.480678 S    
C73   C93   1.418283 A    
N3    C176  1.442991 S    
C88   O68   1.348202 S    
C184  H40   1.110167 S    
C38   Br14  1.933576 S    
C20   C70   1.450882 S    
C79   C91   1.418292 A    
C73   N1    1.362340 A    
C123  C128  1.413460 A    
C187  H49   1.110162 S    
Zn7   O3    1.955600 S    
C36   C61   1.407323 A    
C147  H3    1.083445 S    
C195  H71   1.110720 S    
C204  H100  1.110149 S    
C119  C183  1.519459 S    
C117  C181  1.519435 S    
C155  C167  1.403486 A    
C159  H15   1.083446 S    
C182  H34   1.110420 S    
O11   C3    1.286946 A    
C181  H31   1.110421 S    
Zn13  O4    1.955625 S    
C152  C164  1.404026 A    
Zn14  O3    1.955624 S    
C139  C155  1.401737 A    
Zn15  O26   1.941316 S    
C140  C204  1.505173 S    
C22   C72   1.451089 S    
O44   C22   1.264352 A    
C91   C115  1.422613 A    
C196  H74   1.110146 S    
C138  C174  1.411059 A    
C51   C68   1.407311 A    
C92   C116  1.422693 A    
C52   C67   1.407241 A    
C197  H78   1.110131 S    
C32   Br8   1.933194 S    
C131  C147  1.402910 A    
C199  H83   1.110723 S    
C33   Br9   1.933184 S    
C44   Br20  1.933572 S    
C130  C170  1.411054 A    
C29   Br5   1.933645 S    
Zn15  O33   1.941574 S    
C35   C62   1.407242 A    
C81   O61   1.348193 S    
Zn4   O4    1.955693 S    
C33   C64   1.407042 A    
C103  C111  1.420438 A    
C178  H20   1.109609 S    
C200  H86   1.110729 S    
C189  H53   1.109602 S    
C155  H11   1.083917 S    
C156  H12   1.083459 S    
Zn15  O2    1.955600 S    
C141  C173  1.411004 A    
Zn11  O2    1.955698 S    
Zn16  O5    1.895255 S    
O27   C15   1.264378 A    
C56   C71   1.407239 A    
C90   C106  1.420418 A    
C153  H9    1.083411 S    
C198  H80   1.110708 S    
C205  H101  1.110708 S    
C84   O64   1.348204 S    
C97   C109  1.420364 A    
Zn8   O13   1.895255 S    
O46   C12   1.264386 A    
C134  C170  1.411062 A    
O14   C6    1.287028 A    
C13   C63   1.450900 S    
C130  C194  1.505132 S    
C131  C171  1.411057 A    
C132  C172  1.411094 A    
C144  C208  1.505187 S    
O43   C21   1.264358 A    
C157  H13   1.083411 S    
C179  H24   1.110166 S    
C44   C59   1.407272 A    
C193  H67   1.110141 S    
C85   O65   1.348195 S    
C46   C51   1.398064 A    
C9    C59   1.450908 S    
C189  H55   1.110428 S    
C137  C153  1.402951 A    
C74   O54   1.348187 S    
C94   C106  1.420423 A    
C43   C54   1.398220 A    
C180  H27   1.110161 S    
C144  C160  1.402829 A    
C202  H93   1.110120 S    
N6    C169  1.443047 S    
C77   O57   1.348191 S    
C47   C64   1.407029 A    
C183  H36   1.109634 S    
C196  H76   1.110147 S    
C49   Br25  1.933638 S    
C26   C39   1.398204 A    
C148  H4    1.083453 S    
C45   C62   1.407236 A    
C86   C98   1.418265 A    
C97   C121  1.422489 A    
Zn12  O30   1.941555 S    
C15   C57   1.451113 S    
C199  H85   1.110149 S    
C27   C70   1.407261 A    
C87   N7    1.362366 A    
C30   C67   1.407239 A    
C31   C66   1.407261 A    
O5    C1    1.286921 A    
C140  C156  1.402912 A    
O31   C19   1.264389 A    
C116  C180  1.519455 S    
C27   C38   1.397997 A    
C160  C168  1.404027 A    
C122  C186  1.519428 S    
C178  H22   1.110421 S    
C123  C187  1.519465 S    
C121  C126  1.413457 A    
O37   C19   1.264358 A    
C200  H88   1.110145 S    
C132  C148  1.402973 A    
C99   C123  1.422581 A    
C103  C127  1.422585 A    
O51   C13   1.264371 A    
C203  H97   1.108402 S    
C55   Br31  1.933659 S    
C101  C125  1.422505 A    
C198  H82   1.110124 S    
O8    C4    1.287088 A    
C195  H72   1.110127 S    
C205  H103  1.110152 S    
Zn4   O17   1.895207 S    
O48   C10   1.264369 A    
C86   N6    1.362350 A    
C47   Br23  1.933200 S    
C138  C154  1.402881 A    
C136  C200  1.505166 S    
O16   C8    1.286981 A    
C35   Br11  1.933517 S    
C78   N2    1.362341 A    
C7    C162  1.480919 S    
C185  H43   1.110426 S    
C142  C174  1.411059 A    
Zn1   O1    1.955621 S    
O52   C14   1.264340 A    
O38   C20   1.264396 A    
C102  C126  1.422554 A    
C44   C53   1.398011 A    
C39   Br15  1.933515 S    
C197  H77   1.110709 S    
C25   Br1   1.933645 S    
O45   C11   1.264380 A    
C27   Br3   1.933591 S    
C32   C33   1.398231 A    
C149  C161  1.404036 A    
C73   O53   1.348187 S    
C192  H63   1.110435 S    
C99   C111  1.420431 A    
C41   C58   1.407237 A    
C131  C195  1.505131 S    
C43   C60   1.407029 A    
C133  C169  1.411073 A    
C194  H69   1.110164 S    
O42   C24   1.264375 A    
Zn16  O25   1.941315 S    
O6    C2    1.286927 A    
N1    C174  1.443021 S    
C190  H57   1.110158 S    
C28   C37   1.398234 A    
C201  H89   1.110709 S    
Zn4   O37   1.941293 S    
C52   Br28  1.933517 S    
Zn5   O40   1.941592 S    
C144  C176  1.411063 A    
Zn6   O39   1.941594 S    
C10   C60   1.450896 S    
C186  H44   1.109597 S    
C141  C157  1.402957 A    
C34   Br10  1.933576 S    
C77   C89   1.418275 A    
C105  C106  1.419898 A    
C136  C172  1.411091 A    
Zn8   O50   1.941576 S    
C188  H51   1.110439 S    
C185  H41   1.109604 S    
C145  H1    1.083451 S    
C30   Br6   1.933519 S    
Zn16  O34   1.941576 S    
C191  H60   1.110164 S    
C25   C40   1.398076 A    
C208  H111  1.110157 S    
Zn5   O1    1.955625 S    
C133  C149  1.402906 A    
C30   C35   1.398206 A    
C11   C61   1.451122 S    
Zn4   O46   1.941555 S    
C101  C109  1.420373 A    
C124  C188  1.519462 S    
Zn12  O21   1.941293 S    
C177  H18   1.110163 S    
Zn13  O24   1.941592 S    
C104  C112  1.420403 A    
C114  C117  1.413425 A    
O35   C23   1.264358 A    
Zn14  O23   1.941594 S    
C129  C169  1.411066 A    
C160  H16   1.083458 S    
Zn15  O6    1.895255 S    
C75   O55   1.348228 S    
Zn16  O1    1.955598 S    
C206  H105  1.110119 S    
C152  H8    1.083452 S    
Zn12  O1    1.955693 S    
C89   C113  1.422551 A    
O32   C20   1.264377 A    
N8    C171  1.443062 S    
C87   O67   1.348197 S    
Zn14  O11   1.895227 S    
C184  H39   1.109636 S    
C154  H10   1.083459 S    
C207  H108  1.110143 S    
C187  H48   1.110433 S    
Zn7   O14   1.895255 S    
C51   Br27  1.933657 S    
C204  H99   1.110731 S    
O12   C4    1.287089 A    
C100  C124  1.422517 A    
C79   O59   1.348198 S    
C49   C66   1.407273 A    
C182  H33   1.110161 S    
C41   Br17  1.933521 S    
C181  H30   1.110163 S    
C82   N6    1.362353 A    
C24   C66   1.450877 S    
O7    C3    1.286948 A    
C34   C63   1.407256 A    
C158  H14   1.083457 S    
C92   C108  1.420565 A    
C197  H79   1.110125 S    
C94   C118  1.422536 A    
O21   C9    1.264384 A    
O23   C11   1.264413 A    
O39   C17   1.264392 A    
Zn11  O22   1.941292 S    
Zn7   O49   1.941574 S    
Zn9   O4    1.955621 S    
O15   C7    1.287042 A    
Zn10  O3    1.955617 S    
O25   C13   1.264360 A    
Zn13  O12   1.895227 S    
C41   C56   1.398203 A    
C151  H7    1.083445 S    
C93   C105  1.420441 A    
O18   C6    1.287022 A    
C138  C202  1.505123 S    
Zn9   O31   1.941332 S    
C201  H91   1.110158 S    
C50   Br26  1.933143 S    
Zn10  O32   1.941334 S    
O10   C2    1.287102 A    
C46   C61   1.407313 A    
Zn11  O29   1.941556 S    
C81   N5    1.362360 A    
C14   C64   1.450888 S    
C186  H46   1.110425 S    
C194  H68   1.110718 S    
C139  C175  1.413713 A    
C88   C100  1.418249 A    
O41   C23   1.264334 A    
C126  C190  1.519430 S    
O28   C16   1.264352 A    
C5    C164  1.480775 S    
C6    C163  1.480806 S    
C75   N3    1.362317 A    
C36   Br12  1.933637 S    
C76   C96   1.418056 A    
C199  H84   1.110130 S    
C120  C184  1.519427 S    
C75   C95   1.418126 A    
C111  C112  1.419836 A    
C25   C72   1.407323 A    
C113  C177  1.519431 S    
C135  C199  1.505131 S    
C109  C110  1.419847 A    
C143  C207  1.505392 S    
C28   Br4   1.933191 S    
C203  H95   1.110409 S    
C179  H23   1.109587 S    
Zn1   O44   1.941564 S    
C151  C163  1.404075 A    
C29   C36   1.398079 A    
C134  C150  1.402962 A    
C31   C34   1.397993 A    
C129  C145  1.402901 A    
C193  H66   1.110141 S    
C158  C166  1.404006 A    
C145  C161  1.404029 A    
C114  C178  1.519430 S    
C135  C171  1.411060 A    
C76   O56   1.348203 S    
C125  C189  1.519420 S    
Zn2   O2    1.955617 S    
N4    C175  1.442740 S    
C180  H26   1.109579 S    
C102  C110  1.420411 A    
O26   C14   1.264346 A    
C143  C159  1.402917 A    
C79   N3    1.362359 A    
C202  H92   1.110723 S    
C26   Br2   1.933521 S    
C183  H35   1.110435 S    
C118  C182  1.519433 S    
C196  H75   1.110733 S    
O19   C7    1.287047 A    
Zn8   O4    1.955598 S    
C149  H5    1.083455 S    
C150  C162  1.404075 A    
C159  C167  1.403484 A    
C156  C168  1.403999 A    
C189  H54   1.110155 S    
C135  C151  1.402915 A    
Zn8   O41   1.941315 S    
C129  C193  1.505133 S    
O49   C15   1.264354 A    
O13   C5    1.287020 A    
N7    C172  1.443098 S    
C53   Br29  1.933640 S    
C3    C166  1.480554 S    
C48   C49   1.398008 A    
C153  C165  1.404132 A    
C56   Br32  1.933516 S    
O20   C8    1.286979 A    
C83   C103  1.418273 A    
N2    C173  1.443057 S    
C91   C107  1.420493 A    
C178  H21   1.110160 S    
C45   Br21  1.933520 S    
O24   C12   1.264389 A    
C40   C57   1.407324 A    
C86   O66   1.348196 S    
Zn7   O42   1.941316 S    
C82   C102  1.418269 A    
C194  H70   1.110135 S    
C47   C50   1.398218 A    
Zn6   O52   1.941300 S    
C78   C90   1.418273 A    
C203  H96   1.110430 S    
C133  C197  1.505137 S    
C37   Br13  1.933175 S    
C19   C69   1.450909 S    
C31   Br7   1.933589 S    
C128  C192  1.519466 S    
Zn1   O47   1.941332 S    
C198  H81   1.110145 S    
Zn2   O48   1.941334 S    
C139  C203  1.506242 S    
C121  C185  1.519418 S    
Zn3   O45   1.941556 S    
Zn6   O2    1.955624 S    
C98   C122  1.422541 A    
C12   C62   1.451117 S    
C205  H102  1.110128 S    
C28   C69   1.407040 A    
Zn11  O10   1.895207 S    
C21   C71   1.451113 S    
C142  C206  1.505121 S    
C55   C72   1.407310 A    
C130  C146  1.402956 A    
Zn1   O16   1.895230 S    
Zn2   O15   1.895230 S    
C90   C114  1.422529 A    
C53   C70   1.407269 A    
C179  H25   1.110430 S    
O29   C17   1.264383 A    
C195  H73   1.110150 S    
C96   C108  1.420360 A    
C23   C65   1.450903 S    
C122  C125  1.413460 A    
C81   C101  1.418260 A    
C140  C176  1.411125 A    
C192  H62   1.109620 S    
C84   N8    1.362359 A    
C50   C65   1.407026 A    
C17   C67   1.451119 S    
C18   C68   1.451096 S    
C83   N7    1.362365 A    
C42   Br18  1.933583 S    
C180  H28   1.110412 S    
C157  C165  1.404137 A    
C200  H87   1.110147 S    
C202  H94   1.110154 S    
C32   C65   1.407042 A    
C190  H56   1.109593 S    
O47   C9    1.264402 A    
C183  H37   1.110168 S    
O17   C5    1.287014 A    
C1    C168  1.480585 S    
Zn9   O28   1.941564 S    
C2    C167  1.480735 S    
C37   C60   1.407044 A    
Zn10  O27   1.941563 S    
C39   C58   1.407238 A    
O33   C21   1.264354 A    
Zn9   O8    1.895230 S    
Zn10  O7    1.895230 S    
C188  H50   1.109623 S    
C147  C163  1.404080 A    
Zn12  O9    1.895207 S    
C89   C105  1.420434 A    
C148  C164  1.404025 A    
C191  H59   1.110435 S    
C98   C110  1.420397 A    
C208  H110  1.110741 S    
C193  H65   1.110723 S    
C48   C63   1.407275 A    
C124  C127  1.413459 A    
C43   Br19  1.933191 S    
C48   Br24  1.933569 S    
C82   O62   1.348195 S    
C177  H17   1.109600 S    
C96   C120  1.422409 A    
C42   C57   1.407308 A    
O50   C16   1.264360 A    
O9    C1    1.287026 A    
C88   N8    1.362360 A    
C185  H42   1.110155 S    
C206  H104  1.110724 S    
C29   C68   1.407327 A    
C184  H38   1.110440 S    
O36   C24   1.264344 A    
C141  C205  1.505135 S    
O30   C18   1.264393 A    
