data_mof_unit_33434.cif
_audit_creation_date              2013-03-05T16:15:25-0500
_audit_creation_method            fapswitch 2.2
_symmetry_space_group_name_H-M    P1
_symmetry_Int_Tables_number       1
_space_group_crystal_system       triclinic
_cell_length_a                    23.513913
_cell_length_b                    14.241975
_cell_length_c                    13.347984
_cell_angle_alpha                 90.100019
_cell_angle_beta                  90.103962
_cell_angle_gamma                 90.414545
_cell_volume                      4469.90249369

loop_
_atom_site_label
_atom_site_type_symbol
_atom_site_description
_atom_site_fract_x
_atom_site_fract_y
_atom_site_fract_z
_atom_type_partial_charge
O1    O     O_R   0.500000 0.373710 0.576470 -0.596546
O2    O     O_R   0.500000 0.626290 0.423530 -0.595091
O3    O     O_R   0.500000 0.626290 0.576470 -0.596374
O4    O     O_R   0.500000 0.373710 0.423530 -0.598295
C1    C     C_R   0.499949 0.326522 0.499921 0.929625
C2    C     C_R   0.500054 0.673478 0.500079 0.934503
O5    O     O_R   0.416150 0.500000 0.576470 -0.614680
O6    O     O_R   0.583850 0.500000 0.423530 -0.614265
O7    O     O_R   0.583850 0.500000 0.576470 -0.616509
O8    O     O_R   0.416150 0.500000 0.423530 -0.615441
C3    C     C_R   0.387696 0.499570 0.499872 0.963523
C4    C     C_R   0.612322 0.500567 0.500090 0.962314
Zn1   Zn    Zn3+2 0.500000 0.500000 0.602090 0.970500
Zn2   Zn    Zn3+2 0.500000 0.500000 0.397910 0.970898
C5    C     C_R   0.882273 0.590476 0.492045 0.646518
C6    C     C_R   0.117536 0.411468 0.505393 0.595153
C7    C     C_R   0.878715 0.423492 0.508358 0.577020
C8    C     C_R   0.121038 0.578356 0.490248 0.589403
N1    N     N_R   0.852715 0.508329 0.500738 -0.327545
N2    N     N_R   0.147191 0.493644 0.497812 -0.336734
C9    C     C_R   0.938204 0.418124 0.507520 -0.145062
C10   C     C_R   0.061611 0.582960 0.485394 -0.167263
C11   C     C_R   0.941963 0.589841 0.490546 -0.170202
C12   C     C_R   0.057912 0.412361 0.509766 -0.167151
C13   C     C_R   0.969983 0.502422 0.498892 -0.148325
C14   C     C_R   0.029825 0.499237 0.498077 -0.151965
C15   C     C_R   0.966451 0.331250 0.515165 0.360365
C16   C     C_R   0.033431 0.668494 0.467932 0.391653
C17   C     C_R   0.974176 0.673312 0.479206 0.350175
C18   C     C_R   0.025925 0.329333 0.525036 0.382057
O9    O     O_2   0.853530 0.671774 0.483930 -0.504363
O10   O     O_2   0.146070 0.329632 0.507270 -0.518606
O11   O     O_2   0.846535 0.345137 0.517564 -0.566439
O12   O     O_2   0.152894 0.657565 0.489036 -0.519873
C19   C     C_R   0.237233 0.510226 0.408580 0.471274
C20   C     C_R   0.763244 0.493387 0.410055 0.475148
C21   C     C_R   0.236995 0.474277 0.587349 0.474640
C22   C     C_R   0.762989 0.520589 0.590660 0.463557
C23   C     C_R   0.296388 0.513845 0.410032 -0.311993
C24   C     C_R   0.703830 0.491807 0.410199 -0.342782
C25   C     C_R   0.296264 0.476027 0.587574 -0.320106
C26   C     C_R   0.703656 0.518006 0.590217 -0.329795
H1    H     H_    0.319038 0.530822 0.341721 0.181152
H2    H     H_    0.681003 0.481806 0.340410 0.173110
H3    H     H_    0.318913 0.460909 0.656377 0.179887
H4    H     H_    0.680782 0.528718 0.659623 0.177129
C27   C     C_R   0.325924 0.496762 0.499308 -0.181989
C28   C     C_R   0.674136 0.503058 0.500254 -0.167298
C29   C     C_R   0.207720 0.491408 0.497651 0.104211
C30   C     C_R   0.792247 0.510293 0.500072 0.143501
C31   C     C_1   0.499984 0.225902 0.499792 -0.222451
C32   C     C_1   0.500038 0.774099 0.500205 -0.217302
C33   C     C_1   0.500006 0.141323 0.499812 -0.002634
C34   C     C_1   0.500032 0.858679 0.500181 0.000902
C35   C     C_1   0.500021 0.042288 0.499931 0.015200
C36   C     C_1   0.500027 0.957714 0.500058 0.016341
N3    N     N_1   0.500000 0.500000 0.261870 -0.066585
N4    N     N_1   0.500000 0.500000 0.738130 -0.066645
C37   C     C_1   0.500000 0.499997 0.169374 0.067374
C38   C     C_1   0.500000 0.499997 0.830625 0.066783
C39   C     C_1   0.500000 0.499995 0.049528 -0.048667
C40   C     C_1   0.500000 0.499995 0.950472 -0.048849
O13   O     O_3   0.935811 0.247814 0.517135 -0.604540
C41   C     C_3   0.942331 0.200610 0.424517 0.143622
H5    H     H_    0.981251 0.156769 0.427323 0.175349
H6    H     H_    0.945585 0.249916 0.359640 0.108714
C42   C     C_3   0.890657 0.137035 0.406718 -0.313167
H7    H     H_    0.884128 0.090623 0.472487 0.233746
H8    H     H_    0.852138 0.181018 0.397574 0.247769
C43   C     C_3   0.898200 0.076512 0.313290 -0.989922
H9    H     H_    0.904780 0.121477 0.246343 0.271722
H10   H     H_    0.859532 0.032664 0.301387 0.280865
H11   H     H_    0.935311 0.029438 0.322334 0.268032
O14   O     O_3   0.063851 0.749162 0.443860 -0.593704
C44   C     C_3   0.057167 0.769725 0.340572 0.125308
H12   H     H_    0.064973 0.846177 0.330768 0.164488
H13   H     H_    0.013227 0.755925 0.312287 0.148395
C45   C     C_3   0.100519 0.716006 0.277057 -0.313115
H14   H     H_    0.144270 0.733363 0.303056 0.281490
H15   H     H_    0.093433 0.639297 0.285624 0.217951
C46   C     C_3   0.095309 0.740779 0.166288 -0.985818
H16   H     H_    0.052231 0.722094 0.137984 0.266875
H17   H     H_    0.127252 0.700840 0.122665 0.274417
H18   H     H_    0.103120 0.817024 0.154901 0.272593
O15   O     O_3   0.948020 0.759769 0.470984 -0.599716
C47   C     C_3   0.953765 0.808254 0.563016 0.149578
H19   H     H_    0.998722 0.809694 0.589800 0.149931
H20   H     H_    0.926682 0.774060 0.621027 0.151306
C48   C     C_3   0.934523 0.909632 0.548930 -0.308548
H21   H     H_    0.960356 0.943111 0.488966 0.226967
H22   H     H_    0.889137 0.910272 0.525504 0.245081
C49   C     C_3   0.941477 0.966450 0.645348 -0.976944
H23   H     H_    0.915276 0.935237 0.706097 0.272137
H24   H     H_    0.927432 0.039741 0.632734 0.280008
H25   H     H_    0.986796 0.968062 0.668999 0.264304
O16   O     O_3   0.052771 0.244979 0.545080 -0.599434
C50   C     C_3   0.044538 0.219757 0.646828 0.118813
H26   H     H_    0.050423 0.142633 0.652675 0.166639
H27   H     H_    0.000650 0.233954 0.674159 0.147788
C51   C     C_3   0.088443 0.268510 0.714845 -0.314295
H28   H     H_    0.132033 0.250035 0.690004 0.280609
H29   H     H_    0.083574 0.345838 0.709750 0.213853
C52   C     C_3   0.081068 0.239342 0.823991 -0.986306
H30   H     H_    0.038115 0.258867 0.851171 0.265870
H31   H     H_    0.113407 0.275858 0.870986 0.273662
H32   H     H_    0.086741 0.162353 0.831961 0.272484
O17   O     O_3   0.207791 0.532376 0.322207 -0.637567
C53   C     C_3   0.203911 0.451425 0.261410 0.063117
H33   H     H_    0.185138 0.391252 0.303724 0.163214
H34   H     H_    0.246815 0.431782 0.233322 0.147641
C54   C     C_3   0.165421 0.472359 0.171928 -0.321836
H35   H     H_    0.122305 0.490811 0.199298 0.220198
H36   H     H_    0.182901 0.533262 0.129755 0.233611
C55   C     C_3   0.160546 0.388021 0.101665 -0.963613
H37   H     H_    0.202872 0.370481 0.070217 0.268501
H38   H     H_    0.131318 0.404850 0.038903 0.264499
H39   H     H_    0.143239 0.326170 0.142365 0.271867
O18   O     O_3   0.794220 0.483386 0.322500 -0.632822
C56   C     C_3   0.782590 0.395157 0.277931 0.087171
H40   H     H_    0.743716 0.400176 0.230649 0.143733
H41   H     H_    0.776490 0.338512 0.334867 0.152962
C57   C     C_3   0.832837 0.368083 0.211705 -0.314029
H42   H     H_    0.840595 0.424158 0.155384 0.233343
H43   H     H_    0.871598 0.361234 0.258965 0.221472
C58   C     C_3   0.821689 0.275389 0.157371 -0.980511
H44   H     H_    0.813469 0.218295 0.212181 0.274325
H45   H     H_    0.859454 0.256664 0.111869 0.268891
H46   H     H_    0.784390 0.281882 0.106694 0.271099
O19   O     O_3   0.207234 0.450477 0.672945 -0.634740
C59   C     C_3   0.204536 0.529719 0.736344 0.066491
H47   H     H_    0.188018 0.592100 0.695322 0.161291
H48   H     H_    0.247466 0.546319 0.767348 0.147644
C60   C     C_3   0.164130 0.507939 0.822941 -0.320431
H49   H     H_    0.120982 0.492689 0.792620 0.218924
H50   H     H_    0.179232 0.444785 0.863636 0.234062
C61   C     C_3   0.160505 0.590130 0.896119 -0.967408
H51   H     H_    0.202792 0.604433 0.930338 0.268085
H52   H     H_    0.129916 0.572773 0.956705 0.265372
H53   H     H_    0.145508 0.654130 0.856968 0.272371
O20   O     O_3   0.793203 0.538454 0.677772 -0.634464
C62   C     C_3   0.788429 0.460540 0.742657 0.071781
H54   H     H_    0.795590 0.393060 0.702049 0.171427
H55   H     H_    0.745584 0.459061 0.777941 0.142767
C63   C     C_3   0.833414 0.469743 0.824923 -0.308659
H56   H     H_    0.876384 0.471218 0.790272 0.223874
H57   H     H_    0.827191 0.536731 0.866217 0.233122
C64   C     C_3   0.830019 0.388178 0.898750 -0.966346
H58   H     H_    0.787798 0.386592 0.935939 0.267580
H59   H     H_    0.863386 0.396896 0.957064 0.267589
H60   H     H_    0.836966 0.320456 0.859370 0.273457

loop_
_geom_bond_atom_site_label_1
_geom_bond_atom_site_label_2
_geom_bond_distance
_ccdc_geom_bond_type
C35   C36   1.204505 T    
C33   C35   1.410456 S    
C3    C27   1.452773 S    
C54   H35   1.111417 S    
C45   C46   1.525565 S    
C4    C28   1.453682 S    
O3    C2    1.222200 A    
C16   O14   1.387452 S    
C46   H18   1.110753 S    
C55   H37   1.110797 S    
C54   H36   1.111554 S    
O15   C47   1.413938 S    
O5    C3    1.220846 A    
O1    C1    1.221995 A    
C11   C17   1.413470 A    
C16   C17   1.403845 A    
C64   H59   1.110359 S    
C12   C14   1.415464 A    
C22   C26   1.395388 A    
C62   H55   1.112954 S    
C45   H15   1.110061 S    
N3    C37   1.234627 T    
N4    C38   1.234629 T    
C53   H33   1.115984 S    
C38   C40   1.599709 S    
C26   H4    1.083207 S    
C44   H13   1.115361 S    
O7    Zn1   2.001691 S    
O18   C56   1.414021 S    
C49   H23   1.110765 S    
C18   O16   1.387385 S    
C50   H27   1.114927 S    
C5    N1    1.361714 A    
C64   H58   1.110873 S    
C53   H34   1.114300 S    
C19   C29   1.402972 A    
C58   H46   1.111103 S    
O17   C53   1.411027 S    
C43   H9    1.110695 S    
C48   H22   1.111623 S    
C20   O18   1.385863 S    
C17   O15   1.384791 S    
O3    Zn1   1.831426 S    
C6    N2    1.362010 A    
C5    C11   1.403805 A    
C9    C15   1.412263 A    
C6    C12   1.403463 A    
C10   C16   1.410494 A    
C15   C18   1.404885 A    
C21   C25   1.393677 A    
O2    C2    1.221993 A    
C7    O11   1.349641 S    
C63   C64   1.526385 S    
C51   H29   1.110253 S    
C46   H17   1.110567 S    
C32   C34   1.204585 T    
C50   H26   1.110937 S    
C56   H41   1.117962 S    
C34   C36   1.410460 S    
C37   C39   1.599712 S    
O14   C44   1.418635 S    
C47   H20   1.113971 S    
C42   H7    1.110049 S    
C41   C42   1.528031 S    
C20   C24   1.397069 A    
C64   H60   1.110878 S    
O20   C62   1.412776 S    
C61   H52   1.110265 S    
O8    Zn2   2.001693 S    
C62   C63   1.528126 S    
C47   H19   1.115345 S    
C63   H56   1.112063 S    
C23   H1    1.083598 S    
Zn1   N4    1.815860 S    
C46   H16   1.110832 S    
C13   C14   1.408216 A    
C49   H25   1.110928 S    
C7    C9    1.401506 A    
C31   C33   1.204579 T    
C61   H53   1.110827 S    
C52   H32   1.110783 S    
C19   C23   1.391655 A    
C44   H12   1.110873 S    
N2    C29   1.423871 S    
C60   C61   1.526215 S    
C21   C29   1.402613 A    
O5    Zn1   2.000470 S    
O6    C4    1.220662 A    
O16   C50   1.418692 S    
C43   H11   1.110798 S    
C49   H24   1.110119 S    
C25   C27   1.401043 A    
C52   H31   1.110686 S    
C26   C28   1.401077 A    
C48   C49   1.526947 S    
C58   H45   1.110585 S    
C8    O12   1.349740 S    
C15   O13   1.385487 S    
C63   H57   1.111708 S    
O8    C3    1.220047 A    
C58   H44   1.110889 S    
C59   C60   1.528402 S    
O1    Zn1   1.830254 S    
C57   H43   1.112456 S    
C50   C51   1.535000 S    
C20   C30   1.400143 A    
C23   C27   1.400720 A    
O19   C59   1.411292 S    
C56   C57   1.528151 S    
C24   C28   1.400757 A    
Zn2   N3    1.815860 S    
C9    C13   1.414515 A    
O6    Zn2   2.000468 S    
C8    C10   1.400748 A    
C61   H51   1.110807 S    
C47   C48   1.528015 S    
C55   H38   1.110221 S    
C56   H40   1.112653 S    
C5    O9    1.349305 S    
C22   C30   1.400265 A    
C6    O10   1.349270 S    
C53   C54   1.528354 S    
C59   H48   1.113921 S    
C2    C32   1.433038 S    
C41   H5    1.112202 S    
C42   C43   1.526085 S    
C57   C58   1.525927 S    
C59   H47   1.116201 S    
C48   H21   1.111694 S    
C25   H3    1.083509 S    
C62   H54   1.116511 S    
C45   H14   1.111144 S    
N1    C30   1.422326 S    
C60   H49   1.111467 S    
O4    C1    1.222192 A    
C51   H28   1.111104 S    
C7    N1    1.361947 A    
C21   O19   1.382316 S    
C54   C55   1.526159 S    
C8    N2    1.361939 A    
C51   C52   1.525488 S    
O4    Zn2   1.831427 S    
C39   C40   1.322195 T    
O2    Zn2   1.830253 S    
C44   C45   1.534717 S    
C12   C18   1.412107 A    
C55   H39   1.110842 S    
C19   O17   1.381845 S    
O7    C4    1.220695 A    
O13   C41   1.415313 S    
C24   H2    1.082951 S    
C11   C13   1.417287 A    
C10   C14   1.413272 A    
C52   H30   1.110892 S    
C60   H50   1.111642 S    
C22   O20   1.383781 S    
C1    C31   1.433030 S    
C43   H10   1.110317 S    
C42   H8    1.111612 S    
C57   H42   1.112070 S    
C41   H6    1.118245 S    
