data_mof_unit_14218.cif
_audit_creation_date              2012-12-11T16:19:53-0500
_audit_creation_method            fapswitch 2.2
_symmetry_space_group_name_H-M    P1
_symmetry_Int_Tables_number       1
_space_group_crystal_system       triclinic
_cell_length_a                    13.50524
_cell_length_b                    14.055093
_cell_length_c                    30.029604
_cell_angle_alpha                 97.731397
_cell_angle_beta                  90.085098
_cell_angle_gamma                 118.808071
_cell_volume                      4934.82673607

loop_
_atom_site_label
_atom_site_type_symbol
_atom_type_description
_atom_site_fract_x
_atom_site_fract_y
_atom_site_fract_z
_atom_type_partial_charge
C1    C     C_R   0.720022 0.098634 0.569022 0.544821
C2    C     C_R   0.347862 0.657131 0.673552 0.038801
C3    C     C_R   0.254909 0.657286 0.652968 -0.116677
C4    C     C_R   0.263174 0.692911 0.611263 -0.132533
C5    C     C_R   0.237810 0.632347 0.826968 -0.000399
C6    C     C_R   0.222608 0.614091 0.871814 -0.130987
C7    C     C_R   0.397228 0.605317 0.876415 -0.136977
C8    C     C_R   0.413933 0.624439 0.831997 -0.137548
C9    C     C_R   0.332999 0.633961 0.806746 0.026969
C10   C     C_1   0.343874 0.637620 0.759395 -0.034200
C11   C     C_1   0.347192 0.643261 0.719854 -0.032323
C12   C     C_R   0.383748 0.788298 0.551212 0.539651
C13   C     C_R   0.299225 0.595728 0.896143 0.004542
C14   C     C_3   0.336021 0.050700 0.719526 -0.215093
C15   C     C_3   0.223447 0.150405 0.713719 -0.199131
C16   C     C_3   0.208615 0.150330 0.765526 -0.077853
C17   C     C_1   0.301172 0.194316 0.878556 -0.026857
C18   C     C_3   0.335043 0.149750 0.702170 0.049460
C19   C     C_3   0.330884 0.059928 0.771510 -0.213569
C20   C     C_3   0.317049 0.160761 0.789989 0.070167
C21   C     C_3   0.422383 0.265140 0.778645 -0.232025
C22   C     C_3   0.435270 0.256719 0.727313 -0.224979
C23   C     C_R   0.397722 0.118424 0.569513 0.547031
C24   C     C_1   0.310749 0.173524 0.839155 -0.069907
C25   C     C_1   0.348129 0.142990 0.653411 -0.069072
C26   C     C_1   0.366336 0.134594 0.614237 -0.014425
C27   C     C_3   0.746403 0.221638 0.728466 -0.258703
C28   C     C_3   0.935874 0.231659 0.718756 0.136436
C29   C     C_3   0.954523 0.241971 0.770612 -0.188491
C30   C     C_1   0.892290 0.203131 0.879572 -0.034637
C31   C     C_3   0.807262 0.162236 0.703780 0.081170
C32   C     C_3   0.764478 0.231604 0.780470 -0.229768
C33   C     C_3   0.839615 0.181244 0.791804 0.042699
C34   C     C_R   0.720187 0.095228 0.442777 0.542848
C35   C     C_3   0.779377 0.058768 0.770119 -0.230641
C36   C     C_3   0.757126 0.047270 0.718662 -0.221593
C37   C     C_1   0.861782 0.191762 0.840627 -0.077595
C38   C     C_1   0.787818 0.148706 0.654783 -0.024350
C39   C     C_1   0.764007 0.130011 0.614896 -0.004054
C40   C     C_3   0.278871 0.733123 0.270188 -0.212584
C41   C     C_3   0.292668 0.561361 0.271518 -0.213751
C42   C     C_3   0.284158 0.541737 0.219239 -0.210278
C43   C     C_1   0.308328 0.605487 0.111186 -0.016542
C44   C     C_3   0.349892 0.685954 0.289349 0.064695
C45   C     C_R   0.382197 0.784293 0.424908 0.547076
C46   C     C_3   0.271415 0.714209 0.218058 -0.209579
C47   C     C_3   0.336347 0.652781 0.200700 0.062443
C48   C     C_3   0.461846 0.722703 0.219390 -0.217619
C49   C     C_3   0.469829 0.742646 0.271701 -0.211964
C50   C     C_1   0.325945 0.632093 0.151328 -0.074859
C51   C     C_1   0.357516 0.707565 0.338727 -0.076890
C52   C     C_1   0.366280 0.735661 0.378782 -0.021536
C53   C     C_R   0.352701 0.135915 0.402623 0.006700
C54   C     C_R   0.418910 0.233840 0.385434 -0.130545
C55   C     C_R   0.393592 0.243785 0.342047 -0.130799
C56   C     C_R   0.395566 0.114934 0.443222 0.544294
C57   C     C_R   0.301555 0.156638 0.315425 0.027138
C58   C     C_R   0.226959 0.061843 0.333616 0.002403
C59   C     C_R   0.253761 0.052541 0.377469 -0.131087
C60   C     C_R   0.220941 0.097590 0.150278 -0.119470
C61   C     C_R   0.223290 0.115394 0.105724 -0.139204
C62   C     C_R   0.406540 0.281294 0.123711 -0.020177
C63   C     C_R   0.402357 0.262249 0.168411 -0.118945
C64   C     C_R   0.308320 0.173361 0.181801 0.022764
C65   C     C_1   0.300149 0.163861 0.228494 -0.029610
C66   C     C_1   0.297374 0.159694 0.268072 -0.030402
C67   C     C_R   0.364681 0.728369 0.589814 0.019169
C68   C     C_R   0.312423 0.210254 0.092214 0.006117
C69   C     C_R   0.781851 0.133493 0.402911 0.020088
C70   C     C_R   0.804026 0.062025 0.372507 -0.126317
C71   C     C_R   0.835237 0.086618 0.329588 -0.120084
C72   C     C_R   0.845728 0.183082 0.317060 0.036947
C73   C     C_R   0.833469 0.259043 0.348284 -0.114292
C74   C     C_R   0.802030 0.234619 0.391192 -0.126099
C75   C     C_R   0.889161 0.307878 0.167286 0.250377
C76   C     C_R   0.909343 0.311581 0.121796 -0.068669
C77   C     C_R   0.862304 0.119863 0.110170 -0.145928
C78   C     C_R   0.454499 0.719754 0.609282 -0.129414
C79   C     C_R   0.841792 0.115013 0.155349 -0.151849
C80   C     C_R   0.859564 0.209257 0.184351 0.031443
C81   C     C_1   0.856662 0.204213 0.231551 -0.046851
C82   C     C_1   0.854189 0.196846 0.270832 -0.042478
C83   C     C_R   0.901444 0.219516 0.093517 -0.031470
C84   C     C_R   0.284867 0.231627 0.923130 0.541074
C85   C     C_R   0.266035 0.546795 0.937818 0.539813
C86   C     C_R   0.944796 0.221936 0.923614 0.540089
C87   C     C_R   0.292405 0.243592 0.049746 0.535937
C88   C     C_R   0.275065 0.558226 0.064982 0.546850
C89   C     C_R   0.446318 0.685090 0.651126 -0.121361
C90   C     C_R   0.954204 0.233147 0.050376 0.540198
Cr1   Cr    Cr6+3 0.583400 0.162540 0.509180 1.017454
Cr2   Cr    Cr6+3 0.584070 0.916690 0.495550 1.018866
Cr3   Cr    Cr6+3 0.332550 0.920810 0.495240 1.018870
Cr4   Cr    Cr6+3 0.086700 0.177000 0.983690 1.008776
Cr5   Cr    Cr6+3 0.336880 0.419130 0.994740 1.024882
Cr6   Cr    Cr6+3 0.084850 0.422220 0.995960 1.013447
H1    H     H_    0.147125 0.607784 0.886786 0.132125
H2    H     H_    0.263083 0.972406 0.702948 0.109067
H3    H     H_    0.227605 0.226315 0.704489 0.150934
H4    H     H_    0.150634 0.082185 0.692248 0.122634
H5    H     H_    0.204522 0.226653 0.778007 0.105084
H6    H     H_    0.516783 0.257895 0.720390 0.115000
H7    H     H_    0.438802 0.329577 0.715104 0.118941
H8    H     H_    0.500517 0.276214 0.796419 0.114348
H9    H     H_    0.414376 0.047595 0.710350 0.113147
H10   H     H_    0.410161 0.068691 0.787191 0.107088
H11   H     H_    0.414312 0.339424 0.790633 0.116428
H12   H     H_    0.805027 0.319354 0.796108 0.110222
H13   H     H_    0.779616 0.304918 0.718933 0.102874
H14   H     H_    0.966768 0.315782 0.710375 0.158477
H15   H     H_    0.999418 0.330233 0.785594 0.095653
H16   H     H_    0.010664 0.208652 0.778770 0.128288
H17   H     H_    0.664052 0.000339 0.709634 0.114649
H18   H     H_    0.793349 0.998102 0.700603 0.121517
H19   H     H_    0.697797 0.012578 0.785419 0.118545
H20   H     H_    0.178201 0.635385 0.670185 0.121854
H21   H     H_    0.654018 0.175225 0.718083 0.114312
H22   H     H_    0.680884 0.188336 0.794769 0.120003
H23   H     H_    0.832722 0.021320 0.776395 0.140725
H24   H     H_    0.180833 0.665678 0.204894 0.142595
H25   H     H_    0.191905 0.692693 0.281923 0.116093
H26   H     H_    0.342574 0.525567 0.284524 0.115880
H27   H     H_    0.206346 0.518675 0.283699 0.124517
H28   H     H_    0.193576 0.489872 0.206400 0.144645
H29   H     H_    0.328978 0.495414 0.207180 0.111180
H30   H     H_    0.512866 0.832612 0.284084 0.122116
H31   H     H_    0.192590 0.698300 0.597086 0.128417
H32   H     H_    0.522699 0.710060 0.284862 0.113889
H33   H     H_    0.501292 0.802984 0.206716 0.116503
H34   H     H_    0.317806 0.822772 0.282773 0.121437
H35   H     H_    0.307700 0.794729 0.205653 0.121153
H36   H     H_    0.510210 0.679888 0.207460 0.105412
H37   H     H_    0.150868 0.058480 0.082603 0.131557
H38   H     H_    0.148527 0.027545 0.160526 0.117945
H39   H     H_    0.200242 0.978063 0.391133 0.127254
H40   H     H_    0.494839 0.299968 0.404247 0.132997
H41   H     H_    0.533833 0.746223 0.593594 0.131259
H42   H     H_    0.471322 0.318817 0.193174 0.110784
H43   H     H_    0.450596 0.316831 0.328145 0.109405
H44   H     H_    0.938699 0.389098 0.109462 0.154991
H45   H     H_    0.841593 0.333935 0.338646 0.106603
H46   H     H_    0.786313 0.291580 0.414035 0.125682
H47   H     H_    0.789396 0.983688 0.380600 0.133467
H48   H     H_    0.818048 0.038970 0.168222 0.109195
H49   H     H_    0.854789 0.047503 0.089064 0.136260
H50   H     H_    0.487292 0.626316 0.816628 0.105160
H51   H     H_    0.844320 0.027392 0.305362 0.107213
H52   H     H_    0.457697 0.591588 0.894355 0.129645
H53   H     H_    0.518788 0.685666 0.666976 0.104061
H54   H     H_    0.259609 0.983321 0.780364 0.131800
O1    O     O_R   0.494060 0.188820 0.559230 -0.508935
O2    O     O_R   0.480140 0.824500 0.445020 -0.494033
O3    O     O_R   0.308480 0.808690 0.440220 -0.512000
O4    O     O_R   0.340970 0.020670 0.455610 -0.502292
O5    O     O_3   0.500010 0.000010 0.499990 -0.242873
O6    O     O_R   0.969690 0.151000 0.934080 -0.523570
O7    O     O_R   0.187530 0.180840 0.938210 -0.496233
O8    O     O_R   0.358160 0.327300 0.941250 -0.512171
O9    O     O_R   0.323950 0.507710 0.953980 -0.501764
O10   O     O_R   0.170530 0.527770 0.952070 -0.518801
O11   O     O_R   0.987720 0.318450 0.945940 -0.492892
O12   O     O_R   0.678470 0.153390 0.554100 -0.497971
O13   O     O_R   0.976400 0.159230 0.032040 -0.514278
O14   O     O_R   0.193740 0.188470 0.029020 -0.503835
O15   O     O_R   0.364860 0.335530 0.039220 -0.500395
O16   O     O_R   0.330170 0.515340 0.044800 -0.491527
O17   O     O_R   0.177230 0.536000 0.050040 -0.510183
O18   O     O_R   0.993930 0.326080 0.036750 -0.506496
O19   O     O_3   0.169480 0.339450 0.991460 -0.240696
O20   O     O_R   0.697870 0.003940 0.549410 -0.509061
O21   O     O_R   0.480980 0.827230 0.535590 -0.504821
O22   O     O_R   0.309390 0.811640 0.537920 -0.516103
O23   O     O_R   0.341810 0.023400 0.546180 -0.494226
O24   O     O_R   0.493150 0.185870 0.461540 -0.518162
O25   O     O_R   0.677630 0.150660 0.463530 -0.502324
O26   O     O_R   0.696960 0.000990 0.451710 -0.515881
C91   C     C_R   0.098621 0.054319 0.777711 0.016790
C92   C     C_R   0.052749 0.069290 0.818572 -0.098880
C93   C     C_R   0.957227 0.982425 0.832548 -0.113819
C94   C     C_R   0.902472 0.880454 0.805067 -0.118706
C95   C     C_R   0.944357 0.864834 0.763957 -0.112340
C96   C     C_R   0.043225 0.949672 0.750818 -0.101825
H55   H     H_    0.091254 0.148601 0.839892 0.115887
H56   H     H_    0.923839 0.994799 0.864178 0.143788
H57   H     H_    0.826847 0.813946 0.815374 0.105498
H58   H     H_    0.900319 0.786439 0.742301 0.101518
H59   H     H_    0.075454 0.931608 0.719870 0.091270
C97   C     C_R   0.148260 0.638594 0.800583 0.036695
C98   C     C_R   0.034085 0.557500 0.800173 -0.105280
C99   C     C_R   0.951554 0.555590 0.771373 -0.117530
C100  C     C_R   0.982007 0.634467 0.742904 -0.103845
C101  C     C_R   0.094111 0.718522 0.744636 -0.115839
C102  C     C_R   0.176733 0.721590 0.773733 -0.086398
H60   H     H_    0.009318 0.494109 0.821233 0.095809
H61   H     H_    0.864168 0.492106 0.770572 0.092579
H62   H     H_    0.918520 0.630353 0.719556 0.094387
H63   H     H_    0.117527 0.780123 0.722802 0.092082
H64   H     H_    0.263422 0.786858 0.774331 0.102633
O27   O     O_3   0.999671 0.188794 0.695443 -0.724901
H65   H     H_    0.982050 0.118821 0.705996 0.325861
C103  C     C_R   0.125299 0.969941 0.306654 0.036009
C104  C     C_R   0.102475 0.860687 0.304988 -0.106724
C105  C     C_R   0.008012 0.774652 0.278983 -0.110715
C106  C     C_R   0.935051 0.796660 0.254670 -0.100698
C107  C     C_R   0.956162 0.904713 0.256458 -0.126035
C108  C     C_R   0.050477 0.990992 0.282430 -0.089895
H66   H     H_    0.158426 0.842174 0.323402 0.098068
H67   H     H_    0.991504 0.690881 0.277610 0.113248
H68   H     H_    0.862033 0.729978 0.234523 0.112473
H69   H     H_    0.899329 0.921658 0.237760 0.095336
H70   H     H_    0.064834 0.074114 0.283766 0.113676
C109  C     C_R   0.507970 0.378514 0.112184 0.059802
C110  C     C_R   0.579743 0.365356 0.081136 -0.060429
C111  C     C_R   0.676615 0.457337 0.070878 -0.100929
C112  C     C_R   0.702375 0.562716 0.091548 -0.099342
C113  C     C_R   0.631440 0.576328 0.122584 -0.109836
C114  C     C_R   0.534696 0.484592 0.133023 -0.080069
H71   H     H_    0.560733 0.284053 0.065054 0.100980
H72   H     H_    0.731802 0.446919 0.046956 0.103472
H73   H     H_    0.777362 0.633804 0.083560 0.105000
H74   H     H_    0.651475 0.657929 0.138595 0.093940
H75   H     H_    0.480320 0.496101 0.157082 0.090941
O28   O     O_3   0.905010 0.403251 0.193746 -0.725015
H76   H     H_    0.881893 0.388394 0.224410 0.324337

loop_
_geom_bond_atom_site_label_1
_geom_bond_atom_site_label_2
_ccdc_geom_bond_type
C44   C49   S    
C15   C18   S    
C71   H51   S    
C105  C106  A    
Cr5   O16   S    
Cr3   O22   S    
C99   C100  A    
Cr4   O14   S    
Cr5   O8    S    
C103  C104  A    
C14   C18   S    
C29   H16   S    
C35   H23   S    
C35   C36   S    
C57   C66   S    
C112  C113  A    
C36   H18   S    
C7    C13   A    
C92   C93   A    
C53   C59   A    
C42   H28   S    
C7    C8    A    
C12   O22   A    
C73   H45   S    
C95   C96   A    
Cr2   O26   S    
C40   C46   S    
C49   H30   S    
C18   C25   S    
C70   H47   S    
C79   C80   A    
Cr5   O9    S    
C43   C88   S    
C14   H2    S    
Cr3   O4    S    
C7    H52   S    
C3    H20   S    
C31   C36   S    
Cr4   O19   S    
C5    C6    A    
C109  C114  A    
C77   C83   A    
Cr2   O21   S    
C102  H64   S    
C29   C33   S    
C1    O20   A    
C19   H54   S    
C55   H43   S    
Cr6   O11   S    
C41   C42   S    
C23   C26   S    
C59   H39   S    
C49   H32   S    
C86   O6    A    
C113  H74   S    
C40   H34   S    
C34   O25   A    
C42   H29   S    
C100  H62   S    
C21   H8    S    
C98   H60   S    
C14   H9    S    
C19   C20   S    
C58   C103  S    
Cr2   O20   S    
C8    C9    A    
C106  H68   S    
Cr2   O2    S    
C60   H38   S    
C103  C108  A    
Cr6   O18   S    
Cr1   O12   S    
C35   H19   S    
C70   C71   A    
C85   O10   A    
C30   C86   S    
C75   C80   A    
C15   H4    S    
C92   H55   S    
C96   H59   S    
C89   H53   S    
C87   O14   A    
C74   H46   S    
C75   O28   S    
O27   H65   S    
C109  C110  A    
C21   C22   S    
C69   C70   A    
C67   C78   A    
C36   H17   S    
C108  H70   S    
C76   C83   A    
C60   C64   A    
C81   C82   T    
C47   C50   S    
C48   H36   S    
C91   C96   A    
C27   H21   S    
C78   C89   A    
C12   C67   S    
Cr6   O17   S    
C17   C24   T    
C104  C105  A    
C27   C31   S    
C51   C52   T    
C28   O27   S    
C6    H1    S    
C20   C24   S    
C104  H66   S    
Cr5   O15   S    
C113  C114  A    
O28   H76   S    
C56   O4    A    
C61   H37   S    
C32   H22   S    
C46   H35   S    
C84   O8    A    
C111  C112  A    
C72   C73   A    
C45   C52   S    
C28   H14   S    
C58   C59   A    
C107  C108  A    
C33   C37   S    
C22   H7    S    
C100  C101  A    
Cr1   O24   S    
C56   O24   A    
C60   C61   A    
C41   H26   S    
C2    C89   A    
C75   C76   A    
Cr1   O5    S    
C62   C63   A    
C40   H25   S    
C1    C39   S    
C47   C48   S    
Cr3   O5    S    
C16   C20   S    
C88   O17   A    
C54   H40   S    
C41   C44   S    
C77   C79   A    
C46   H24   S    
C69   C74   A    
C86   O11   A    
C46   C47   S    
C101  H63   S    
C106  C107  A    
Cr5   O19   S    
C34   C69   S    
C27   H13   S    
C21   H11   S    
C99   H61   S    
C44   C51   S    
C48   C49   S    
Cr6   O10   S    
C97   C102  A    
C65   C66   T    
Cr4   O7    S    
C88   O16   A    
Cr6   O19   S    
C55   C57   A    
C63   H42   S    
C48   H33   S    
C45   O3    A    
C76   H44   S    
C3    C4    A    
C78   H41   S    
C77   H49   S    
C16   C91   S    
C84   O7    A    
C93   H56   S    
C9    C10   S    
C53   C56   S    
C114  H75   S    
Cr1   O25   S    
C83   C90   S    
C23   O1    A    
C54   C55   A    
C28   C29   S    
C73   C74   A    
C4    H31   S    
C90   O18   A    
C27   C32   S    
C18   C22   S    
C14   C19   S    
C29   H15   S    
C28   C31   S    
C8    H50   S    
C15   H3    S    
C80   C81   S    
C1    O12   A    
C4    C67   A    
C95   H58   S    
C31   C38   S    
C43   C50   T    
C53   C54   A    
C23   O23   A    
C93   C94   A    
C105  H67   S    
C22   H6    S    
C79   H48   S    
C62   C68   A    
C90   O13   A    
C111  H72   S    
C17   C84   S    
C10   C11   T    
C101  C102  A    
C45   O2    A    
Cr3   O3    S    
C2    C3    A    
C25   C26   T    
C71   C72   A    
C112  H73   S    
C32   C33   S    
C6    C13   A    
Cr1   O1    S    
C61   C68   A    
C41   H27   S    
C57   C58   A    
C38   C39   T    
C107  H69   S    
C110  C111  A    
C64   C65   S    
Cr3   O23   S    
C33   C35   S    
Cr2   O5    S    
C42   C47   S    
C98   C99   A    
C34   O26   A    
C94   H57   S    
C87   O15   A    
C110  H71   S    
C63   C64   A    
C19   H10   S    
C16   H5    S    
C40   C44   S    
C20   C21   S    
C30   C37   T    
Cr4   O6    S    
C91   C92   A    
C32   H12   S    
C13   C85   S    
C68   C87   S    
C62   C109  S    
C12   O21   A    
C97   C98   A    
C2    C11   S    
C5    C9    A    
C85   O9    A    
C5    C97   S    
Cr4   O13   S    
C72   C82   S    
C94   C95   A    
C15   C16   S    
