data_mof_unit_53515.cif
_audit_creation_date              2012-12-11T14:55:58-0500
_audit_creation_method            fapswitch 2.2
_symmetry_space_group_name_H-M    P1
_symmetry_Int_Tables_number       1
_space_group_crystal_system       triclinic
_cell_length_a                    27.945702
_cell_length_b                    17.289024
_cell_length_c                    18.017721
_cell_angle_alpha                 90.121104
_cell_angle_beta                  138.022259
_cell_angle_gamma                 89.935901
_cell_volume                      5822.47628108

loop_
_atom_site_label
_atom_site_type_symbol
_atom_type_description
_atom_site_fract_x
_atom_site_fract_y
_atom_site_fract_z
_atom_type_partial_charge
C1    C     C_R   0.687760 0.898724 0.802581 -0.144822
C2    C     C_3   0.302189 0.705055 0.010243 -0.249961
C3    C     C_3   0.711880 0.733386 0.954117 0.389727
C4    C     C_3   0.212121 0.769447 0.953778 0.390430
C5    C     C_3   0.787764 0.230880 0.045990 0.390298
C6    C     C_3   0.830361 0.715962 0.011241 0.373370
C7    C     C_3   0.169671 0.284117 0.988835 0.373375
C8    C     C_3   0.286132 0.745212 0.066370 -0.223093
C9    C     C_3   0.713627 0.255012 0.933538 -0.223223
C10   C     C_3   0.754421 0.693244 0.896711 -0.228169
C11   C     C_3   0.245642 0.306806 0.103330 -0.228178
C12   C     C_3   0.743745 0.194733 0.102231 -0.227936
C13   C     C_3   0.261080 0.344428 0.044441 -0.247308
C14   C     C_3   0.256504 0.805048 0.897945 -0.227887
C15   C     C_3   0.213312 0.243051 0.933822 -0.224115
C16   C     C_3   0.786628 0.756891 0.066156 -0.224077
C17   C     C_3   0.315803 0.821267 0.068588 0.096420
C18   C     C_3   0.684226 0.178746 0.931437 0.096487
C19   C     C_3   0.727210 0.770555 0.896672 0.087859
C20   C     C_3   0.272784 0.229445 0.103342 0.087869
C21   C     C_3   0.772559 0.270548 0.102539 0.087762
C22   C     C_3   0.227420 0.729444 0.897520 0.087734
C23   C     C_3   0.185622 0.320818 0.932089 0.096808
C24   C     C_3   0.738959 0.655534 0.955529 -0.247303
C25   C     C_3   0.814386 0.679174 0.067916 0.096785
C26   C     C_3   0.599614 0.209047 0.951955 -1.026261
C27   C     C_3   0.400637 0.790249 0.048664 -1.026426
C28   C     C_3   0.354887 0.256918 0.075297 -1.058589
C29   C     C_3   0.645051 0.742897 0.924576 -1.058731
C30   C     C_3   0.144680 0.762963 0.923049 -1.061794
C31   C     C_3   0.855077 0.237744 0.076424 -1.061257
C32   C     C_3   0.898653 0.704306 0.045700 -1.025340
C33   C     C_3   0.101412 0.295872 0.954448 -1.025288
C34   C     C_3   0.241085 0.845669 0.955604 -0.247343
C35   C     C_3   0.759073 0.154455 0.044283 -0.247341
C36   C     C_3   0.802693 0.794186 0.008795 -0.249674
C37   C     C_3   0.197271 0.205843 0.991256 -0.249679
C38   C     C_R   0.716240 0.755394 0.620919 0.126860
C39   C     C_R   0.283761 0.244607 0.379085 0.126888
C40   C     C_R   0.387840 0.852414 0.643359 0.127973
C41   C     C_R   0.312237 0.101278 0.197430 -0.144823
C42   C     C_R   0.612163 0.147592 0.356646 0.127973
C43   C     C_R   0.111907 0.352115 0.356206 0.127844
C44   C     C_R   0.888090 0.647890 0.643788 0.127845
C45   C     C_R   0.783931 0.255294 0.379512 0.126132
C46   C     C_R   0.216065 0.744708 0.620475 0.126014
C47   C     C_R   0.261545 0.374316 0.399303 -0.225179
C48   C     C_R   0.738455 0.625686 0.600699 -0.225179
C49   C     C_R   0.605089 0.250215 0.257420 -0.228165
C50   C     C_R   0.394913 0.749793 0.742587 -0.228129
C51   C     C_R   0.895142 0.750645 0.743261 -0.227925
C52   C     C_R   0.333489 0.923716 0.183095 -0.127207
C53   C     C_R   0.104857 0.249358 0.256737 -0.227983
C54   C     C_R   0.238034 0.874321 0.600000 -0.225182
C55   C     C_R   0.761960 0.125680 0.399982 -0.225161
C56   C     C_R   0.305529 0.322118 0.413373 -0.189276
C57   C     C_R   0.694472 0.677883 0.586631 -0.189279
C58   C     C_R   0.576509 0.212126 0.285457 -0.168894
C59   C     C_R   0.423495 0.787881 0.714553 -0.168963
C60   C     C_R   0.923689 0.712586 0.715021 -0.169727
C61   C     C_R   0.076309 0.287418 0.284975 -0.169553
C62   C     C_R   0.194186 0.822126 0.586132 -0.189599
C63   C     C_R   0.666530 0.076297 0.816909 -0.127112
C64   C     C_R   0.805806 0.177874 0.413844 -0.189583
C65   C     C_R   0.212451 0.224575 0.310920 -0.285242
C66   C     C_R   0.787549 0.775426 0.689083 -0.285237
C67   C     C_R   0.665987 0.111541 0.377272 -0.277261
C68   C     C_R   0.334014 0.888464 0.622727 -0.277245
C69   C     C_R   0.834443 0.611666 0.623396 -0.276978
C70   C     C_R   0.165555 0.388338 0.376600 -0.277004
C71   C     C_R   0.287358 0.724816 0.688422 -0.285014
C72   C     C_R   0.712639 0.275188 0.311574 -0.285047
C73   C     C_R   0.169416 0.275361 0.301333 0.190506
C74   C     C_R   0.167803 0.423025 0.817323 -0.126563
C75   C     C_R   0.830584 0.724641 0.698667 0.190518
C76   C     C_R   0.697112 0.151358 0.354440 0.192049
C77   C     C_R   0.302885 0.848647 0.645554 0.192023
C78   C     C_R   0.803291 0.651483 0.646308 0.192187
C79   C     C_R   0.196709 0.348520 0.353691 0.192192
C80   C     C_R   0.330290 0.775629 0.697918 0.190955
C81   C     C_R   0.669709 0.224377 0.302081 0.190917
C82   C     C_R   0.325238 0.104595 0.404730 -0.145121
C83   C     C_R   0.674762 0.895406 0.595271 -0.145118
C84   C     C_R   0.639354 0.070544 0.506978 -0.128239
C85   C     C_R   0.832205 0.576966 0.182679 -0.126604
C86   C     C_R   0.360647 0.929458 0.493024 -0.128240
C87   C     C_R   0.860660 0.570699 0.493034 -0.127296
C88   C     C_R   0.139338 0.429302 0.506963 -0.127308
C89   C     C_R   0.174746 0.604667 0.595266 -0.146297
C90   C     C_R   0.825253 0.395333 0.404732 -0.146294
C91   C     C_R   0.442812 0.834906 0.579442 -0.134997
C92   C     C_R   0.557188 0.165096 0.420559 -0.134974
C93   C     C_R   0.591493 0.803235 0.504421 -0.140272
C94   C     C_R   0.408508 0.196764 0.495582 -0.140267
C95   C     C_R   0.908578 0.303279 0.495667 -0.141631
C96   C     C_R   0.812369 0.398907 0.196801 -0.144475
C97   C     C_R   0.091421 0.696721 0.504330 -0.141638
C98   C     C_R   0.057171 0.334705 0.420478 -0.133832
C99   C     C_R   0.942824 0.665299 0.579515 -0.133897
C100  C     C_R   0.581930 0.168006 0.726506 -0.138513
C101  C     C_R   0.418087 0.832010 0.273503 -0.138392
C102  C     C_R   0.395011 0.193668 0.286954 -0.139910
C103  C     C_R   0.604985 0.806334 0.713051 -0.139897
C104  C     C_R   0.104956 0.693581 0.713694 -0.140144
C105  C     C_R   0.895033 0.306412 0.286324 -0.140198
C106  C     C_R   0.917066 0.668259 0.272788 -0.139272
C107  C     C_R   0.187619 0.601082 0.803239 -0.144539
C108  C     C_R   0.082939 0.331735 0.727214 -0.139307
C109  C     C_R   0.675493 0.823156 0.806245 0.084000
C110  C     C_R   0.324501 0.176848 0.193771 0.084009
C111  C     C_R   0.360222 0.864450 0.170757 0.071536
C112  C     C_R   0.639816 0.135582 0.829254 0.071574
C113  C     C_R   0.141523 0.363649 0.829989 0.071555
C114  C     C_R   0.858489 0.636339 0.170013 0.071547
C115  C     C_R   0.824642 0.323391 0.192719 0.083779
C116  C     C_R   0.175336 0.676592 0.807343 0.083748
C117  C     C_R   0.337270 0.183691 0.427878 0.073457
C118  C     C_3   0.697663 0.294830 0.989963 -0.249941
C119  C     C_R   0.662731 0.816309 0.572125 0.073480
C120  C     C_R   0.602770 0.127438 0.424495 0.062576
C121  C     C_R   0.397231 0.872565 0.575509 0.062584
C122  C     C_R   0.897305 0.627700 0.575649 0.062558
C123  C     C_R   0.102691 0.372304 0.424345 0.062543
C124  C     C_R   0.162652 0.683712 0.571986 0.073415
C125  C     C_R   0.837346 0.316288 0.428009 0.073381
C126  C     C_3   0.668395 0.218075 0.987248 0.373313
C127  C     C_3   0.331725 0.781598 0.013068 0.373301
C128  C     C_3   0.288091 0.266527 0.045825 0.389690
H1    H     H_    0.739221 0.926501 0.855562 0.087539
H2    H     H_    0.081518 0.194910 0.212248 0.127291
H3    H     H_    0.217426 0.931242 0.563009 0.127197
H4    H     H_    0.782566 0.068757 0.436967 0.127191
H5    H     H_    0.282064 0.431337 0.436289 0.127119
H6    H     H_    0.717936 0.568664 0.563712 0.127123
H7    H     H_    0.581665 0.304542 0.212928 0.127207
H8    H     H_    0.418338 0.695467 0.787083 0.127207
H9    H     H_    0.273567 0.076879 0.341129 0.087836
H10   H     H_    0.726433 0.923122 0.658872 0.087835
H11   H     H_    0.678520 0.030490 0.530883 0.100054
H12   H     H_    0.260778 0.073496 0.144450 0.087542
H13   H     H_    0.321482 0.969512 0.469120 0.100053
H14   H     H_    0.821486 0.530664 0.469067 0.099859
H15   H     H_    0.178512 0.469337 0.530930 0.099863
H16   H     H_    0.226446 0.577099 0.658859 0.088127
H17   H     H_    0.773554 0.422903 0.341139 0.088124
H18   H     H_    0.479247 0.788496 0.633740 0.095187
H19   H     H_    0.520753 0.211504 0.366261 0.095167
H20   H     H_    0.565967 0.748056 0.484096 0.082097
H21   H     H_    0.434035 0.251944 0.515908 0.082098
H22   H     H_    0.934160 0.248124 0.516079 0.082025
H23   H     H_    0.285348 0.956578 0.117986 0.096261
H24   H     H_    0.065838 0.751876 0.483917 0.082028
H25   H     H_    0.020712 0.288222 0.366094 0.095906
H26   H     H_    0.979279 0.711786 0.633893 0.095975
H27   H     H_    0.552264 0.219067 0.708259 0.105047
H28   H     H_    0.447752 0.780947 0.291752 0.105057
H29   H     H_    0.419395 0.250425 0.315015 0.092655
H30   H     H_    0.580603 0.749576 0.684985 0.092671
H31   H     H_    0.081002 0.750510 0.685308 0.093227
H32   H     H_    0.918994 0.249486 0.314693 0.093165
H33   H     H_    0.947192 0.718783 0.291003 0.104935
H34   H     H_    0.714666 0.043426 0.882006 0.096174
H35   H     H_    0.052812 0.281211 0.708998 0.104935
H36   H     H_    0.298060 0.721144 0.135894 0.135294
H37   H     H_    0.701505 0.279268 0.863912 0.135234
H38   H     H_    0.740483 0.669289 0.825269 0.141839
H39   H     H_    0.259630 0.330806 0.174799 0.141810
H40   H     H_    0.756886 0.172162 0.173395 0.142433
H41   H     H_    0.243558 0.827436 0.826890 0.142534
H42   H     H_    0.200273 0.217416 0.863830 0.135001
H43   H     H_    0.799617 0.782480 0.136123 0.135020
H44   H     H_    0.672629 0.352569 0.968206 0.126834
H45   H     H_    0.216206 0.455716 0.882155 0.095198
H46   H     H_    0.327098 0.647215 0.032149 0.126849
H47   H     H_    0.286996 0.401505 0.065809 0.127331
H48   H     H_    0.713079 0.598426 0.934137 0.127355
H49   H     H_    0.216353 0.903625 0.933695 0.127780
H50   H     H_    0.783952 0.096606 0.066091 0.127705
H51   H     H_    0.828651 0.851202 0.029979 0.126886
H52   H     H_    0.171282 0.148856 0.970108 0.126895
H53   H     H_    0.806642 0.833538 0.721421 0.116170
H54   H     H_    0.193358 0.166463 0.278583 0.116172
H55   H     H_    0.309032 0.941065 0.574404 0.119274
H56   H     H_    0.783805 0.544270 0.117846 0.095237
H57   H     H_    0.690968 0.058938 0.425592 0.119277
H58   H     H_    0.190449 0.441078 0.424898 0.119212
H59   H     H_    0.809548 0.558925 0.575097 0.119207
H60   H     H_    0.693473 0.333220 0.279252 0.116201
H61   H     H_    0.306527 0.666786 0.720749 0.116200
H62   H     H_    0.641374 0.658516 0.539825 0.114214
H63   H     H_    0.358628 0.341485 0.460180 0.114205
H64   H     H_    0.469035 0.761840 0.739943 0.122681
H65   H     H_    0.530971 0.238170 0.260071 0.122634
H66   H     H_    0.030879 0.261236 0.259750 0.123253
H67   H     H_    0.760888 0.426544 0.143941 0.087509
H68   H     H_    0.969120 0.738767 0.740247 0.123400
H69   H     H_    0.858885 0.158581 0.460485 0.114384
H70   H     H_    0.141104 0.841416 0.539478 0.114411
H71   H     H_    0.553739 0.229993 0.865582 0.248470
H72   H     H_    0.591320 0.147188 0.956288 0.258369
H73   H     H_    0.603222 0.243305 0.008148 0.255394
H74   H     H_    0.446376 0.769304 0.135080 0.248423
H75   H     H_    0.397073 0.755791 0.992641 0.255332
H76   H     H_    0.409121 0.852027 0.044342 0.258415
H77   H     H_    0.401729 0.282472 0.158143 0.241514
H78   H     H_    0.239107 0.573457 0.856111 0.087552
H79   H     H_    0.364835 0.194577 0.076222 0.262259
H80   H     H_    0.347233 0.287023 0.012724 0.256220
H81   H     H_    0.598241 0.717331 0.841720 0.241520
H82   H     H_    0.652695 0.712749 0.987118 0.256230
H83   H     H_    0.635054 0.805221 0.923642 0.262268
H84   H     H_    0.098644 0.788543 0.839939 0.241995
H85   H     H_    0.133355 0.701248 0.922130 0.262316
H86   H     H_    0.152431 0.794722 0.984968 0.256350
H87   H     H_    0.901254 0.212217 0.159504 0.241958
H88   H     H_    0.847293 0.206138 0.014388 0.256310
H89   H     H_    0.918481 0.805092 0.787751 0.127308
H90   H     H_    0.866200 0.299537 0.077275 0.262299
H91   H     H_    0.945131 0.725319 0.131948 0.248544
H92   H     H_    0.905743 0.641910 0.041346 0.258112
H93   H     H_    0.895286 0.737099 0.989044 0.255810
H94   H     H_    0.054903 0.274857 0.868214 0.248555
H95   H     H_    0.104791 0.263135 0.011150 0.255826
H96   H     H_    0.094368 0.358287 0.958796 0.258097
N1    N     N_R   0.625380 0.928280 0.709340 -0.034708
N2    N     N_R   0.613900 0.929750 0.547530 -0.036477
N3    N     N_R   0.613900 0.070250 0.547530 -0.042494
N4    N     N_R   0.386100 0.929750 0.452470 -0.042494
N5    N     N_R   0.886100 0.570250 0.452470 -0.042241
N6    N     N_R   0.113900 0.429750 0.547530 -0.042243
N7    N     N_R   0.113900 0.570250 0.547530 -0.036828
N8    N     N_R   0.886100 0.429750 0.452470 -0.036828
N9    N     N_R   0.437800 0.869550 0.507970 -0.043305
N10   N     N_R   0.562200 0.130450 0.492030 -0.043304
N11   N     N_R   0.562200 0.869550 0.492030 -0.035980
N12   N     N_R   0.374620 0.071720 0.290660 -0.034704
N13   N     N_R   0.437800 0.130450 0.507970 -0.035977
N14   N     N_R   0.937800 0.369550 0.507970 -0.036126
N15   N     N_R   0.062200 0.630450 0.492030 -0.036130
N16   N     N_R   0.062200 0.369550 0.492030 -0.043239
N17   N     N_R   0.937800 0.630450 0.507970 -0.043235
N18   N     N_R   0.573690 0.128980 0.653840 -0.044447
N19   N     N_R   0.426310 0.871020 0.346160 -0.044471
N20   N     N_R   0.426310 0.128980 0.346160 -0.037429
N21   N     N_R   0.573690 0.871020 0.653840 -0.037434
N22   N     N_R   0.073690 0.628980 0.653840 -0.037616
N23   N     N_R   0.374620 0.928280 0.290660 -0.042617
N24   N     N_R   0.926310 0.371020 0.346160 -0.037600
N25   N     N_R   0.926310 0.628980 0.346160 -0.044134
N26   N     N_R   0.073690 0.371020 0.653840 -0.044129
N27   N     N_R   0.625380 0.071720 0.709340 -0.042611
N28   N     N_R   0.125380 0.428280 0.709340 -0.042112
N29   N     N_R   0.874620 0.571720 0.290660 -0.042115
N30   N     N_R   0.874620 0.428280 0.290660 -0.034821
N31   N     N_R   0.125380 0.571720 0.709340 -0.034818
N32   N     N_R   0.386100 0.070250 0.452470 -0.036476
Ni1   Ni    Ni4+2 0.616560 0.000000 0.627280 0.213830
Ni2   Ni    Ni4+2 0.383440 1.000000 0.372720 0.213821
Ni3   Ni    Ni4+2 0.116560 0.500000 0.627280 0.213937
Ni4   Ni    Ni4+2 0.883440 0.500000 0.372720 0.213931
Ni5   Ni    Ni4+2 0.497990 0.870580 0.500000 0.206884
Ni6   Ni    Ni4+2 0.502010 0.129420 0.500000 0.206895
Ni7   Ni    Ni4+2 0.997990 0.370580 0.500000 0.207029
Ni8   Ni    Ni4+2 0.002010 0.629420 0.500000 0.207025

loop_
_geom_bond_atom_site_label_1
_geom_bond_atom_site_label_2
_ccdc_geom_bond_type
C63   H34   S    
C63   N27   A    
C68   H55   S    
N25   N29   A    
C28   H77   S    
C46   C124  S    
C27   H74   S    
C39   C65   A    
C91   C121  A    
N13   N32   A    
N6    N16   A    
C16   H43   S    
C47   C79   A    
C4    C8    S    
N21   Ni5   S    
C42   C58   A    
C32   H93   S    
C69   C78   A    
C83   C119  A    
C48   C57   A    
C60   H68   S    
C93   N11   A    
C94   H21   S    
C7    C11   S    
C54   H3    S    
C58   H65   S    
C13   C23   S    
C103  N21   A    
C82   H9    S    
C106  C114  A    
C27   H75   S    
N18   N27   A    
C106  N25   A    
C48   H6    S    
C85   C114  A    
C51   C75   A    
C20   C128  S    
C97   C124  A    
C1    H1    S    
C19   C36   S    
C88   C123  A    
C30   H84   S    
C94   C117  A    
N24   N30   A    
C107  C116  A    
C5    C21   S    
C105  H32   S    
C12   C126  S    
N22   N31   A    
C101  C111  A    
N26   N28   A    
C99   H26   S    
C16   C25   S    
C65   C73   A    
C84   C120  A    
C102  H29   S    
C93   H20   S    
N7    N15   A    
C88   N6    A    
C26   C126  S    
C106  H33   S    
C49   C81   A    
C63   C112  A    
C3    C29   S    
C72   H60   S    
C107  H78   S    
C5    C31   S    
C37   H52   S    
C1    C109  A    
C104  C116  A    
C13   C128  S    
C53   C61   A    
C97   H24   S    
C96   H67   S    
C15   C37   S    
C38   C66   A    
C84   H11   S    
C45   C125  S    
C41   H12   S    
N17   Ni8   S    
N32   Ni2   S    
C2    C22   S    
C67   C76   A    
C96   C115  A    
C3    C19   S    
C49   C58   A    
C118  H44   S    
C87   H14   S    
C26   H72   S    
C18   C35   S    
C69   H59   S    
C88   H15   S    
C48   C78   A    
C72   C81   A    
C2    H46   S    
C21   C115  S    
N24   Ni7   S    
C2    C127  S    
C35   H50   S    
C22   C116  S    
C70   C79   A    
C98   H25   S    
N11   Ni5   S    
C40   C59   A    
C64   H69   S    
C47   H5    S    
C92   H19   S    
N8    N14   A    
C9    C118  S    
C7    C33   S    
C90   N8    A    
C3    C24   S    
C36   H51   S    
C27   C127  S    
C14   H41   S    
N22   Ni8   S    
C17   C111  S    
N2    Ni1   S    
C71   C80   A    
N18   Ni6   S    
C29   H83   S    
C4    C34   S    
C65   H54   S    
C19   C109  S    
C71   H61   S    
N1    N21   A    
C98   C123  A    
C97   N15   A    
C108  H35   S    
N31   Ni3   S    
C11   C20   S    
N2    N11   A    
C27   H76   S    
C11   H39   S    
C29   H82   S    
C26   H73   S    
C24   C25   S    
C62   H70   S    
C74   H45   S    
C8    H36   S    
N20   Ni6   S    
C70   H58   S    
C17   C127  S    
N19   Ni5   S    
C31   H88   S    
C92   N10   A    
C52   C111  A    
C10   C24   S    
C39   C117  S    
C74   C113  A    
N7    Ni3   S    
C12   C21   S    
C51   H89   S    
C14   C127  S    
C15   H42   S    
C108  N26   A    
C95   N14   A    
C108  C113  A    
C99   N17   A    
C33   H96   S    
C105  N24   A    
C5    C9    S    
C21   C118  S    
C40   C121  S    
C30   H86   S    
C38   C57   A    
C4    C22   S    
C95   C125  A    
C94   N13   A    
C39   C56   A    
N30   Ni4   S    
C10   C19   S    
C10   H38   S    
C55   C64   A    
C86   C121  A    
C7    C37   S    
C107  N31   A    
C44   C69   A    
C95   H22   S    
C32   H92   S    
C89   N7    A    
C12   C35   S    
C26   H71   S    
C14   C22   S    
C46   C71   A    
C18   C126  S    
C99   C122  A    
C20   C110  S    
C38   C119  S    
C33   H95   S    
C100  H27   S    
C89   C124  A    
C66   H53   S    
C46   C62   A    
C100  C112  A    
C85   H56   S    
C104  N22   A    
C15   C128  S    
N8    Ni4   S    
C42   C67   A    
C28   H80   S    
C59   H64   S    
N15   Ni8   S    
C102  C110  A    
C102  N20   A    
C17   C34   S    
C55   C76   A    
N16   Ni7   S    
C24   H48   S    
C52   N23   A    
C43   C123  S    
N23   Ni2   S    
C100  N18   A    
C86   N4    A    
C43   C61   A    
C12   H40   S    
N9    Ni5   S    
C77   C80   A    
C1    N1    A    
C68   C77   A    
C13   H47   S    
N3    N10   A    
C6    C32   S    
C82   N32   A    
N13   Ni6   S    
C85   N29   A    
C105  C115  A    
C53   C73   A    
C20   C37   S    
C18   C112  S    
C73   C79   A    
C50   C80   A    
C76   C81   A    
C14   C34   S    
C87   C122  A    
C74   N28   A    
C103  H30   S    
C29   H81   S    
C51   C60   A    
C41   N12   A    
C43   C70   A    
C89   H16   S    
C118  C126  S    
C91   N9    A    
C45   C64   A    
N12   Ni2   S    
C8    C17   S    
C101  H28   S    
C103  C109  A    
C41   C110  A    
C15   C23   S    
C54   C77   A    
C9    H37   S    
C50   C59   A    
C92   C120  A    
N1    Ni1   S    
C57   H62   S    
C31   H90   S    
C87   N5    A    
C25   C114  S    
C33   H94   S    
C30   H85   S    
N14   Ni7   S    
C104  H31   S    
C11   C13   S    
N29   Ni4   S    
N12   N20   A    
N5    N17   A    
C44   C60   A    
C52   H23   S    
C7    C23   S    
C66   C75   A    
C5    C35   S    
C44   C122  S    
C90   C125  A    
C6    C36   S    
N27   Ni1   S    
N4    Ni2   S    
C83   H10   S    
N25   Ni8   S    
C49   H7    S    
C101  N19   A    
C75   C78   A    
C4    C30   S    
N26   Ni7   S    
C56   H63   S    
C32   H91   S    
C6    C10   S    
N3    Ni1   S    
C96   N30   A    
C6    C25   S    
N5    Ni4   S    
C67   H57   S    
C9    C18   S    
N10   Ni6   S    
C31   H87   S    
C98   N16   A    
N6    Ni3   S    
C86   H13   S    
C55   H4    S    
C40   C68   A    
C2    C8    S    
C90   H17   S    
C42   C120  S    
C28   H79   S    
C54   C62   A    
C34   H49   S    
C50   H8    S    
C53   H2    S    
C93   C119  A    
C82   C117  A    
C23   C113  S    
C84   N3    A    
C61   H66   S    
N19   N23   A    
C91   H18   S    
C16   C36   S    
C3    C16   S    
C28   C128  S    
N28   Ni3   S    
C47   C56   A    
C45   C72   A    
C83   N2    A    
N4    N9    A    
