data_mof_unit_54498.cif
_audit_creation_date              2013-03-05T16:19:46-0500
_audit_creation_method            fapswitch 2.2
_symmetry_space_group_name_H-M    P1
_symmetry_Int_Tables_number       1
_space_group_crystal_system       triclinic
_cell_length_a                    10.707664
_cell_length_b                    9.942293
_cell_length_c                    27.580336
_cell_angle_alpha                 89.782415
_cell_angle_beta                  91.153456
_cell_angle_gamma                 90.290256
_cell_volume                      2935.51493143

loop_
_atom_site_label
_atom_site_type_symbol
_atom_site_description
_atom_site_fract_x
_atom_site_fract_y
_atom_site_fract_z
_atom_type_partial_charge
O1    O     O_R   0.314910 0.616040 0.499990 -0.629075
O2    O     O_R   0.314910 0.383960 0.499990 -0.636222
C1    C     C_R   0.258643 0.499722 0.499258 0.843170
O3    O     O_R   0.500140 0.616020 0.428740 -0.627912
O4    O     O_R   0.500140 0.383980 0.428740 -0.627084
C2    C     C_R   0.499422 0.500284 0.406022 0.919752
Zn1   Zn    Zn3+2 0.500150 0.654960 0.499980 0.927086
Zn2   Zn    Zn3+2 0.500150 0.345040 0.499980 0.916196
O5    O     O_R   0.685320 0.616040 0.499970 -0.627881
O6    O     O_R   0.685320 0.383960 0.499970 -0.630452
O7    O     O_R   0.500090 0.616050 0.571230 -0.625402
O8    O     O_R   0.500090 0.383950 0.571230 -0.615111
C3    C     C_R   0.742103 0.500253 0.499203 0.867559
C4    C     C_R   0.505577 0.499612 0.593642 0.858987
C5    C     C_R   0.341163 0.468020 0.174417 0.506077
O9    O     O_2   0.231300 0.477994 0.197236 -0.547053
N1    N     N_R   0.451246 0.481307 0.200117 -0.351222
C6    C     C_R   0.564101 0.473826 0.177779 0.508230
C7    C     C_R   0.515898 0.603139 0.273710 -0.162951
C8    C     C_R   0.539896 0.602395 0.323620 -0.020966
C9    C     C_R   0.413900 0.399510 0.330444 -0.214544
C10   C     C_R   0.397714 0.396154 0.280427 -0.091947
C11   C     C_R   0.449989 0.496919 0.251750 0.290546
C12   C     C_R   0.457321 0.438947 0.100680 -0.055245
C13   C     C_R   0.342202 0.444813 0.124284 -0.023029
C14   C     C_R   0.231206 0.427505 0.097431 -0.131925
C15   C     C_R   0.569105 0.456119 0.127678 -0.020429
C16   C     C_R   0.486708 0.500498 0.352743 -0.072680
H1    H     H_    0.370098 0.321678 0.351373 0.186897
H2    H     H_    0.347430 0.312862 0.263864 0.159706
H3    H     H_    0.141459 0.428898 0.114875 0.190137
C17   C     C_R   0.516851 0.496928 0.646511 -0.045253
C18   C     C_R   0.353424 0.406750 0.971117 0.041352
C19   C     C_R   0.582111 0.381516 0.976945 0.000280
C20   C     C_R   0.471612 0.397302 0.948726 0.037662
C21   C     C_R   0.245487 0.418888 0.941116 -0.188690
C22   C     C_R   0.254318 0.427331 0.891067 -0.104031
C23   C     C_R   0.370872 0.425678 0.869204 -0.023448
C24   C     C_R   0.479925 0.407367 0.897826 -0.048135
C25   C     C_R   0.597583 0.404334 0.875677 -0.152897
C26   C     C_R   0.603248 0.442096 0.826435 0.496560
N2    N     N_R   0.496096 0.454407 0.798880 -0.337935
C27   C     C_R   0.380981 0.443001 0.819108 0.516724
C28   C     C_R   0.443940 0.578367 0.723561 -0.085779
C29   C     C_R   0.448305 0.589563 0.673314 -0.294546
C30   C     C_R   0.589227 0.397784 0.670940 0.181304
C31   C     C_R   0.578047 0.383152 0.720901 -0.116787
C32   C     C_R   0.505602 0.472394 0.747410 0.255354
O10   O     O_2   0.276692 0.448817 0.790869 -0.562453
C33   C     C_R   0.347900 0.408931 0.022505 0.048469
C34   C     C_R   0.460911 0.417602 0.050021 0.076739
C35   C     C_R   0.577881 0.408365 0.027186 0.054883
C36   C     C_R   0.233719 0.409632 0.047466 -0.214548
H4    H     H_    0.395394 0.668392 0.655281 0.159329
H5    H     H_    0.390244 0.650154 0.743822 0.165923
H6    H     H_    0.169235 0.439909 0.869642 0.225897
H7    H     H_    0.152775 0.427413 0.955163 0.174771
H8    H     H_    0.144328 0.396037 0.029490 0.143129
O11   O     O_2   0.671550 0.481216 0.204150 -0.543868
C37   C     C_R   0.683336 0.457888 0.104110 -0.138074
H9    H     H_    0.558300 0.679651 0.251156 0.150054
H10   H     H_    0.770199 0.477206 0.123743 0.195695
C38   C     C_R   0.692700 0.340183 0.953570 0.150549
C39   C     C_R   0.703845 0.361779 0.903131 -0.003368
O12   O     O_2   0.714203 0.471003 0.806417 -0.567538
C40   C     C_R   0.687250 0.437889 0.054503 -0.222870
H11   H     H_    0.627800 0.302893 0.739556 0.153788
H12   H     H_    0.776773 0.449971 0.037675 0.170614
C41   C     C_3   0.073869 0.536850 0.550812 -0.185574
C42   C     C_3   0.069523 0.355939 0.485841 -0.141205
H13   H     H_    0.093431 0.449463 0.575168 0.095929
H14   H     H_    0.109535 0.281480 0.512093 0.109738
C43   C     C_3   0.930424 0.555482 0.548082 -0.395907
C44   C     C_3   0.928333 0.355662 0.492495 -0.480753
H15   H     H_    0.887134 0.501046 0.578906 0.142182
H16   H     H_    0.908709 0.296658 0.525746 0.181243
H17   H     H_    0.903919 0.663168 0.551270 0.213911
H18   H     H_    0.879322 0.308322 0.460842 0.186822
H19   H     H_    0.092369 0.708094 0.474364 0.213905
H20   H     H_    0.114387 0.597072 0.425786 0.215368
H21   H     H_    0.889416 0.688419 0.456301 0.194373
H22   H     H_    0.904787 0.539208 0.421355 0.237266
C45   C     C_3   0.070776 0.604422 0.461780 -0.362896
C46   C     C_3   0.122197 0.499806 0.498994 0.111673
C47   C     C_3   0.879356 0.500411 0.499090 0.100646
C48   C     C_3   0.929123 0.587350 0.456670 -0.367329
C49   C     C_3   0.383328 0.079871 0.475005 0.047298
C50   C     C_3   0.376666 0.917791 0.479967 0.089309
H23   H     H_    0.300610 0.118171 0.494529 0.140880
H24   H     H_    0.303776 0.894297 0.507100 0.174262
H25   H     H_    0.632253 0.136807 0.442758 0.137528
H26   H     H_    0.557894 0.927026 0.427728 0.120181
C51   C     C_3   0.614568 0.081664 0.477125 0.176161
C52   C     C_3   0.594058 0.928227 0.465681 0.128383
C53   C     C_3   0.495196 0.078611 0.549072 -0.312675
C54   C     C_3   0.513843 0.919461 0.548642 -0.311719
N3    N     N_3   0.499750 0.138610 0.498940 -0.070210
N4    N     N_3   0.499750 0.861390 0.498940 -0.056137
H27   H     H_    0.564718 0.125693 0.573869 0.188583
H28   H     H_    0.605623 0.890822 0.564744 0.174214
H29   H     H_    0.404732 0.102444 0.566275 0.150544
H30   H     H_    0.443894 0.872777 0.572860 0.171803
C55   C     C_3   0.786828 0.249985 0.979624 -0.851387
H31   H     H_    0.876191 0.304441 0.986386 0.259170
H32   H     H_    0.751136 0.210616 0.014427 0.239545
H33   H     H_    0.805366 0.159814 0.957284 0.241915
C56   C     C_3   0.683293 0.309991 0.646340 -0.924916
H34   H     H_    0.774132 0.316040 0.666407 0.250305
H35   H     H_    0.650848 0.203897 0.646869 0.236432
H36   H     H_    0.702218 0.341711 0.608656 0.240390
C57   C     C_2   0.821915 0.325718 0.878796 0.505737
H37   H     H_    0.818786 0.275358 0.843955 0.089102
O13   O     O_2   0.923450 0.353396 0.897158 -0.597142
C58   C     C_2   0.137925 0.656318 0.574799 0.421387
H38   H     H_    0.205993 0.639112 0.603768 0.052878
O14   O     O_2   0.116857 0.771455 0.561533 -0.608292
C59   C     C_2   0.098313 0.302504 0.435768 0.388235
H39   H     H_    0.073269 0.199216 0.427255 0.062854
O15   O     O_2   0.147899 0.371018 0.404753 -0.603528
C60   C     C_3   0.362779 0.134086 0.423236 -0.865591
H40   H     H_    0.338479 0.240182 0.425637 0.304281
H41   H     H_    0.445059 0.120073 0.400098 0.221630
H42   H     H_    0.279418 0.090181 0.404890 0.226668
C61   C     C_3   0.324319 0.850689 0.432654 -0.833638
H43   H     H_    0.318677 0.741609 0.433355 0.285726
H44   H     H_    0.226044 0.882849 0.426600 0.204585
H45   H     H_    0.377135 0.876798 0.399799 0.224437
C62   C     C_3   0.734793 0.101378 0.509660 -0.880011
H46   H     H_    0.818340 0.106351 0.486742 0.218984
H47   H     H_    0.730461 0.187703 0.534055 0.264462
H48   H     H_    0.751615 0.018185 0.535495 0.225350
C63   C     C_3   0.716194 0.855510 0.459079 -0.854525
H49   H     H_    0.697541 0.764555 0.437696 0.305724
H50   H     H_    0.780392 0.916834 0.436688 0.210153
H51   H     H_    0.763436 0.833958 0.494294 0.259631
C64   C     C_2   0.635168 0.696843 0.342183 0.400697
H52   H     H_    0.627073 0.803689 0.334665 0.049243
O16   O     O_2   0.728818 0.653813 0.362667 -0.600357

loop_
_geom_bond_atom_site_label_1
_geom_bond_atom_site_label_2
_geom_bond_distance
_ccdc_geom_bond_type
C40   H12   1.079371 S    
C49   C50   1.618068 S    
C14   C36   1.390948 A    
C51   C52   1.572426 S    
Zn1   N4    2.052505 S    
C54   H30   1.112129 S    
C53   C54   1.595990 S    
C56   H35   1.109020 S    
C26   N2    1.369151 A    
C20   C24   1.411591 A    
C7    C8    1.395215 A    
C12   C15   1.406883 A    
C50   C61   1.560590 S    
C62   H46   1.106512 S    
C58   H38   1.084273 S    
C47   C48   1.553266 S    
C28   C29   1.391580 A    
Zn1   O7    2.001389 S    
N1    C11   1.433412 S    
C44   H16   1.109844 S    
C21   C22   1.387695 A    
C15   C37   1.396646 A    
H20   C45   1.108349 S    
C23   C24   1.408464 A    
O7    C4    1.311293 A    
C53   H27   1.104268 S    
C5    C13   1.402947 A    
C52   N4    1.525967 S    
C42   C59   1.519502 S    
C5    O9    1.349541 S    
C18   C21   1.413208 A    
C37   H10   1.083455 S    
C19   C20   1.412158 A    
C17   C29   1.402608 A    
C41   H13   1.114331 S    
O5    C3    1.305051 A    
C22   H6    1.083378 S    
C55   H32   1.109518 S    
C2    C16   1.473012 S    
C45   C46   1.553514 S    
C63   H49   1.096795 S    
C54   N4    1.493983 S    
C42   C44   1.526563 S    
C56   H34   1.110854 S    
C41   C43   1.548313 S    
C42   C46   1.575824 S    
H21   C48   1.093018 S    
C60   H42   1.105821 S    
C12   C34   1.415330 A    
C37   C40   1.384797 A    
C14   H3    1.083494 S    
C9    C10   1.387348 A    
C43   H15   1.113707 S    
O3    Zn1   2.004042 S    
C31   H11   1.084172 S    
C60   H41   1.107874 S    
C33   C34   1.417788 A    
C41   C58   1.516047 S    
C33   C36   1.415202 A    
C34   C35   1.416729 A    
C12   C13   1.407112 A    
C64   O16   1.219624 D    
C21   H7    1.076743 S    
C4    C17   1.460867 S    
C24   C25   1.411666 A    
C27   O10   1.349912 S    
C39   C57   1.489265 S    
C26   O12   1.349324 S    
C8    C16   1.415027 A    
C18   C33   1.419957 A    
H22   C48   1.112545 S    
C9    H1    1.075097 S    
C52   C63   1.512064 S    
O1    C1    1.301320 A    
C7    C11   1.400094 A    
Zn2   N3    2.052679 S    
C22   C23   1.397146 A    
H25   C51   1.112250 S    
C31   C32   1.399386 A    
Zn2   O8    2.004273 S    
C30   C56   1.509173 S    
H26   C52   1.108852 S    
N1    C6    1.369889 A    
C57   O13   1.220684 D    
N2    C32   1.435689 S    
C8    C64   1.468840 S    
C43   C47   1.548373 S    
C61   H45   1.107106 S    
C38   C55   1.520369 S    
C25   C26   1.410072 A    
C9    C16   1.404142 A    
O8    C4    1.308115 A    
C29   H4    1.082958 S    
C49   H23   1.115180 S    
C56   H36   1.107296 S    
O3    C2    1.312207 A    
N2    C27   1.367199 A    
C62   H48   1.102796 S    
C51   N3    1.494483 S    
C55   H31   1.109890 S    
C35   C40   1.409924 A    
C60   H40   1.090307 S    
C61   H44   1.110576 S    
Zn1   O5    2.022073 S    
C30   C31   1.392538 A    
C10   H2    1.082961 S    
C57   H37   1.085078 S    
O1    Zn1   2.018960 S    
C17   C30   1.416981 A    
O2    Zn2   2.022809 S    
C6    C15   1.395781 A    
C50   H24   1.115368 S    
C64   H52   1.085130 S    
O6    C3    1.303911 A    
C62   H47   1.094319 S    
O4    Zn2   2.001158 S    
C58   O14   1.221173 D    
C36   H8    1.077185 S    
C53   N3    1.505352 S    
C5    N1    1.369223 A    
C19   C35   1.413805 A    
C25   C39   1.419408 A    
C59   O15   1.219761 D    
O2    C1    1.301701 A    
C13   C14   1.397907 A    
C51   C62   1.566229 S    
C49   C60   1.536317 S    
C41   C46   1.575320 S    
C59   H39   1.085404 S    
H19   C45   1.110600 S    
C28   H5    1.082748 S    
O4    C2    1.313059 A    
C7    H9    1.084448 S    
C63   H51   1.106732 S    
C63   H50   1.111574 S    
C54   H28   1.108325 S    
C19   C38   1.422810 A    
C18   C20   1.422967 A    
C55   H33   1.110706 S    
C44   C47   1.546838 S    
C38   C39   1.414127 A    
C53   H29   1.114115 S    
C6    O11   1.350541 S    
C23   C27   1.397983 A    
C45   C48   1.529133 S    
Zn2   O6    2.018225 S    
C44   H18   1.114104 S    
C3    C47   1.469717 S    
C1    C46   1.460898 S    
C43   H17   1.113257 S    
C10   C11   1.395948 A    
C42   H14   1.114674 S    
C50   N4    1.517474 S    
C28   C32   1.401058 A    
C61   H43   1.086012 S    
C49   N3    1.514368 S    
