data_mof_unit_15597.cif
_audit_creation_date              2013-03-05T15:52:27-0500
_audit_creation_method            fapswitch 2.2
_symmetry_space_group_name_H-M    P1
_symmetry_Int_Tables_number       1
_space_group_crystal_system       triclinic
_cell_length_a                    27.76376
_cell_length_b                    10.735682
_cell_length_c                    9.654064
_cell_angle_alpha                 89.366541
_cell_angle_beta                  90.877622
_cell_angle_gamma                 93.84661
_cell_volume                      2870.55406143

loop_
_atom_site_label
_atom_site_type_symbol
_atom_site_description
_atom_site_fract_x
_atom_site_fract_y
_atom_site_fract_z
_atom_type_partial_charge
O1    O     O_R   0.500000 0.319640 0.618810 -0.573298
O2    O     O_R   0.500000 0.319660 0.381240 -0.576408
C1    C     C_R   0.500543 0.263007 0.500682 0.769284
O3    O     O_R   0.430260 0.500010 0.618770 -0.575053
O4    O     O_R   0.430270 0.500030 0.381200 -0.591002
C2    C     C_R   0.407611 0.496679 0.499050 0.809145
Cu1   Cu    Cu3+1 0.500000 0.499990 0.640660 0.952931
Cu2   Cu    Cu3+1 0.500000 0.500010 0.359340 0.989238
O5    O     O_R   0.500000 0.680340 0.618760 -0.607103
O6    O     O_R   0.500000 0.680360 0.381190 -0.505478
O7    O     O_R   0.569730 0.499970 0.618800 -0.606814
O8    O     O_R   0.569740 0.499990 0.381230 -0.554129
C3    C     C_R   0.500446 0.737184 0.499415 0.812197
C4    C     C_R   0.592389 0.498331 0.500934 0.815836
C5    C     C_R   0.178768 0.449124 0.603645 0.607152
O9    O     O_2   0.203749 0.367843 0.678459 -0.456368
N1    N     N_R   0.203489 0.532356 0.518028 -0.453607
C6    C     C_R   0.180628 0.619527 0.442567 0.603408
C7    C     C_R   0.286082 0.601554 0.586034 0.419642
C8    C     C_R   0.335522 0.590965 0.580465 -0.303015
C9    C     C_R   0.323569 0.418779 0.417242 0.123134
C10   C     C_R   0.273010 0.434982 0.416057 0.115346
C11   C     C_R   0.254675 0.524588 0.504497 0.210733
C12   C     C_R   0.103501 0.534248 0.529413 -0.096881
C13   C     C_R   0.127870 0.446846 0.610822 -0.122631
C14   C     C_R   0.100327 0.360572 0.694496 0.425464
C15   C     C_R   0.130328 0.622608 0.447243 -0.008548
C16   C     C_R   0.354754 0.501078 0.497504 -0.141321
C17   C     C_R   0.645366 0.495101 0.503058 -0.103726
C18   C     C_R   0.974100 0.428737 0.588577 0.076947
C19   C     C_R   0.977299 0.627628 0.459986 0.008322
C20   C     C_R   0.950192 0.526109 0.521342 0.075716
C21   C     C_R   0.946095 0.323171 0.637270 -0.199942
C22   C     C_R   0.896183 0.316558 0.626796 -0.140012
C23   C     C_R   0.872200 0.415148 0.568279 -0.024378
C24   C     C_R   0.898883 0.521321 0.515270 -0.074373
C25   C     C_R   0.874291 0.621586 0.456342 -0.044963
C26   C     C_R   0.822968 0.609067 0.451149 0.563050
N2    N     N_R   0.798418 0.505648 0.505612 -0.454744
C27   C     C_R   0.821795 0.409091 0.561632 0.610969
C28   C     C_R   0.720592 0.476235 0.382549 -0.090819
C29   C     C_R   0.670307 0.474223 0.380933 -0.117203
C30   C     C_R   0.671535 0.513440 0.627413 -0.247163
C31   C     C_R   0.721830 0.517926 0.629141 0.450539
C32   C     C_R   0.746605 0.499393 0.506049 0.258492
O10   O     O_2   0.796116 0.307313 0.610923 -0.471527
C33   C     C_R   0.025198 0.438399 0.602413 -0.026199
C34   C     C_R   0.052251 0.533019 0.528872 0.078666
C35   C     C_R   0.028399 0.625730 0.453557 0.068084
C36   C     C_R   0.050121 0.356881 0.688748 -0.243809
H1    H     H_    0.651020 0.456614 0.284082 0.179282
H2    H     H_    0.739453 0.461081 0.287479 0.187882
H3    H     H_    0.876393 0.233222 0.665444 0.189228
H4    H     H_    0.961881 0.241774 0.679887 0.146478
H5    H     H_    0.031237 0.290864 0.757113 0.176745
O11   O     O_2   0.206577 0.702149 0.362342 -0.517302
C37   C     C_R   0.106422 0.710228 0.368717 -0.117765
H6    H     H_    0.359251 0.653076 0.642555 0.194998
H7    H     H_    0.126236 0.777665 0.303190 0.195016
C38   C     C_R   0.952626 0.729287 0.408977 -0.220470
C39   C     C_R   0.902132 0.729304 0.407198 0.159381
O12   O     O_2   0.797268 0.697884 0.392062 -0.535508
C40   C     C_R   0.056508 0.712106 0.371806 -0.194440
H8    H     H_    0.972469 0.813768 0.375568 0.141336
H9    H     H_    0.653066 0.525228 0.723261 0.194947
H10   H     H_    0.040771 0.779498 0.304277 0.146940
H11   H     H_    0.430537 0.102736 0.419440 0.142494
C41   C     C_R   0.587839 0.143884 0.584226 -0.252849
H12   H     H_    0.588430 0.244364 0.590850 0.169523
C42   C     C_R   0.630497 0.086663 0.614909 0.414468
C43   C     C_R   0.631812 0.956320 0.604130 0.118385
C44   C     C_R   0.589308 0.885025 0.568895 -0.210601
H13   H     H_    0.590957 0.785202 0.559330 0.150983
C45   C     C_R   0.545947 0.941881 0.538588 0.087042
C46   C     C_R   0.545522 0.072971 0.543152 0.028546
C47   C     C_R   0.503014 0.129523 0.501907 -0.044186
C48   C     C_R   0.462389 0.058314 0.454640 -0.193205
H14   H     H_    0.430013 0.875350 0.420261 0.146704
C49   C     C_R   0.462283 0.929790 0.454054 -0.178456
C50   C     C_R   0.503279 0.871559 0.497930 -0.030232
H15   H     H_    0.435722 0.386333 0.126799 0.123095
C51   C     C_R   0.581303 0.625461 0.135713 0.304569
C52   C     C_R   0.622668 0.651021 0.055835 0.391741
C53   C     C_R   0.616812 0.668709 0.915726 -0.290407
H16   H     H_    0.646005 0.712211 0.855832 0.196800
C54   C     C_R   0.572665 0.637535 0.853762 -0.225707
H17   H     H_    0.568589 0.668200 0.749725 0.213709
C55   C     C_R   0.536410 0.566692 0.924823 0.184294
C56   C     C_R   0.538115 0.564633 0.073925 0.083859
N3    N     N_R   0.500460 0.501210 0.147910 -0.178743
C57   C     C_R   0.464674 0.437849 0.072981 -0.032994
H18   H     H_    0.436299 0.384143 0.870544 0.140468
C58   C     C_R   0.464995 0.436751 0.925632 -0.028584
N4    N     N_R   0.500480 0.501290 0.852040 -0.182383
C59   C     C_3   0.342767 0.305191 0.348820 -0.434492
C60   C     C_3   0.335467 0.190182 0.442805 -0.780611
H19   H     H_    0.359132 0.201269 0.536317 0.245717
H20   H     H_    0.297454 0.175784 0.476527 0.278271
H21   H     H_    0.344804 0.105879 0.386164 0.244653
H22   H     H_    0.325110 0.286856 0.246716 0.217638
H23   H     H_    0.381608 0.317794 0.325636 0.207912
Cl1   Cl    Cl    0.263921 0.712288 0.697543 -0.543774
C61   C     C_3   0.880906 0.848861 0.355816 -0.337780
C62   C     C_3   0.863260 0.924658 0.475973 -0.727309
H24   H     H_    0.837125 0.868441 0.540813 0.274448
H25   H     H_    0.894392 0.957802 0.542619 0.233089
H26   H     H_    0.845486 0.007248 0.434704 0.248309
H27   H     H_    0.908489 0.909946 0.300709 0.179544
H28   H     H_    0.852370 0.829913 0.275978 0.259501
Cl2   Cl    Cl    0.753012 0.550176 0.786027 -0.542644
Cl3   Cl    Cl    0.681623 0.181973 0.666172 -0.570554
C63   C     C_3   0.238495 0.360530 0.318688 -0.409001
C64   C     C_3   0.238704 0.419429 0.173966 -0.713125
H29   H     H_    0.225727 0.514892 0.177889 0.279157
H30   H     H_    0.275543 0.425150 0.130316 0.246341
H31   H     H_    0.214276 0.362105 0.104061 0.276806
H32   H     H_    0.247344 0.261741 0.312363 0.228238
H33   H     H_    0.200863 0.355647 0.355949 0.211697
C65   C     C_3   0.678085 0.891757 0.626536 -0.397656
C66   C     C_3   0.710902 0.909112 0.501486 -0.618621
H34   H     H_    0.692485 0.868220 0.407928 0.294387
H35   H     H_    0.720986 0.009415 0.481702 0.274228
H36   H     H_    0.744387 0.860635 0.521616 0.259262
H37   H     H_    0.697243 0.927326 0.721454 0.259304
H38   H     H_    0.670223 0.789869 0.642107 0.189776
Cl4   Cl    Cl    0.581819 0.740196 0.263030 -0.582497
Cl5   Cl    Cl    0.679405 0.699330 0.129714 -0.527745
Cl6   Cl    Cl    0.125437 0.253054 0.810248 -0.531336

loop_
_geom_bond_atom_site_label_1
_geom_bond_atom_site_label_2
_geom_bond_distance
_ccdc_geom_bond_type
C18   C20   1.421123 A    
C58   N4    1.369088 A    
C35   C40   1.413290 A    
C17   C29   1.404083 A    
C59   C60   1.528430 S    
C28   C29   1.394666 A    
C7    C11   1.399793 A    
C7    C8    1.386844 A    
H11   C48   1.081083 S    
C12   C15   1.410871 A    
C30   C31   1.393804 A    
C62   H25   1.111049 S    
Cu1   Cu2   2.715879 S    
C65   H37   1.110841 S    
C66   H34   1.111078 S    
C41   C46   1.410520 A    
Cu1   O7    1.950661 S    
N1    C11   1.437132 S    
C51   C56   1.449709 A    
C52   C53   1.372517 A    
C20   C24   1.422356 A    
C24   C25   1.421836 A    
C39   C61   1.522914 S    
C53   C54   1.378086 A    
C14   C36   1.392055 A    
C63   H32   1.107132 S    
C7    Cl1   1.759949 S    
C54   C55   1.403264 A    
C5    C13   1.414448 A    
C5    O9    1.347607 S    
C60   H21   1.109987 S    
C5    N1    1.368016 A    
C22   C23   1.397366 A    
O5    C3    1.297658 A    
C63   C64   1.527135 S    
C2    C16   1.471286 S    
C19   C20   1.412234 A    
C41   H12   1.080326 S    
C60   H20   1.109626 S    
C42   C43   1.407288 A    
Cu2   O8    1.944534 S    
C28   H2    1.082835 S    
C66   H36   1.109056 S    
C6    O11   1.349745 S    
C29   H1    1.082445 S    
N2    C32   1.435660 S    
C64   H31   1.110552 S    
C40   H10   1.078258 S    
C45   C50   1.414081 A    
C9    C10   1.425842 A    
C17   C30   1.402587 A    
C19   C35   1.422573 A    
O3    Cu1   1.944539 S    
C62   H24   1.108777 S    
C66   H35   1.109524 S    
C38   H8    1.077989 S    
C37   C40   1.388080 A    
C33   C36   1.409560 A    
C47   C48   1.393228 A    
C48   C49   1.379665 A    
C26   N2    1.367579 A    
C55   N4    1.370150 A    
C45   C46   1.409362 A    
C12   C34   1.422007 A    
C18   C33   1.419848 A    
C12   C13   1.417187 A    
C44   C45   1.411153 A    
C15   C37   1.397372 A    
N2    C27   1.362134 A    
C59   H22   1.107810 S    
C9    C59   1.524221 S    
C13   C14   1.415108 A    
C38   C39   1.401763 A    
O1    C1    1.299049 A    
C23   C24   1.412560 A    
C19   C38   1.407451 A    
C27   O10   1.350195 S    
C46   C47   1.412922 A    
C25   C26   1.422400 A    
C57   C58   1.422864 A    
C33   C34   1.413544 A    
C30   H9    1.077506 S    
C60   H19   1.111107 S    
N1    C6    1.363761 A    
C14   Cl6   1.767122 S    
C53   H16   1.080256 S    
C1    C47   1.439184 S    
C61   H27   1.112178 S    
C65   H38   1.109985 S    
O3    C2    1.306968 A    
C34   C35   1.419693 A    
C9    C16   1.422178 A    
O8    C4    1.307664 A    
C10   C63   1.525458 S    
Cu2   N3    2.041287 S    
C4    C17   1.473402 S    
C8    H6    1.084320 S    
C31   C32   1.404819 A    
C54   H17   1.060269 S    
C64   H29   1.110139 S    
C21   H4    1.078367 S    
Cu1   O5    1.945364 S    
Cu1   N4    2.040712 S    
C18   C21   1.411068 A    
O1    Cu1   1.949954 S    
O2    Cu2   1.945364 S    
C6    C15   1.400543 A    
C52   Cl5   1.767252 S    
C44   H13   1.080741 S    
O6    C3    1.299593 A    
O4    Cu2   1.950664 S    
C25   C39   1.427958 A    
C65   C66   1.525866 S    
C8    C16   1.398957 A    
C36   H5    1.078520 S    
C43   C65   1.511745 S    
C61   H28   1.107370 S    
O2    C1    1.298064 A    
C43   C44   1.402262 A    
C63   H33   1.107921 S    
H14   C49   1.084295 S    
N3    C57   1.367946 A    
O4    C2    1.307467 A    
H18   C58   1.081599 S    
O7    C4    1.309471 A    
C21   C22   1.384992 A    
C23   C27   1.397086 A    
C3    C50   1.439404 S    
C37   H7    1.083540 S    
C42   Cl3   1.761119 S    
C49   C50   1.393068 A    
H15   C57   1.081077 S    
C55   C56   1.439471 A    
C22   H3    1.083743 S    
Cu2   O6    1.949954 S    
C51   C52   1.403235 A    
C61   C62   1.529555 S    
C41   C42   1.396651 A    
C28   C32   1.400367 A    
C10   C11   1.417995 A    
C26   O12   1.345547 S    
C56   N3    1.408308 A    
C62   H26   1.110537 S    
C51   Cl4   1.748929 S    
C59   H23   1.103839 S    
C64   H30   1.109776 S    
C31   Cl2   1.759139 S    
