data_mof_unit_5938.cif
_audit_creation_date              2012-12-11T14:52:24-0500
_audit_creation_method            fapswitch 2.2
_symmetry_space_group_name_H-M    P1
_symmetry_Int_Tables_number       1
_space_group_crystal_system       triclinic
_cell_length_a                    19.092334
_cell_length_b                    10.958672
_cell_length_c                    18.867146
_cell_angle_alpha                 89.732492
_cell_angle_beta                  90.140059
_cell_angle_gamma                 89.819941
_cell_volume                      3947.43484608

loop_
_atom_site_label
_atom_site_type_symbol
_atom_type_description
_atom_site_fract_x
_atom_site_fract_y
_atom_site_fract_z
_atom_type_partial_charge
C1    C     C_R   0.273854 0.039022 0.854682 0.566534
C2    C     C_R   0.726163 0.039414 0.145362 0.570937
C3    C     C_R   0.773854 0.539022 0.854682 0.566534
C4    C     C_R   0.226163 0.539414 0.145362 0.570937
C5    C     C_3   0.516288 0.730660 0.962889 0.088437
C6    C     C_3   0.484445 0.730279 0.037338 0.088998
C7    C     C_3   0.016288 0.230660 0.962889 0.088437
C8    C     C_3   0.984445 0.230279 0.037338 0.088998
C9    C     C_R   0.312427 0.575309 0.968191 -0.079136
C10   C     C_R   0.687957 0.574636 0.032205 -0.076838
C11   C     C_R   0.812427 0.075308 0.968191 -0.079136
C12   C     C_R   0.187957 0.074636 0.032205 -0.076838
C13   C     C_R   0.302971 0.543607 0.038873 -0.021032
C14   C     C_R   0.697312 0.543056 0.961587 -0.021642
C15   C     C_R   0.802971 0.043607 0.038873 -0.021032
C16   C     C_R   0.197312 0.043056 0.961587 -0.021642
C17   C     C_R   0.242047 0.579427 0.073920 0.100900
C18   C     C_R   0.758011 0.578730 0.926173 0.099991
C19   C     C_R   0.742047 0.079427 0.073920 0.100900
C20   C     C_R   0.258011 0.078730 0.926173 0.099991
C21   C     C_R   0.191630 0.650159 0.038813 -0.026393
C22   C     C_R   0.808190 0.649629 0.960894 -0.026708
C23   C     C_R   0.691630 0.150159 0.038813 -0.026393
C24   C     C_R   0.308190 0.149629 0.960894 -0.026708
C25   C     C_R   0.200333 0.684689 0.969291 0.197654
C26   C     C_R   0.799512 0.684158 0.030320 0.197187
C27   C     C_R   0.700333 0.184689 0.969291 0.197654
C28   C     C_R   0.299512 0.184158 0.030320 0.197187
C29   C     C_R   0.261032 0.644276 0.932524 0.142469
C30   C     C_R   0.739159 0.643628 0.067481 0.143183
C31   C     C_R   0.761032 0.144276 0.932524 0.142470
C32   C     C_R   0.239158 0.143628 0.067481 0.143183
C33   C     C_R   0.532286 0.737106 0.546962 0.066374
C34   C     C_R   0.537291 0.726605 0.473786 0.072271
C35   C     C_R   0.032286 0.237106 0.546962 0.066374
C36   C     C_R   0.037291 0.226605 0.473786 0.072271
C37   C     C_R   0.513272 0.823593 0.429162 0.030960
C38   C     C_R   0.497876 0.837810 0.575837 0.056465
C39   C     C_R   0.013272 0.323594 0.429162 0.030960
C40   C     C_R   0.997876 0.337810 0.575837 0.056465
C41   C     C_R   0.479634 0.925504 0.458311 0.029954
C42   C     C_R   0.474674 0.935303 0.531815 0.075787
C43   C     C_R   0.979634 0.425504 0.458311 0.029954
C44   C     C_R   0.974674 0.435303 0.531815 0.075788
C45   C     C_R   0.437860 0.817386 0.863194 0.545566
C46   C     C_R   0.562068 0.817602 0.136795 0.546782
C47   C     C_R   0.937860 0.317386 0.863194 0.545566
C48   C     C_R   0.062068 0.317602 0.136795 0.546782
C49   C     C_R   0.187049 0.602554 0.543876 -0.146809
C50   C     C_R   0.744189 0.709588 0.476661 -0.101865
C51   C     C_R   0.687049 0.102554 0.543876 -0.146809
C52   C     C_R   0.244188 0.209588 0.476661 -0.101865
C53   C     C_R   0.180312 0.606823 0.471766 0.064546
C54   C     C_R   0.750515 0.690411 0.548731 0.046002
C55   C     C_R   0.680312 0.106823 0.471766 0.064546
C56   C     C_R   0.250515 0.190411 0.548731 0.046002
C57   C     C_R   0.237843 0.572621 0.428928 0.024980
C58   C     C_R   0.756587 0.570412 0.573315 0.003001
C59   C     C_R   0.737843 0.072621 0.428928 0.024980
C60   C     C_R   0.256586 0.070412 0.573315 0.003001
C61   C     C_R   0.302307 0.543397 0.459691 -0.155840
C62   C     C_R   0.755257 0.470793 0.526490 -0.149804
C63   C     C_R   0.802307 0.043398 0.459691 -0.155840
C64   C     C_R   0.255257 0.970793 0.526490 -0.149803
C65   C     C_R   0.310899 0.550908 0.532666 0.099189
C66   C     C_R   0.750469 0.490745 0.454032 0.049579
C67   C     C_R   0.810899 0.050908 0.532666 0.099189
C68   C     C_R   0.250469 0.990745 0.454032 0.049580
C69   C     C_R   0.252412 0.584678 0.574542 0.052843
C70   C     C_R   0.745207 0.610323 0.429849 0.054596
C71   C     C_R   0.752412 0.084679 0.574542 0.052843
C72   C     C_R   0.245207 0.110323 0.429849 0.054596
C73   C     C_R   0.271765 0.680149 0.858999 0.569505
C74   C     C_R   0.728416 0.679609 0.140932 0.569814
C75   C     C_R   0.771765 0.180149 0.858999 0.569505
C76   C     C_R   0.228416 0.179609 0.140932 0.569814
C77   C     C_R   0.272238 0.043941 0.645788 0.552863
C78   C     C_R   0.726142 0.042512 0.355586 0.573359
C79   C     C_R   0.772238 0.543941 0.645788 0.552864
C80   C     C_R   0.226142 0.542512 0.355586 0.573359
C81   C     C_R   0.470120 0.824842 0.647200 0.609537
C82   C     C_R   0.532298 0.821909 0.354454 0.573063
C83   C     C_R   0.970119 0.324842 0.647200 0.609537
C84   C     C_R   0.032298 0.321910 0.354454 0.573063
C85   C     C_R   0.260805 0.635587 0.644230 0.564683
C86   C     C_R   0.739503 0.638357 0.356363 0.600230
C87   C     C_R   0.760805 0.135587 0.644230 0.564683
C88   C     C_R   0.239503 0.138357 0.356363 0.600230
C89   C     C_3   0.485608 0.924594 0.037360 0.075039
C90   C     C_3   0.513754 0.924873 0.962132 0.076103
C91   C     C_3   0.985608 0.424594 0.037360 0.075039
C92   C     C_3   0.013754 0.424873 0.962132 0.076104
C93   C     C_3   0.430419 0.828707 0.016472 0.233906
C94   C     C_3   0.569593 0.829557 0.983472 0.235234
C95   C     C_3   0.930419 0.328707 0.016472 0.233906
C96   C     C_3   0.069593 0.329557 0.983472 0.235234
C97   C     C_3   0.461281 0.826642 0.938928 -0.041858
C98   C     C_3   0.538735 0.826965 0.060987 -0.042232
C99   C     C_3   0.961281 0.326642 0.938928 -0.041858
C100  C     C_3   0.038735 0.326965 0.060987 -0.042232
Cr1   Cr    Cr6+3 0.229630 0.835900 0.747350 1.033586
Cr2   Cr    Cr6+3 0.770370 0.835900 0.252650 1.034932
Cr3   Cr    Cr6+3 0.729630 0.335900 0.747350 1.033586
Cr4   Cr    Cr6+3 0.270370 0.335900 0.252650 1.034932
Cr5   Cr    Cr6+3 0.387410 0.989850 0.750850 1.038729
Cr6   Cr    Cr6+3 0.612590 0.989850 0.249150 1.039530
Cr7   Cr    Cr6+3 0.887410 0.489850 0.750850 1.038729
Cr8   Cr    Cr6+3 0.112590 0.489850 0.249150 1.039530
Cr9   Cr    Cr6+3 0.385800 0.677120 0.749340 1.037391
Cr10  Cr    Cr6+3 0.614200 0.677120 0.250660 1.045758
Cr11  Cr    Cr6+3 0.885800 0.177120 0.749340 1.037391
Cr12  Cr    Cr6+3 0.114200 0.177120 0.250660 1.045758
H1    H     H_    0.141781 0.626746 0.575601 0.140700
H2    H     H_    0.738229 0.802010 0.456832 0.150365
H3    H     H_    0.641781 0.126746 0.575601 0.140701
H4    H     H_    0.238229 0.302010 0.456832 0.150365
H5    H     H_    0.345864 0.514966 0.426854 0.132423
H6    H     H_    0.761455 0.378124 0.546017 0.140779
H7    H     H_    0.845864 0.014966 0.426854 0.132423
H8    H     H_    0.261456 0.878124 0.546017 0.140779
H9    H     H_    0.360097 0.547187 0.941905 0.116278
H10   H     H_    0.640483 0.546383 0.058747 0.117011
H11   H     H_    0.860097 0.047187 0.941905 0.116278
H12   H     H_    0.140483 0.046383 0.058747 0.117011
H13   H     H_    0.343468 0.494441 0.066858 0.165575
H14   H     H_    0.656935 0.494019 0.933943 0.166003
H15   H     H_    0.843468 0.994441 0.066858 0.165575
H16   H     H_    0.156935 0.994019 0.933943 0.166003
H17   H     H_    0.144665 0.680733 0.065532 0.106257
H18   H     H_    0.854908 0.680523 0.933907 0.105494
H19   H     H_    0.644666 0.180733 0.065532 0.106257
H20   H     H_    0.354908 0.180523 0.933907 0.105494
O1    O     O_R   0.214270 0.709000 0.827470 -0.478400
O2    O     O_R   0.785730 0.709000 0.172530 -0.478536
O3    O     O_R   0.714270 0.209000 0.827470 -0.478399
O4    O     O_R   0.285730 0.209000 0.172530 -0.478535
O5    O     O_R   0.445950 0.919440 0.676520 -0.472927
O6    O     O_R   0.554050 0.919440 0.323480 -0.505723
O7    O     O_R   0.945950 0.419440 0.676520 -0.472927
O8    O     O_R   0.054050 0.419440 0.323480 -0.505723
O9    O     O_R   0.456730 0.717630 0.669840 -0.465386
O10   O     O_R   0.543270 0.717630 0.330160 -0.469421
O11   O     O_R   0.956730 0.217630 0.669840 -0.465386
O12   O     O_R   0.043270 0.217630 0.330160 -0.469421
O13   O     O_R   0.320620 0.625640 0.672920 -0.468269
O14   O     O_R   0.679380 0.625640 0.327080 -0.471534
O15   O     O_R   0.820620 0.125640 0.672920 -0.468269
O16   O     O_R   0.179380 0.125640 0.327080 -0.471534
O17   O     O_3   0.334280 0.834290 0.749180 -0.311921
O18   O     O_3   0.665720 0.834290 0.250820 -0.315992
O19   O     O_3   0.834280 0.334290 0.749180 -0.311921
O20   O     O_3   0.165720 0.334290 0.250820 -0.315992
O21   O     O_R   0.236160 0.958490 0.823130 -0.503643
O22   O     O_R   0.763840 0.958490 0.176870 -0.504363
O23   O     O_R   0.736160 0.458490 0.823130 -0.503643
O24   O     O_R   0.263840 0.458490 0.176870 -0.504363
O25   O     O_R   0.332080 0.075470 0.831280 -0.543770
O26   O     O_R   0.667920 0.075470 0.168720 -0.540443
O27   O     O_R   0.832080 0.575470 0.831280 -0.543770
O28   O     O_R   0.167920 0.575470 0.168720 -0.540443
O29   O     O_R   0.446300 0.918110 0.826620 -0.475041
O30   O     O_R   0.553700 0.918110 0.173380 -0.474706
O31   O     O_R   0.946300 0.418110 0.826620 -0.475041
O32   O     O_R   0.053700 0.418110 0.173380 -0.474706
O33   O     O_R   0.457110 0.716200 0.831760 -0.528712
O34   O     O_R   0.542890 0.716200 0.168240 -0.528733
O35   O     O_R   0.957110 0.216200 0.831760 -0.528712
O36   O     O_R   0.042890 0.216200 0.168240 -0.528733
O37   O     O_R   0.320980 0.624310 0.823030 -0.526297
O38   O     O_R   0.679020 0.624310 0.176970 -0.520791
O39   O     O_R   0.820980 0.124310 0.823030 -0.526297
O40   O     O_R   0.179020 0.124310 0.176970 -0.520791
O41   O     O_R   0.213890 0.710430 0.665540 -0.535411
O42   O     O_R   0.786110 0.710430 0.334460 -0.520357
O43   O     O_R   0.713890 0.210430 0.665540 -0.535410
O44   O     O_R   0.286110 0.210430 0.334460 -0.520357
O45   O     O_R   0.235810 0.959820 0.673020 -0.503458
O46   O     O_R   0.764190 0.959820 0.326980 -0.520954
O47   O     O_R   0.735810 0.459820 0.673020 -0.503458
O48   O     O_R   0.264190 0.459820 0.326980 -0.520954
O49   O     O_R   0.331700 0.076900 0.669350 -0.502377
O50   O     O_R   0.668300 0.076900 0.330650 -0.461582
O51   O     O_R   0.831700 0.576900 0.669350 -0.502376
O52   O     O_R   0.168300 0.576900 0.330650 -0.461582
S1    S     S_3+6 0.350113 0.851610 0.063854 -0.020760
O53   O     O_2   0.291452 0.860684 0.011974 -0.337640
O54   O     O_2   0.337920 0.748999 0.114849 -0.328973
O55   O     O_3   0.350230 0.978652 0.113137 -0.496021
H21   H     H_    0.370834 0.954527 0.159399 0.381341
S2    S     S_3+6 0.650032 0.853552 0.936598 -0.022746
O56   O     O_2   0.708308 0.862643 0.988857 -0.337157
O57   O     O_2   0.663163 0.751469 0.885960 -0.331203
O58   O     O_3   0.649368 0.981022 0.887013 -0.498447
H22   H     H_    0.629261 0.957099 0.840664 0.379951
S3    S     S_3+6 0.850114 0.351610 0.063854 -0.020760
O59   O     O_2   0.791452 0.360684 0.011974 -0.337640
O60   O     O_2   0.837920 0.248999 0.114849 -0.328973
O61   O     O_3   0.850230 0.478652 0.113137 -0.496021
H23   H     H_    0.870834 0.454527 0.159399 0.381341
S4    S     S_3+6 0.150032 0.353552 0.936598 -0.022746
O62   O     O_2   0.208308 0.362643 0.988857 -0.337157
O63   O     O_2   0.163163 0.251469 0.885960 -0.331203
O64   O     O_3   0.149368 0.481022 0.887013 -0.498446
H24   H     H_    0.129261 0.457099 0.840664 0.379951
N1    N     N_3   0.114830 0.648354 0.443045 -0.590345
H25   H     H_    0.075667 0.594371 0.464904 0.235844
H26   H     H_    0.106086 0.737617 0.460366 0.214013
N2    N     N_3   0.748603 0.792504 0.595810 -0.636078
H27   H     H_    0.707034 0.780315 0.631071 0.241974
H28   H     H_    0.795026 0.793589 0.625167 0.249243
N3    N     N_3   0.614830 0.148354 0.443045 -0.590345
H29   H     H_    0.575667 0.094371 0.464904 0.235844
H30   H     H_    0.606086 0.237616 0.460366 0.214013
N4    N     N_3   0.248602 0.292504 0.595810 -0.636078
H31   H     H_    0.207034 0.280315 0.631071 0.241975
H32   H     H_    0.295026 0.293589 0.625167 0.249243
N5    N     N_3   0.378841 0.529105 0.563435 -0.575182
H33   H     H_    0.376223 0.447768 0.592346 0.236382
H34   H     H_    0.416431 0.515539 0.524043 0.207138
N6    N     N_3   0.753221 0.391401 0.405146 -0.614261
H35   H     H_    0.798342 0.340138 0.415884 0.233386
H36   H     H_    0.709819 0.336226 0.414522 0.252904
N7    N     N_3   0.878841 0.029105 0.563435 -0.575182
H37   H     H_    0.876223 0.947768 0.592345 0.236382
H38   H     H_    0.916431 0.015539 0.524043 0.207138
N8    N     N_3   0.253221 0.891401 0.405146 -0.614261
H39   H     H_    0.298343 0.840138 0.415884 0.233386
H40   H     H_    0.209819 0.836226 0.414521 0.252904
N9    N     N_3   0.475067 0.040078 0.073907 -0.563645
H41   H     H_    0.447834 0.096556 0.038845 0.219878
H42   H     H_    0.523972 0.080643 0.081324 0.224194
N10   N     N_3   0.523643 0.040617 0.925132 -0.563095
H43   H     H_    0.550554 0.097190 0.959942 0.219742
H44   H     H_    0.474511 0.080895 0.917551 0.224428
N11   N     N_3   0.975067 0.540078 0.073907 -0.563645
H45   H     H_    0.947834 0.596556 0.038845 0.219878
H46   H     H_    0.023972 0.580643 0.081324 0.224194
N12   N     N_3   0.023643 0.540617 0.925132 -0.563095
H47   H     H_    0.050554 0.597190 0.959942 0.219742
H48   H     H_    0.974511 0.580895 0.917551 0.224428
N13   N     N_3   0.535426 0.613120 0.931802 -0.621691
H49   H     H_    0.489940 0.561762 0.924814 0.244099
H50   H     H_    0.558344 0.626672 0.882320 0.299196
N14   N     N_3   0.466082 0.612143 0.068582 -0.621424
H51   H     H_    0.511918 0.561217 0.075783 0.244024
H52   H     H_    0.442903 0.624698 0.117971 0.298428
N15   N     N_3   0.035426 0.113120 0.931802 -0.621691
H53   H     H_    0.989940 0.061761 0.924814 0.244099
H54   H     H_    0.058344 0.126672 0.882320 0.299196
N16   N     N_3   0.966082 0.112143 0.068582 -0.621424
H55   H     H_    0.011918 0.061217 0.075783 0.244024
H56   H     H_    0.942903 0.124698 0.117971 0.298428
N17   N     N_3   0.150565 0.769040 0.938609 -0.608700
H57   H     H_    0.118247 0.722476 0.903376 0.272636
H58   H     H_    0.117269 0.805172 0.977206 0.189580
N18   N     N_3   0.848783 0.768958 0.060410 -0.608733
H59   H     H_    0.881356 0.722804 0.096003 0.271817
H60   H     H_    0.881832 0.805194 0.021548 0.190093
N19   N     N_3   0.650565 0.269040 0.938609 -0.608700
H61   H     H_    0.618247 0.222476 0.903376 0.272636
H62   H     H_    0.617269 0.305171 0.977206 0.189580
N20   N     N_3   0.348783 0.268958 0.060410 -0.608733
H63   H     H_    0.381356 0.222804 0.096003 0.271817
H64   H     H_    0.381832 0.305194 0.021548 0.190093
N21   N     N_3   0.560291 0.643510 0.592819 -0.601534
H65   H     H_    0.536979 0.559963 0.580807 0.239136
H66   H     H_    0.614136 0.636550 0.584890 0.229698
N22   N     N_3   0.563924 0.614550 0.444823 -0.573748
H67   H     H_    0.612501 0.594542 0.467186 0.231561
H68   H     H_    0.529451 0.543971 0.457620 0.214946
N23   N     N_3   0.060291 0.143510 0.592819 -0.601534
H69   H     H_    0.036979 0.059963 0.580806 0.239136
H70   H     H_    0.114136 0.136550 0.584890 0.229698
N24   N     N_3   0.063924 0.114551 0.444823 -0.573748
H71   H     H_    0.112501 0.094542 0.467186 0.231561
H72   H     H_    0.029451 0.043971 0.457620 0.214946
N25   N     N_3   0.446154 0.016410 0.414516 -0.637687
H73   H     H_    0.412681 0.972838 0.378802 0.248842
H74   H     H_    0.483546 0.065469 0.386118 0.266604
N26   N     N_3   0.445019 0.044046 0.561551 -0.567139
H75   H     H_    0.476394 0.118000 0.547022 0.224350
H76   H     H_    0.395508 0.057917 0.539389 0.270349
N27   N     N_3   0.946154 0.516410 0.414516 -0.637687
H77   H     H_    0.912681 0.472838 0.378802 0.248841
H78   H     H_    0.983546 0.565469 0.386118 0.266604
N28   N     N_3   0.945018 0.544046 0.561551 -0.567138
H79   H     H_    0.976395 0.618000 0.547023 0.224349
H80   H     H_    0.895508 0.557918 0.539388 0.270349

loop_
_geom_bond_atom_site_label_1
_geom_bond_atom_site_label_2
_ccdc_geom_bond_type
C58   C62   A    
C49   H1    S    
O64   H24   S    
C49   C53   A    
S2    O56   D    
Cr6   O18   S    
C55   C59   A    
N27   H78   S    
C34   C37   A    
C41   C42   A    
C14   C18   A    
Cr1   O41   S    
N7    H37   S    
C40   C83   S    
Cr3   O19   S    
C82   O10   A    
C90   N10   S    
C65   N5    S    
C83   O7    A    
C5    C94   S    
C76   O4    A    
C47   C99   S    
C7    C8    S    
Cr4   O44   S    
C79   O51   A    
C4    O28   A    
N1    H25   S    
C15   C19   A    
C7    C96   S    
Cr8   O32   S    
C92   N12   S    
C50   C54   A    
C7    C99   S    
C96   S4    S    
C5    C6    S    
C64   C68   A    
C34   N22   S    
C85   O13   A    
C39   C84   S    
N13   H49   S    
C52   H4    S    
C86   O42   A    
S4    O64   S    
C10   H10   S    
N17   H57   S    
C30   C74   S    
C95   C99   S    
S1    O54   D    
C29   C73   S    
C84   O12   A    
N16   H56   S    
N23   H69   S    
Cr12  O36   S    
C91   N11   S    
C92   C96   S    
C63   H7    S    
N14   H51   S    
C3    C18   S    
C76   O40   A    
N24   H71   S    
Cr1   O17   S    
Cr10  O10   S    
Cr3   O3    S    
C1    O21   A    
Cr6   O50   S    
C9    C13   A    
N9    H42   S    
S2    O58   S    
Cr8   O20   S    
C11   C15   A    
C8    C100  S    
Cr5   O25   S    
C35   C36   A    
C9    H9    S    
N2    H27   S    
C21   H17   S    
N18   H60   S    
C53   N1    S    
N11   H45   S    
Cr12  O20   S    
O61   H23   S    
C23   C27   A    
C91   C100  S    
Cr2   O2    S    
C46   O34   A    
N21   H65   S    
Cr2   O22   S    
C90   C97   S    
C67   C71   A    
C95   S3    S    
C9    C29   A    
S3    O61   S    
C13   H13   S    
C81   O9    A    
C46   C98   S    
C11   C31   A    
C2    O22   A    
C18   C22   A    
N25   H73   S    
C12   C32   A    
C3    O27   A    
N11   H46   S    
C57   C80   S    
C6    N14   S    
N6    H36   S    
Cr9   O33   S    
C8    C95   S    
C51   C71   A    
Cr12  O40   S    
C86   O14   A    
C59   C78   S    
C36   N24   S    
N6    H35   S    
C72   C88   S    
Cr9   O37   S    
C90   C94   S    
Cr5   O49   S    
C63   C67   A    
Cr5   O17   S    
N15   H54   S    
N22   H68   S    
C25   C29   A    
C64   H8    S    
C48   C100  S    
Cr7   O27   S    
N12   H48   S    
Cr11  O11   S    
C46   O30   A    
C74   O38   A    
Cr3   O43   S    
Cr8   O52   S    
C45   O29   A    
C27   C31   A    
C12   C16   A    
C28   C32   A    
C41   N25   S    
N26   H75   S    
C15   H15   S    
C53   C57   A    
C10   C14   A    
C35   N23   S    
C77   O49   A    
Cr8   O8    S    
C62   C66   A    
N4    H31   S    
S4    O62   D    
S1    O55   S    
C39   C43   A    
C51   C55   A    
N19   H62   S    
N16   H55   S    
C81   O5    A    
C61   H5    S    
C89   C93   S    
C17   C21   A    
C56   C60   A    
C33   N21   S    
O55   H21   S    
N13   H50   S    
Cr9   O9    S    
Cr4   O48   S    
Cr9   O17   S    
C43   C44   A    
C94   S2    S    
N9    H41   S    
C52   C72   A    
C7    N15   S    
Cr11  O15   S    
Cr7   O7    S    
C47   O35   A    
C10   C30   A    
C93   C97   S    
C85   O41   A    
N3    H29   S    
C48   O36   A    
Cr1   O21   S    
C16   C20   A    
C6    C93   S    
C8    N16   S    
N18   H59   S    
C83   O11   A    
C3    O23   A    
C33   C34   A    
C88   O16   A    
C23   H19   S    
N8    H39   S    
C78   O50   A    
Cr4   O24   S    
C67   N7    S    
N21   H66   S    
C25   N17   S    
C22   C26   A    
C87   O15   A    
C58   C79   S    
Cr2   O18   S    
C43   N27   S    
C4    C17   S    
Cr10  O38   S    
Cr3   O23   S    
N3    H30   S    
C5    C97   S    
C26   C30   A    
N8    H40   S    
N25   H74   S    
C38   C81   S    
C75   O39   A    
Cr2   O46   S    
C71   C87   S    
C37   C82   S    
Cr11  O39   S    
Cr11  O35   S    
C73   O37   A    
N19   H61   S    
C70   C86   S    
C6    C98   S    
C31   C75   S    
N27   H77   S    
C44   N28   S    
N28   H79   S    
C19   C23   A    
N17   H58   S    
C54   C58   A    
C47   O31   A    
C45   C97   S    
N23   H70   S    
C21   C25   A    
Cr6   O26   S    
C1    C20   S    
S2    O57   D    
Cr4   O4    S    
C16   H16   S    
C4    O24   A    
C2    C19   S    
C78   O46   A    
C56   N4    S    
C69   C85   S    
C36   C39   A    
C11   H11   S    
C24   C28   A    
C80   O52   A    
N26   H76   S    
Cr10  O18   S    
N10   H44   S    
Cr11  O19   S    
C32   C76   S    
N20   H64   S    
N15   H53   S    
N7    H38   S    
C57   C61   A    
N20   H63   S    
Cr8   O28   S    
Cr9   O13   S    
Cr1   O1    S    
C68   C72   A    
Cr2   O42   S    
C87   O43   A    
C96   C100  S    
C59   C63   A    
C33   C38   A    
C14   H14   S    
C28   N20   S    
C13   C17   A    
C89   C98   S    
C60   C64   A    
C5    N13   S    
C60   C77   S    
Cr4   O20   S    
Cr5   O5    S    
C1    O25   A    
C42   N26   S    
N5    H33   S    
N4    H32   S    
Cr7   O19   S    
C80   O48   A    
N2    H28   S    
C26   N18   S    
C82   O6    A    
N28   H80   S    
C24   H20   S    
Cr10  O34   S    
Cr12  O12   S    
S1    O53   D    
C66   C70   A    
C75   O3    A    
C66   N6    S    
C48   O32   A    
C65   C69   A    
C54   N2    S    
C74   O2    A    
N12   H47   S    
C27   N19   S    
N14   H52   S    
C35   C40   A    
Cr3   O47   S    
Cr6   O30   S    
C61   C65   A    
C37   C41   A    
N5    H34   S    
C77   O45   A    
C50   C70   A    
C62   H6    S    
Cr6   O6    S    
C51   H3    S    
C68   N8    S    
C55   N3    S    
S3    O59   D    
C38   C42   A    
Cr12  O16   S    
C88   O44   A    
C40   C44   A    
C79   O47   A    
C2    O26   A    
C84   O8    A    
C91   C95   S    
S4    O63   D    
O58   H22   S    
C73   O1    A    
Cr7   O51   S    
C50   H2    S    
C94   C98   S    
Cr5   O29   S    
C49   C69   A    
Cr7   O31   S    
C89   N9    S    
C89   C90   S    
Cr10  O14   S    
N1    H26   S    
C45   O33   A    
C12   H12   S    
C20   C24   A    
Cr1   O45   S    
C22   H18   S    
C91   C92   S    
C52   C56   A    
C92   C99   S    
N10   H43   S    
N22   H67   S    
S3    O60   D    
N24   H72   S    
C93   S1    S    
