data_mof_unit_50811.cif
_audit_creation_date              2012-12-10T16:48:48-0500
_audit_creation_method            fapswitch 2.2
_symmetry_space_group_name_H-M    P1
_symmetry_Int_Tables_number       1
_space_group_crystal_system       triclinic
_cell_length_a                    17.278344
_cell_length_b                    8.687717
_cell_length_c                    7.439227
_cell_angle_alpha                 102.954498
_cell_angle_beta                  90.016474
_cell_angle_gamma                 92.986675
_cell_volume                      1086.71548439

loop_
_atom_site_label
_atom_site_type_symbol
_atom_type_description
_atom_site_fract_x
_atom_site_fract_y
_atom_site_fract_z
_atom_type_partial_charge
C1    C     C_R   0.497612 0.199740 0.453637 0.870081
C2    C     C_R   0.502359 0.800256 0.546366 0.908369
C3    C     C_2   0.496394 0.031860 0.427510 -0.328716
C4    C     C_2   0.503497 0.968110 0.572501 -0.336704
C5    C     C_R   0.351430 0.507400 0.527125 0.834293
C6    C     C_R   0.648786 0.502778 0.474256 0.836239
C7    C     C_R   0.267823 0.518718 0.546869 -0.111301
C8    C     C_R   0.732827 0.509821 0.457150 -0.109590
C9    C     C_R   0.224701 0.587513 0.427047 0.358665
C10   C     C_R   0.780069 0.606985 0.596522 0.363634
C11   C     C_R   0.144575 0.585093 0.439372 -0.179803
C12   C     C_R   0.860023 0.601339 0.584461 -0.172587
C13   C     C_R   0.106508 0.515092 0.569605 0.105195
C14   C     C_R   0.893786 0.500008 0.435163 0.105667
C15   C     C_R   0.149477 0.455833 0.695881 -0.130552
C16   C     C_R   0.847113 0.410909 0.291497 -0.135840
C17   C     C_R   0.229894 0.457069 0.684207 -0.197957
C18   C     C_R   0.766826 0.415321 0.302662 -0.214370
C19   C     C_2   0.021860 0.507887 0.578025 -0.194610
C20   C     C_2   0.977995 0.490599 0.425333 -0.194954
Cu1   Cu    Cu3+1 0.508700 0.517250 0.683000 1.013809
Cu2   Cu    Cu3+1 0.491300 0.482750 0.317000 1.007257
H1    H     H_    0.731271 0.341537 0.193413 0.179927
H2    H     H_    0.262267 0.405913 0.779018 0.178329
H3    H     H_    0.004244 0.466235 0.289826 0.152072
H4    H     H_    0.995180 0.514015 0.711552 0.154187
H5    H     H_    0.120687 0.404923 0.800007 0.146413
H6    H     H_    0.872732 0.334981 0.173383 0.151461
H7    H     H_    0.895729 0.677880 0.691154 0.167696
H8    H     H_    0.112164 0.639806 0.348061 0.167025
H9    H     H_    0.489663 0.960365 0.287743 0.190667
H10   H     H_    0.510214 0.039594 0.712273 0.180845
H11   H     H_    0.439119 0.379439 0.958307 0.229053
H12   H     H_    0.560855 0.620630 0.041690 0.245356
N1    N     N_2   0.478180 0.456750 0.041980 -0.205904
N2    N     N_2   0.521820 0.543250 0.958020 -0.201220
O1    O     O_R   0.505650 0.286040 0.618880 -0.594061
O2    O     O_R   0.494350 0.713960 0.381120 -0.576244
O3    O     O_R   0.490960 0.256910 0.309800 -0.586843
O4    O     O_R   0.509040 0.743090 0.690200 -0.570504
O5    O     O_R   0.394600 0.516230 0.672450 -0.593581
O6    O     O_R   0.605400 0.483770 0.327550 -0.600713
O7    O     O_R   0.379910 0.487100 0.363380 -0.535394
O8    O     O_R   0.620090 0.512900 0.636620 -0.534460
Cl1   Cl    Cl    0.267925 0.684343 0.264579 -0.617022
Cl2   Cl    Cl    0.742389 0.742746 0.784711 -0.623310

loop_
_geom_bond_atom_site_label_1
_geom_bond_atom_site_label_2
_ccdc_geom_bond_type
C10   Cl2   S    
C2    C4    S    
C9    Cl1   S    
C2    O4    A    
C12   H7    S    
Cu1   O8    S    
C11   C13   A    
C2    O2    A    
C15   H5    S    
C19   C20   D    
C1    O1    A    
C5    O7    A    
Cu1   N2    S    
Cu2   O6    S    
Cu1   Cu2   S    
C3    H9    S    
Cu2   N1    S    
C9    C11   A    
C4    H10   S    
Cu1   O4    S    
C10   C12   A    
Cu1   O5    S    
Cu2   O3    S    
C6    C8    S    
C8    C10   A    
H11   N1    S    
C12   C14   A    
Cu2   O7    S    
H12   N2    S    
C13   C15   A    
C14   C16   A    
C17   H2    S    
C20   H3    S    
C1    O3    A    
C18   H1    S    
Cu2   O2    S    
C14   C20   S    
Cu1   O1    S    
C7    C9    A    
C6    O6    A    
C5    C7    S    
C19   H4    S    
C5    O5    A    
C16   H6    S    
C13   C19   S    
C6    O8    A    
C1    C3    S    
C15   C17   A    
C16   C18   A    
C8    C18   A    
C3    C4    D    
C11   H8    S    
C7    C17   A    
N1    N2    D    
