data_mof_unit_64273.cif
_audit_creation_date              2012-12-10T17:06:04-0500
_audit_creation_method            fapswitch 2.2
_symmetry_space_group_name_H-M    P1
_symmetry_Int_Tables_number       1
_space_group_crystal_system       triclinic
_cell_length_a                    11.541477
_cell_length_b                    10.660619
_cell_length_c                    10.080167
_cell_angle_alpha                 88.564203
_cell_angle_beta                  90.19879
_cell_angle_gamma                 90.181061
_cell_volume                      1239.85385613

loop_
_atom_site_label
_atom_site_type_symbol
_atom_type_description
_atom_site_fract_x
_atom_site_fract_y
_atom_site_fract_z
_atom_type_partial_charge
C1    C     C_R   0.514224 0.263242 0.501406 0.924801
C2    C     C_1   0.161552 0.500021 0.499452 -0.165554
C3    C     C_1   0.059328 0.500134 0.499640 0.012084
C4    C     C_1   0.940608 0.500216 0.500138 0.013469
C5    C     C_1   0.838397 0.500223 0.500421 -0.147081
C6    C     C_2   0.579778 0.929889 0.418437 0.387359
C7    C     C_3   0.555553 0.111912 0.256649 -0.835725
C8    C     C_3   0.603359 0.090507 0.644198 -0.830778
C9    C     C_3   0.680806 0.618252 0.123078 -0.875332
C10   C     C_2   0.496378 0.871280 0.489567 0.225834
C11   C     C_2   0.571415 0.065423 0.398686 0.098435
C12   C     C_2   0.561130 0.136636 0.507895 0.042541
C13   C     C_2   0.592483 0.500126 0.926465 0.519966
C14   C     C_2   0.585545 0.537108 0.070224 0.208454
C15   C     C_R   0.282096 0.499890 0.499798 0.897729
C16   C     C_R   0.498501 0.737442 0.498068 0.863004
C17   C     C_R   0.717898 0.500173 0.500175 0.906220
H1    H     H_    0.426582 0.535602 0.893494 0.174069
H2    H     H_    0.756297 0.463585 0.941871 0.320603
H3    H     H_    0.711661 0.684648 0.044119 0.223233
H4    H     H_    0.649252 0.674998 0.205688 0.315119
H5    H     H_    0.754603 0.559204 0.157325 0.241002
H6    H     H_    0.380413 0.386749 0.172578 0.383194
H7    H     H_    0.724085 0.924076 0.320934 0.343394
H8    H     H_    0.351336 0.875749 0.586872 0.331744
H9    H     H_    0.571571 0.035795 0.185722 0.236006
H10   H     H_    0.465180 0.144048 0.239730 0.268644
H11   H     H_    0.618217 0.188512 0.233232 0.253941
H12   H     H_    0.663491 0.160989 0.685990 0.241076
H13   H     H_    0.528650 0.078272 0.712457 0.278322
H14   H     H_    0.652434 0.001296 0.642046 0.231189
N1    N     N_2   0.501210 0.501330 0.852150 -0.178649
N2    N     N_2   0.501250 0.501360 0.147810 0.043099
O1    O     O_R   0.499980 0.319060 0.613040 -0.591120
O2    O     O_3   0.404574 0.936671 0.542474 -0.798392
O3    O     O_3   0.697454 0.470710 0.870391 -0.739527
O4    O     O_3   0.428825 0.415961 0.097141 -0.736114
O5    O     O_R   0.500020 0.319100 0.386900 -0.631859
O6    O     O_R   0.334430 0.499990 0.613070 -0.610431
O7    O     O_R   0.334470 0.500030 0.386930 -0.618823
O8    O     O_R   0.499980 0.680900 0.613100 -0.630960
O9    O     O_R   0.500020 0.680940 0.386960 -0.597377
O10   O     O_R   0.665530 0.499970 0.613070 -0.542203
O11   O     O_R   0.665570 0.500010 0.386930 -0.624037
O12   O     O_3   0.670196 0.863345 0.364453 -0.816550
Zn1   Zn    Zn3+2 0.499980 0.499970 0.650990 1.010686
Zn2   Zn    Zn3+2 0.500020 0.500030 0.349010 0.975295

loop_
_geom_bond_atom_site_label_1
_geom_bond_atom_site_label_2
_ccdc_geom_bond_type
C6    C10   D    
O7    Zn2   S    
O8    Zn1   S    
C17   O10   A    
C10   O2    S    
O1    Zn1   S    
C6    O12   S    
C13   N1    D    
O11   Zn2   S    
C8    C12   S    
C9    H4    S    
C14   N2    D    
C2    C3    T    
C17   O11   A    
C8    H13   S    
H1    N1    S    
C10   C16   S    
C13   C14   S    
C7    C11   S    
C2    C15   S    
C1    C12   S    
C15   O6    A    
O5    Zn2   S    
C7    H9    S    
C1    O5    A    
H8    O2    S    
O6    Zn1   S    
C8    H12   S    
C1    O1    A    
O9    Zn2   S    
N2    Zn2   S    
O10   Zn1   S    
C15   O7    A    
C5    C17   S    
H7    O12   S    
C3    C4    S    
C16   O9    A    
C7    H10   S    
C13   O3    S    
C9    H5    S    
C6    C11   S    
C9    C14   S    
C9    H3    S    
H2    O3    S    
H6    O4    S    
C8    H14   S    
N1    Zn1   S    
C16   O8    A    
N2    O4    S    
C7    H11   S    
C11   C12   D    
C4    C5    T    
