data_mof_unit_67807.cif
_audit_creation_date              2012-12-10T16:53:56-0500
_audit_creation_method            fapswitch 2.2
_symmetry_space_group_name_H-M    P1
_symmetry_Int_Tables_number       1
_space_group_crystal_system       triclinic
_cell_length_a                    8.080785
_cell_length_b                    8.868781
_cell_length_c                    11.000766
_cell_angle_alpha                 96.39323
_cell_angle_beta                  84.190188
_cell_angle_gamma                 91.710278
_cell_volume                      779.323786186

loop_
_atom_site_label
_atom_site_type_symbol
_atom_type_description
_atom_site_fract_x
_atom_site_fract_y
_atom_site_fract_z
_atom_type_partial_charge
C1    C     C_R   0.542378 0.792840 0.498405 0.905947
C2    C     C_3   0.509687 0.499752 0.121788 -0.198689
C3    C     C_3   0.447656 0.333743 0.060076 0.241779
C4    C     C_3   0.702090 0.534213 0.062201 -0.108674
C5    C     C_2   0.561497 0.951123 0.481402 -0.233916
C6    C     C_2   0.437746 0.050333 0.523540 0.005349
C7    C     C_R   0.500854 0.509225 0.742061 0.880885
C8    C     C_R   0.457601 0.207877 0.504437 0.933537
C9    C     C_R   0.502086 0.496738 0.258724 0.840368
C10   C     C_3   0.397550 0.651509 0.955734 -0.002097
C11   C     C_3   0.387692 0.637214 0.100948 -0.182552
C12   C     C_3   0.427380 0.346228 0.916287 0.126904
C13   C     C_3   0.699992 0.523943 0.913244 0.096255
C14   C     C_3   0.504532 0.508771 0.880016 -0.123668
N1    N     N_2   0.950330 0.457950 0.465890 -0.021522
N2    N     N_2   0.049670 0.542050 0.534110 -0.031220
O1    O     O_R   0.389250 0.738570 0.508370 -0.602399
O2    O     O_R   0.678390 0.711620 0.486510 -0.618142
O3    O     O_R   0.355430 0.513500 0.696140 -0.669047
O4    O     O_R   0.644580 0.486550 0.674270 -0.604028
O5    O     O_R   0.321610 0.288380 0.513490 -0.650460
O6    O     O_R   0.610750 0.261430 0.491630 -0.634401
O7    O     O_R   0.355420 0.513450 0.325730 -0.604566
O8    O     O_R   0.644570 0.486500 0.303860 -0.603663
Zn1   Zn    Zn3+2 0.306940 0.517990 0.514600 0.956407
Zn2   Zn    Zn3+2 0.693060 0.482010 0.485400 0.991410
C15   C     C_2   0.222800 0.668739 0.915948 0.298014
H1    H     H_    0.166603 0.590944 0.850134 0.107769
O9    O     O_2   0.139009 0.776865 0.962909 -0.578036
C16   C     C_2   0.837059 0.432445 0.106109 0.415829
H2    H     H_    0.891231 0.465539 0.191348 0.177756
O10   O     O_2   0.892443 0.313888 0.053911 -0.649602
C17   C     C_2   0.508058 0.218294 0.826364 0.378464
H3    H     H_    0.585727 0.238922 0.744115 0.100669
O11   O     O_2   0.474611 0.086534 0.837665 -0.635396
C18   C     C_3   0.570041 0.205242 0.076800 -0.630780
H4    H     H_    0.510212 0.092245 0.075948 0.255288
H5    H     H_    0.667405 0.180784 0.002493 0.265711
H6    H     H_    0.621381 0.224500 0.166723 0.266835
C19   C     C_2   0.713761 0.989540 0.402253 0.470473
H7    H     H_    0.835301 0.960304 0.425394 0.095521
O12   O     O_2   0.703082 0.045095 0.306889 -0.581521
C20   C     C_3   0.280701 0.010022 0.602152 -0.796241
H8    H     H_    0.222289 0.110755 0.656378 0.235112
H9    H     H_    0.188748 0.960252 0.540652 0.243509
H10   H     H_    0.306666 0.933617 0.670930 0.271090
C21   C     C_3   0.005777 0.308007 0.422246 -0.495130
H11   H     H_    0.919822 0.254969 0.357163 0.221203
H12   H     H_    0.128426 0.314183 0.370855 0.221534
H13   H     H_    0.006361 0.238512 0.500163 0.179100
C22   C     C_3   0.006578 0.697300 0.563147 -0.455211
H14   H     H_    0.086864 0.749814 0.632459 0.177337
H15   H     H_    0.021515 0.756494 0.479059 0.225030
H16   H     H_    0.881300 0.705036 0.604982 0.266525
C23   C     C_3   0.469126 0.808176 0.924614 -0.564877
H17   H     H_    0.387507 0.902110 0.964796 0.303412
H18   H     H_    0.584696 0.844407 0.963176 0.204499
H19   H     H_    0.474996 0.813903 0.823896 0.267550
C24   C     C_2   0.431678 0.786997 0.178425 0.476098
H20   H     H_    0.516006 0.788918 0.247977 0.108355
O13   O     O_2   0.351536 0.901744 0.178923 -0.558970
C25   C     C_2   0.204485 0.613575 0.153269 0.632481
H21   H     H_    0.120003 0.551559 0.099108 -0.007132
O14   O     O_2   0.143799 0.675607 0.252158 -0.508839
C26   C     C_3   0.243020 0.318387 0.890406 -0.870660
H22   H     H_    0.163072 0.391232 0.953553 0.233938
H23   H     H_    0.217991 0.329897 0.795409 0.238152
H24   H     H_    0.198382 0.201134 0.903577 0.301005
C27   C     C_3   0.287364 0.270203 0.133563 -0.763084
H25   H     H_    0.316748 0.243509 0.225053 0.234371
H26   H     H_    0.177664 0.340179 0.149419 0.218766
H27   H     H_    0.244633 0.159822 0.088234 0.295423
C28   C     C_3   0.822252 0.397974 0.844742 -0.803540
H28   H     H_    0.796064 0.280300 0.860544 0.256972
H29   H     H_    0.854946 0.394990 0.744850 0.242224
H30   H     H_    0.946521 0.424680 0.872149 0.216307
C29   C     C_2   0.791924 0.660438 0.861936 0.323894
H31   H     H_    0.910688 0.688981 0.888148 0.145137
O15   O     O_2   0.742664 0.734505 0.787195 -0.619497
C30   C     C_2   0.764242 0.693624 0.115640 0.248337
H32   H     H_    0.770672 0.792269 0.066930 0.131363
O16   O     O_2   0.806631 0.717743 0.219664 -0.522331

loop_
_geom_bond_atom_site_label_1
_geom_bond_atom_site_label_2
_ccdc_geom_bond_type
C10   C15   S    
C23   H17   S    
C15   O9    D    
C28   H28   S    
O2    Zn2   S    
N2    C22   S    
N1    C21   S    
C11   C25   S    
C21   H12   S    
C29   H31   S    
C1    O2    A    
C1    C5    S    
C18   H4    S    
C3    C27   S    
O8    Zn2   S    
C4    C30   S    
C5    C6    D    
N1    N2    D    
C4    C13   S    
C27   H26   S    
C25   O14   D    
C3    C12   S    
C7    C14   S    
C26   H23   S    
C8    O6    A    
C19   O12   D    
C24   H20   S    
C13   C14   S    
C28   H29   S    
C11   C24   S    
C2    C11   S    
C17   H3    S    
C21   H13   S    
C29   O15   D    
C13   C29   S    
C24   O13   D    
C22   H14   S    
C30   O16   D    
C10   C14   S    
C9    O7    A    
N1    Zn2   S    
C6    C8    S    
C22   H15   S    
C27   H27   S    
C2    C4    S    
C20   H8    S    
C25   H21   S    
C21   H11   S    
C26   H24   S    
C8    O5    A    
C10   C23   S    
C20   H9    S    
C19   H7    S    
C13   C28   S    
C7    O4    A    
C7    O3    A    
C6    C20   S    
C23   H18   S    
C28   H30   S    
C5    C19   S    
N2    Zn1   S    
O5    Zn1   S    
C18   H6    S    
C12   C14   S    
C30   H32   S    
C9    O8    A    
C12   C26   S    
C1    O1    A    
C22   H16   S    
O1    Zn1   S    
C18   H5    S    
C2    C3    S    
C16   O10   D    
C16   H2    S    
O4    Zn2   S    
C3    C18   S    
C17   O11   D    
O7    Zn1   S    
C27   H25   S    
O3    Zn1   S    
C20   H10   S    
C10   C11   S    
C26   H22   S    
O6    Zn2   S    
C23   H19   S    
C15   H1    S    
C12   C17   S    
C2    C9    S    
C4    C16   S    
