data_mof_unit_12047.cif
_audit_creation_date              2012-12-10T17:50:37-0500
_audit_creation_method            fapswitch 2.2
_symmetry_space_group_name_H-M    P1
_symmetry_Int_Tables_number       1
_space_group_crystal_system       triclinic
_cell_length_a                    15.706786
_cell_length_b                    10.683641
_cell_length_c                    9.917036
_cell_angle_alpha                 89.188921
_cell_angle_beta                  89.621634
_cell_angle_gamma                 93.176354
_cell_volume                      1661.36624459

loop_
_atom_site_label
_atom_site_type_symbol
_atom_type_description
_atom_site_fract_x
_atom_site_fract_y
_atom_site_fract_z
_atom_type_partial_charge
C1    C     C_R   0.513116 0.262622 0.501783 0.890336
C2    C     C_3   0.082801 0.501126 0.499172 0.215757
C3    C     C_3   0.975402 0.611325 0.541510 -0.174846
C4    C     C_3   0.917517 0.499483 0.497562 0.212295
C5    C     C_3   0.032021 0.592568 0.416026 -0.166840
C6    C     C_3   0.972365 0.480675 0.372054 -0.160634
C7    C     C_1   0.173750 0.502351 0.500013 -0.077784
C8    C     C_1   0.826514 0.499337 0.497718 -0.083962
C9    C     C_R   0.524680 0.114376 0.761448 -0.072815
C10   C     C_R   0.486556 0.054576 0.874081 -0.141526
C11   C     C_R   0.439780 0.941485 0.859368 -0.168576
C12   C     C_R   0.338094 0.502059 0.500199 0.909131
C13   C     C_R   0.437832 0.883063 0.734583 -0.154843
C14   C     C_R   0.482718 0.938272 0.622105 0.075923
C15   C     C_R   0.514934 0.062232 0.631268 0.076170
C16   C     C_R   0.530635 0.130507 0.508657 -0.202146
C17   C     C_R   0.545381 0.066548 0.388390 -0.009702
C18   C     C_R   0.530186 0.938537 0.386409 -0.257054
C19   C     C_R   0.496969 0.874586 0.500691 -0.136607
C20   C     C_R   0.375684 0.359346 0.149131 -0.207720
C21   C     C_R   0.297524 0.328740 0.094222 -0.378487
C22   C     C_R   0.285840 0.343232 0.955794 0.365113
C23   C     C_R   0.495653 0.740089 0.499653 0.868800
C24   C     C_R   0.359866 0.367706 0.872000 0.423680
C25   C     C_R   0.433737 0.433113 0.930994 0.008698
C26   C     C_R   0.437358 0.430918 0.075548 0.122274
C27   C     C_R   0.560833 0.565249 0.069605 -0.099310
C28   C     C_R   0.561369 0.564150 0.926671 -0.108685
C29   C     C_R   0.662064 0.500480 0.499582 0.887305
C30   C     C_3   0.968302 0.407972 0.580643 -0.169803
C31   C     C_3   0.024996 0.389209 0.455199 -0.169368
C32   C     C_1   0.249129 0.502850 0.500391 -0.195248
C33   C     C_1   0.751113 0.499767 0.498497 -0.180915
C34   C     C_3   0.027959 0.519861 0.624631 -0.156320
H1    H     H_    0.047643 0.298506 0.420112 0.124376
H2    H     H_    0.406810 0.897408 0.945294 0.141939
H3    H     H_    0.399926 0.795852 0.726975 0.158144
H4    H     H_    0.544846 0.888764 0.295229 0.170643
H5    H     H_    0.610426 0.619090 0.121840 0.138897
H6    H     H_    0.383254 0.333681 0.252146 0.231296
H7    H     H_    0.246466 0.295945 0.161711 0.160481
H8    H     H_    0.611409 0.616934 0.871654 0.146388
H9    H     H_    0.939684 0.332367 0.647295 0.135932
H10   H     H_    0.947489 0.464601 0.268845 0.134268
H11   H     H_    0.060296 0.668028 0.348821 0.133165
H12   H     H_    0.952955 0.702093 0.576734 0.133032
H13   H     H_    0.053041 0.536176 0.727672 0.151121
H14   H     H_    0.562202 0.200638 0.777936 0.156840
H15   H     H_    0.491429 0.097639 0.972002 0.150320
N1    N     N_R   0.499210 0.498800 0.142780 -0.098737
N2    N     N_R   0.499180 0.498720 0.857170 -0.101989
O1    O     O_R   0.500000 0.316780 0.614690 -0.556363
O2    O     O_R   0.499990 0.316750 0.385360 -0.638000
O3    O     O_R   0.376780 0.500000 0.614650 -0.566085
O4    O     O_R   0.376770 0.499980 0.385310 -0.635146
O5    O     O_R   0.500010 0.683250 0.614640 -0.626993
O6    O     O_R   0.500000 0.683220 0.385310 -0.619654
O7    O     O_R   0.623230 0.500020 0.614690 -0.627333
O8    O     O_R   0.623220 0.500000 0.385350 -0.612925
Zn1   Zn    Zn3+2 0.500010 0.500020 0.653130 0.976056
Zn2   Zn    Zn3+2 0.499990 0.499980 0.346870 0.946740
O9    O     O_3   0.204521 0.345530 0.900233 -0.634865
C35   C     C_3   0.145323 0.256599 0.960386 0.081678
H16   H     H_    0.119984 0.293819 0.055874 0.159280
H17   H     H_    0.174184 0.165110 0.979973 0.128420
C36   C     C_3   0.070593 0.233572 0.865578 -0.870126
H18   H     H_    0.093391 0.200344 0.766764 0.246391
H19   H     H_    0.024650 0.161450 0.909982 0.212234
H20   H     H_    0.037540 0.321698 0.849985 0.257895
O10   O     O_3   0.368183 0.308335 0.747873 -0.565403
C37   C     C_3   0.294231 0.238340 0.703237 0.169224
H21   H     H_    0.242491 0.302005 0.681529 0.198879
H22   H     H_    0.273773 0.163998 0.778149 0.142727
C38   C     C_3   0.310237 0.173453 0.570783 -0.891239
H23   H     H_    0.352767 0.096015 0.586551 0.261063
H24   H     H_    0.248898 0.132483 0.531629 0.200209
H25   H     H_    0.337692 0.240804 0.494248 0.250905
C39   C     C_1   0.579432 0.128748 0.267483 0.186926
N3    N     N_1   0.606865 0.178618 0.171004 -0.222906

loop_
_geom_bond_atom_site_label_1
_geom_bond_atom_site_label_2
_ccdc_geom_bond_type
C36   H19   S    
C35   H17   S    
C2    C7    S    
C4    C8    S    
C24   O10   S    
C23   O5    A    
O3    Zn1   S    
C38   H24   S    
C11   H2    S    
C26   N1    A    
C5    C6    S    
C20   H6    S    
C28   N2    A    
C36   H20   S    
O7    Zn1   S    
C15   C16   A    
C29   C33   S    
C18   C19   A    
C1    O2    A    
O1    Zn1   S    
O2    Zn2   S    
C29   O8    A    
C27   H5    S    
C16   C17   A    
C38   H25   S    
O10   C37   S    
C9    C10   A    
C13   H3    S    
C27   N1    A    
C2    C34   S    
C6    C31   S    
C35   C36   S    
C6    H10   S    
C13   C14   A    
C12   C32   S    
O8    Zn2   S    
C38   H23   S    
C30   C34   S    
C24   C25   A    
C4    C6    S    
C37   H22   S    
C39   N3    T    
C3    C34   S    
C25   C26   A    
C5    H11   S    
O5    Zn1   S    
C2    C31   S    
C19   C23   S    
C25   N2    A    
O9    C35   S    
C22   O9    S    
C17   C18   A    
C1    C16   S    
C29   O7    A    
C21   H7    S    
C22   C24   A    
C30   H9    S    
C2    C5    S    
C3    C4    S    
C23   O6    A    
C7    C32   T    
C14   C19   A    
C3    C5    S    
C37   C38   S    
O6    Zn2   S    
N2    Zn1   S    
C3    H12   S    
C9    C15   A    
C37   H21   S    
C11   C13   A    
C30   C31   S    
C20   C26   A    
O4    Zn2   S    
C28   H8    S    
C17   C39   S    
C36   H18   S    
C31   H1    S    
C8    C33   T    
C18   H4    S    
C1    O1    A    
C4    C30   S    
C12   O4    A    
C10   C11   A    
C35   H16   S    
C20   C21   A    
C9    H14   S    
C27   C28   A    
N1    Zn2   S    
C14   C15   A    
C34   H13   S    
C21   C22   A    
C10   H15   S    
C12   O3    A    
