data_mof_unit_37074.cif
_audit_creation_date              2012-12-10T19:50:55-0500
_audit_creation_method            fapswitch 2.2
_symmetry_space_group_name_H-M    P1
_symmetry_Int_Tables_number       1
_space_group_crystal_system       triclinic
_cell_length_a                    23.485239
_cell_length_b                    10.815917
_cell_length_c                    22.184114
_cell_angle_alpha                 90.304075
_cell_angle_beta                  89.904412
_cell_angle_gamma                 90.550455
_cell_volume                      5634.73753386

loop_
_atom_site_label
_atom_site_type_symbol
_atom_type_description
_atom_site_fract_x
_atom_site_fract_y
_atom_site_fract_z
_atom_type_partial_charge
C1    C     C_R   0.497933 0.261945 0.499864 0.799033
C2    C     C_R   0.701952 0.540237 0.449105 -0.324176
C3    C     C_R   0.239086 0.446057 0.549101 0.493944
C4    C     C_R   0.761672 0.545163 0.449743 0.505016
C5    C     C_R   0.209307 0.500782 0.501308 0.255243
C6    C     C_R   0.790913 0.502642 0.500574 0.286255
C7    C     C_R   0.332695 0.233496 0.407232 -0.109089
C8    C     C_R   0.669597 0.771839 0.589471 -0.116438
C9    C     C_R   0.375797 0.188393 0.444328 -0.133991
C10   C     C_R   0.625485 0.815561 0.553346 -0.137686
C11   C     C_R   0.419683 0.116356 0.419745 0.104818
C12   C     C_R   0.502015 0.738054 0.500126 0.799552
C13   C     C_R   0.580932 0.883787 0.579142 0.109935
C14   C     C_R   0.419639 0.090159 0.357596 -0.143192
C15   C     C_R   0.581183 0.907203 0.641530 -0.143461
C16   C     C_R   0.390811 0.500269 0.500071 0.828136
C17   C     C_R   0.609246 0.499400 0.499956 0.830135
C18   C     C_R   0.376671 0.136209 0.320634 -0.159060
C19   C     C_R   0.625050 0.862011 0.677566 -0.161136
C20   C     C_R   0.333230 0.207828 0.345446 -0.125155
C21   C     C_R   0.669242 0.794418 0.651538 -0.126219
C22   C     C_R   0.466488 0.931126 0.459873 -0.220332
C23   C     C_R   0.239181 0.555443 0.453563 -0.172453
C24   C     C_R   0.533268 0.068807 0.540125 -0.219104
C25   C     C_R   0.502822 0.871758 0.500041 -0.080923
C26   C     C_R   0.496969 0.128226 0.499931 -0.080441
C27   C     C_R   0.537233 0.940635 0.540247 0.007183
C28   C     C_R   0.462664 0.059362 0.459557 0.009227
C29   C     C_R   0.522974 0.403845 0.871620 0.553739
C30   C     C_R   0.477716 0.597748 0.128422 0.564876
C31   C     C_R   0.478033 0.600479 0.872055 0.561180
C32   C     C_R   0.523222 0.401759 0.127879 0.544462
C33   C     C_R   0.477523 0.603200 0.936252 -0.096611
C34   C     C_R   0.760792 0.461073 0.551140 -0.214920
C35   C     C_R   0.525378 0.401119 0.063736 -0.111679
C36   C     C_R   0.501320 0.502864 0.967884 -0.078782
C37   C     C_R   0.501646 0.501544 0.032131 -0.073528
C38   C     C_R   0.524229 0.402891 0.935305 -0.062189
C39   C     C_R   0.477641 0.600168 0.064711 -0.055026
C40   C     C_R   0.880521 0.609217 0.516305 0.555982
C41   C     C_R   0.119500 0.394434 0.486624 0.610628
C42   C     C_R   0.454141 0.702917 0.969583 0.455997
C43   C     C_R   0.550368 0.303586 0.030098 0.448675
C44   C     C_R   0.453488 0.698753 0.033115 -0.262101
C45   C     C_R   0.298508 0.554943 0.452934 -0.236663
C46   C     C_R   0.548099 0.304010 0.966910 -0.264824
C47   C     C_R   0.535255 0.581643 0.257060 -0.235565
C48   C     C_R   0.464585 0.419755 0.743177 -0.227376
C49   C     C_R   0.534730 0.579999 0.320408 0.054945
C50   C     C_R   0.464981 0.420930 0.679806 0.050641
C51   C     C_R   0.465265 0.420220 0.320158 0.051449
C52   C     C_R   0.535166 0.579243 0.679626 0.053376
C53   C     C_R   0.464799 0.418103 0.256800 -0.223771
C54   C     C_R   0.535762 0.581818 0.742963 -0.235062
C55   C     C_R   0.500070 0.499760 0.224430 0.360415
C56   C     C_R   0.701501 0.460207 0.551056 -0.227473
C57   C     C_R   0.500201 0.501168 0.775566 0.362643
C58   C     C_R   0.879754 0.395979 0.487772 0.598488
C59   C     C_R   0.120437 0.606509 0.516757 0.536285
C60   C     C_R   0.939346 0.392963 0.488881 -0.063403
C61   C     C_R   0.060819 0.608087 0.518477 -0.036423
C62   C     C_R   0.969979 0.500987 0.504450 -0.083108
C63   C     C_R   0.030117 0.499407 0.504358 -0.087584
C64   C     C_R   0.940563 0.610854 0.519133 -0.092320
C65   C     C_R   0.059518 0.389725 0.489504 -0.115358
C66   C     C_R   0.968615 0.283985 0.475285 -0.264938
C67   C     C_R   0.328481 0.500558 0.500393 -0.108792
C68   C     C_R   0.031602 0.715772 0.534293 -0.284475
C69   C     C_R   0.028238 0.279449 0.478358 0.471472
C70   C     C_R   0.971941 0.717724 0.536495 0.468868
C71   C     C_3   0.449212 0.915041 0.954846 0.080364
C72   C     C_3   0.401571 0.997403 0.978843 -0.350108
C73   C     C_3   0.423312 0.127571 0.993163 -0.875589
C74   C     C_3   0.632691 0.226177 0.069508 0.132120
C75   C     C_3   0.669627 0.170142 0.019562 -0.405787
C76   C     C_3   0.732754 0.178607 0.035396 -0.893577
C77   C     C_3   0.043279 0.080461 0.511793 0.097496
C78   C     C_R   0.671694 0.499414 0.499946 -0.098305
C79   C     C_3   0.080978 0.097967 0.567859 -0.412218
C80   C     C_3   0.141062 0.048886 0.558196 -0.659416
C81   C     C_3   0.953102 0.859849 0.611667 0.046287
C82   C     C_3   0.908903 0.795860 0.652093 -0.300531
C83   C     C_3   0.916424 0.833848 0.717948 -0.940060
C84   C     C_3   0.195534 0.470508 0.640761 0.036610
C85   C     C_3   0.238980 0.465289 0.692070 -0.359881
C86   C     C_3   0.221248 0.546991 0.745009 -0.878366
C87   C     C_3   0.782222 0.710185 0.387776 0.083673
C88   C     C_3   0.758344 0.723615 0.324068 -0.365241
C89   C     C_R   0.298558 0.445252 0.548071 -0.303266
C90   C     C_3   0.748030 0.858910 0.308697 -0.886552
Cu1   Cu    Cu3+1 0.500000 0.499970 0.559570 0.950392
Cu2   Cu    Cu3+1 0.500000 0.500030 0.440430 0.951599
H1    H     H_    0.945279 0.201055 0.462519 0.198542
H2    H     H_    0.565223 0.225545 0.942644 0.191157
H3    H     H_    0.563083 0.645654 0.233568 0.142912
H4    H     H_    0.436555 0.356465 0.766862 0.143126
H5    H     H_    0.562193 0.642908 0.345203 0.123066
H6    H     H_    0.437210 0.358403 0.655170 0.123674
H7    H     H_    0.437740 0.358239 0.344903 0.154914
H8    H     H_    0.562974 0.640427 0.654723 0.154278
H9    H     H_    0.436963 0.353982 0.233151 0.144862
H10   H     H_    0.563953 0.645485 0.766431 0.138672
H11   H     H_    0.216299 0.597680 0.416810 0.165754
H12   H     H_    0.055035 0.799472 0.545150 0.169604
H13   H     H_    0.783488 0.429697 0.590567 0.153360
H14   H     H_    0.320977 0.597683 0.415674 0.172975
H15   H     H_    0.678979 0.428219 0.590752 0.173582
H16   H     H_    0.321298 0.399905 0.584056 0.157027
H17   H     H_    0.679347 0.570016 0.409336 0.159019
H18   H     H_    0.299863 0.243002 0.316848 0.145245
H19   H     H_    0.703393 0.760235 0.679384 0.134302
H20   H     H_    0.298471 0.287147 0.426442 0.164251
H21   H     H_    0.704499 0.721925 0.569252 0.156195
H22   H     H_    0.374261 0.207243 0.492302 0.109368
H23   H     H_    0.452757 0.033796 0.337872 0.146713
H24   H     H_    0.626834 0.799042 0.505161 0.104283
H25   H     H_    0.466587 0.956591 0.912875 0.185323
H26   H     H_    0.485052 0.913623 0.987872 0.125147
H27   H     H_    0.367217 0.003064 0.944584 0.238322
H28   H     H_    0.383234 0.956198 0.020421 0.220893
H29   H     H_    0.456864 0.124219 0.028299 0.283753
H30   H     H_    0.387726 0.184774 0.010326 0.256339
H31   H     H_    0.440791 0.171532 0.951873 0.261973
H32   H     H_    0.643407 0.180615 0.112750 0.192893
H33   H     H_    0.643325 0.326408 0.075662 0.118707
H34   H     H_    0.547569 0.960820 0.662131 0.144847
H35   H     H_    0.657530 0.071450 0.012734 0.235643
H36   H     H_    0.662605 0.220288 0.976721 0.218699
H37   H     H_    0.745908 0.276729 0.041798 0.257257
H38   H     H_    0.758361 0.138255 0.998190 0.260786
H39   H     H_    0.741487 0.126438 0.077324 0.257904
H40   H     H_    0.050540 0.987387 0.492155 0.184328
H41   H     H_    0.997771 0.080091 0.525809 0.104179
H42   H     H_    0.083228 0.197217 0.580858 0.225851
H43   H     H_    0.061383 0.047001 0.606133 0.162240
H44   H     H_    0.139720 0.946999 0.552698 0.254372
H45   H     H_    0.376989 0.116130 0.272789 0.150984
H46   H     H_    0.167767 0.071960 0.598027 0.233281
H47   H     H_    0.161059 0.089871 0.517616 0.308456
H48   H     H_    0.947497 0.961416 0.615778 0.159184
H49   H     H_    0.996917 0.840671 0.628126 0.113363
H50   H     H_    0.865396 0.821190 0.637250 0.256197
H51   H     H_    0.913307 0.693908 0.648289 0.203674
H52   H     H_    0.959286 0.807309 0.734235 0.258432
H53   H     H_    0.883766 0.786340 0.745971 0.259546
H54   H     H_    0.911248 0.935323 0.723190 0.259040
H55   H     H_    0.153120 0.442501 0.658588 0.164501
H56   H     H_    0.624909 0.879871 0.725615 0.143953
H57   H     H_    0.191161 0.567746 0.624854 0.160652
H58   H     H_    0.242915 0.368336 0.707787 0.231468
H59   H     H_    0.281265 0.497257 0.675558 0.218499
H60   H     H_    0.217872 0.644763 0.730453 0.261306
H61   H     H_    0.253667 0.541603 0.781257 0.265045
H62   H     H_    0.179586 0.515408 0.763387 0.250904
H63   H     H_    0.823789 0.759895 0.390313 0.192459
H64   H     H_    0.753326 0.756918 0.420717 0.131327
H65   H     H_    0.788895 0.684095 0.291024 0.239120
H66   H     H_    0.717494 0.671542 0.320269 0.213429
H67   H     H_    0.439322 0.876782 0.430135 0.156036
H68   H     H_    0.716527 0.899466 0.340357 0.259571
H69   H     H_    0.731039 0.865455 0.262155 0.257177
H70   H     H_    0.788494 0.912692 0.311317 0.267384
H71   H     H_    0.560495 0.123071 0.569838 0.156639
H72   H     H_    0.433252 0.773089 0.057704 0.190601
N1    N     N_R   0.851873 0.502787 0.501331 -0.452973
N2    N     N_R   0.148291 0.500746 0.501288 -0.459934
N3    N     N_R   0.500345 0.501768 0.841135 -0.460423
N4    N     N_R   0.500251 0.499647 0.158859 -0.457696
N5    N     N_R   0.500010 0.500010 0.350920 -0.172133
N6    N     N_R   0.499990 0.499990 0.649080 -0.171987
O1    O     O_R   0.500000 0.319610 0.550310 -0.591800
O2    O     O_2   0.149092 0.295021 0.468193 -0.497842
O3    O     O_2   0.849734 0.293067 0.473212 -0.528564
O4    O     O_2   0.150522 0.709639 0.530600 -0.579966
O5    O     O_2   0.544824 0.307893 0.840443 -0.553334
O6    O     O_2   0.454943 0.692585 0.159660 -0.542758
O7    O     O_2   0.456225 0.695332 0.840683 -0.491882
O8    O     O_2   0.543935 0.305636 0.159138 -0.513351
O9    O     O_3   0.426186 0.797199 0.939888 -0.563950
O10   O     O_3   0.574209 0.202615 0.058166 -0.585230
O11   O     O_3   0.056120 0.169175 0.466718 -0.544702
O12   O     O_R   0.500000 0.680390 0.449690 -0.592733
O13   O     O_3   0.944480 0.827303 0.550339 -0.573949
O14   O     O_3   0.210106 0.385446 0.594671 -0.614911
O15   O     O_3   0.792189 0.583582 0.399669 -0.605148
O16   O     O_R   0.499990 0.319670 0.449690 -0.571656
O17   O     O_R   0.500010 0.680330 0.550310 -0.571660
O18   O     O_R   0.417880 0.499930 0.550320 -0.584433
O19   O     O_R   0.582120 0.500070 0.449680 -0.583348
O20   O     O_R   0.417880 0.499990 0.449700 -0.583969
O21   O     O_R   0.582120 0.500010 0.550300 -0.586319
O22   O     O_2   0.850707 0.712526 0.528106 -0.529327

loop_
_geom_bond_atom_site_label_1
_geom_bond_atom_site_label_2
_ccdc_geom_bond_type
C81   H48   S    
C74   H32   S    
C87   C88   S    
C63   C65   A    
C2    H17   S    
C34   C56   A    
C23   C45   A    
C14   C18   A    
C24   C27   A    
C82   H50   S    
C59   O4    S    
C81   C82   S    
C48   C57   A    
C87   O15   S    
C1    O16   A    
C17   O21   A    
C15   C19   A    
C77   H41   S    
C31   O7    S    
C33   C42   A    
C80   H46   S    
C36   C37   A    
C35   C37   A    
C86   H61   S    
C24   C26   A    
C83   H52   S    
C76   H39   S    
Cu2   O16   S    
C66   C69   A    
C22   H67   S    
C58   C60   A    
C14   H23   S    
C9    H22   S    
C67   C89   A    
C33   C36   A    
C56   C78   A    
C7    H20   S    
C89   H16   S    
C60   C62   A    
C75   H36   S    
C71   O9    S    
C61   C63   A    
C58   N1    A    
C85   H58   S    
C62   C64   A    
C83   H53   S    
C76   H38   S    
C12   O12   A    
C53   H9    S    
C73   H31   S    
C22   C25   A    
C5    C23   A    
C29   C38   A    
C45   C67   A    
C77   O11   S    
C31   C33   A    
C64   C70   A    
C35   C43   A    
C3    O14   S    
Cu2   N5    S    
C18   C20   A    
C71   H26   S    
C84   H57   S    
C81   H49   S    
C6    N1    S    
C60   C66   A    
C22   C28   A    
C88   H65   S    
C32   O8    S    
C42   C44   A    
C55   N4    S    
C29   O5    S    
C30   O6    S    
C21   H19   S    
C52   C54   A    
C53   C55   A    
C51   H7    S    
C41   O2    S    
C23   H11   S    
C43   O10   S    
C50   H6    S    
C59   C61   A    
C74   C75   S    
C71   H25   S    
C90   H69   S    
C32   C35   A    
C51   N5    A    
C84   C85   S    
C47   C49   A    
C16   O18   A    
C52   N6    A    
Cu1   Cu2   S    
C82   H51   S    
C41   C65   A    
C17   O19   A    
C85   C86   S    
C12   O17   A    
Cu1   O21   S    
C52   H8    S    
C6    C34   A    
C51   C53   A    
C77   H40   S    
C4    O15   S    
C18   H45   S    
C2    C4    A    
C75   C76   S    
C85   H59   S    
C56   H15   S    
C62   C63   A    
C2    C78   A    
C86   H60   S    
Cu2   O20   S    
C83   H54   S    
C76   H37   S    
C40   O22   S    
C13   C15   A    
C84   O14   S    
C42   O9    S    
C41   N2    A    
C72   H28   S    
C8    C21   A    
C77   C79   S    
C50   N6    A    
C16   C67   S    
C5    N2    S    
Cu1   O18   S    
C9    C11   A    
C40   N1    A    
C59   N2    A    
C16   O20   A    
C8    H21   S    
C66   H1    S    
C20   H18   S    
C4    C6    A    
C90   H70   S    
C7    C20   A    
C88   H66   S    
C32   N4    A    
C1    C26   S    
C87   H63   S    
C58   O3    S    
C81   O13   S    
C10   H24   S    
C45   H14   S    
C47   C55   A    
C84   H55   S    
C46   H2    S    
C7    C9    A    
C79   H42   S    
Cu1   O17   S    
C88   C90   S    
C48   H4    S    
Cu1   N6    S    
C19   C21   A    
C34   H13   S    
C26   C28   A    
C54   H10   S    
C8    C10   A    
C68   H12   S    
C31   N3    A    
C72   C73   S    
C3    C5    A    
C10   C13   A    
C40   C64   A    
C39   C44   A    
C57   N3    S    
C25   C27   A    
C80   H47   S    
C79   H43   S    
C73   H29   S    
C19   H56   S    
C80   H44   S    
Cu1   O1    S    
C12   C25   S    
C3    C89   A    
C29   N3    A    
C36   C38   A    
C86   H62   S    
C30   N4    A    
C71   C72   S    
C37   C39   A    
Cu2   O12   S    
C49   N5    A    
C61   C68   A    
C11   C28   S    
C65   C69   A    
C72   H27   S    
C48   C50   A    
C17   C78   S    
C11   C14   A    
C1    O1    A    
C30   C39   A    
C75   H35   S    
C90   H68   S    
C43   C46   A    
C74   H33   S    
C38   C46   A    
C49   H5    S    
C79   C80   S    
C24   H71   S    
C70   O13   S    
C74   O10   S    
Cu2   O19   S    
C73   H30   S    
C68   C70   A    
C47   H3    S    
C87   H64   S    
C13   C27   S    
C44   H72   S    
C82   C83   S    
C69   O11   S    
C54   C57   A    
C15   H34   S    
