data_mof_unit_16919.cif
_audit_creation_date              2012-10-26T18:45:08-0400
_audit_creation_method            fapswitch 2.2
_symmetry_space_group_name_H-M    P1
_symmetry_Int_Tables_number       1
_space_group_crystal_system       triclinic
_cell_length_a                    15.992078
_cell_length_b                    14.73191
_cell_length_c                    10.93279
_cell_angle_alpha                 90.109175
_cell_angle_beta                  91.566195
_cell_angle_gamma                 89.9602
_cell_volume                      2574.73068085

loop_
_atom_site_label
_atom_site_type_symbol
_atom_type_description
_atom_site_fract_x
_atom_site_fract_y
_atom_site_fract_z
_atom_type_partial_charge
C1    C     C_R   0.341063 0.500020 0.504960 0.504836
C2    C     C_1   0.177150 0.499867 0.502708 -0.085539
C3    C     C_1   0.252135 0.499996 0.504436 -0.033419
C4    C     C_1   0.747742 0.499724 0.494256 -0.034141
C5    C     C_R   0.571884 0.952169 0.485041 0.266483
C6    C     C_R   0.571093 0.048209 0.482976 0.279275
C7    C     C_R   0.502676 0.500460 0.259180 0.536401
C8    C     C_R   0.498091 0.902787 0.508319 -0.047455
C9    C     C_R   0.496991 0.097196 0.504440 -0.033732
C10   C     C_R   0.423337 0.951376 0.532762 -0.066879
C11   C     C_R   0.422898 0.048643 0.531392 -0.064059
C12   C     C_3   0.584362 0.447563 0.929065 0.532611
C13   C     C_1   0.499303 0.802615 0.502800 0.224533
C14   C     C_1   0.498904 0.197394 0.501576 0.246443
C15   C     C_R   0.658915 0.499969 0.495766 0.480264
C16   C     C_R   0.501402 0.500398 0.740780 0.551272
C17   C     C_3   0.523110 0.604921 0.072456 0.468761
C18   C     C_3   0.413910 0.468726 0.068537 0.479386
C19   C     C_3   0.507148 0.606364 0.927269 0.242117
C20   C     C_3   0.418267 0.453344 0.923462 0.202206
C21   C     C_3   0.576427 0.433781 0.074654 -0.017076
C22   C     C_3   0.504575 0.502138 0.120390 -0.043413
C23   C     C_R   0.954987 0.581059 0.477022 0.260845
C24   C     C_3   0.501975 0.502080 0.879056 -0.055896
C25   C     C_3   0.635829 0.658096 0.212548 -0.035625
C26   C     C_3   0.312735 0.350760 0.111501 -0.029855
C27   C     C_2   0.343825 0.901380 0.553531 0.226537
C28   C     C_2   0.345100 0.098688 0.562738 0.205688
C29   C     C_3   0.479607 0.760415 0.119004 -0.112492
C30   C     C_3   0.320449 0.542650 0.209308 -0.046829
C31   C     C_2   0.426249 0.658175 0.890809 0.201959
C32   C     C_2   0.339852 0.493175 0.854546 0.212977
C33   C     C_3   0.590669 0.740573 0.876821 -0.018843
C34   C     C_R   0.955625 0.417393 0.513737 0.267928
C35   C     C_3   0.370436 0.316123 0.815043 -0.020951
C36   C     C_2   0.658929 0.450777 0.148421 0.216515
C37   C     C_2   0.558470 0.334572 0.113018 0.290264
C38   C     C_3   0.690944 0.498740 0.790510 -0.025466
C39   C     C_3   0.665255 0.313019 0.886879 -0.070399
C40   C     C_2   0.089784 0.670167 0.474939 0.275759
C41   C     C_2   0.090992 0.328966 0.522754 0.266172
C42   C     C_3   0.892306 0.671157 0.333369 -0.073407
C43   C     C_3   0.897267 0.325119 0.653850 -0.075304
C44   C     C_3   0.688142 0.118703 0.557901 -0.092322
C45   C     C_R   0.912242 0.499170 0.494499 0.002829
C46   C     C_3   0.682644 0.867123 0.558016 -0.109867
C47   C     C_R   0.043824 0.416366 0.511695 0.010627
C48   C     C_R   0.043213 0.582580 0.484286 0.013894
C49   C     C_R   0.087127 0.499626 0.499751 -0.115254
C50   C     C_1   0.822623 0.499337 0.493921 0.018600
Cu1   Cu    Cu3+1 0.500000 0.589220 0.500040 1.029868
Cu2   Cu    Cu3+1 0.500000 0.410780 0.500040 1.014246
H1    H     H_    0.589741 0.697943 0.263371 0.162306
H2    H     H_    0.544321 0.780312 0.099359 0.116140
H3    H     H_    0.464451 0.793716 0.206770 0.141722
H4    H     H_    0.340073 0.607480 0.252867 0.186108
H5    H     H_    0.338778 0.485897 0.269792 0.147727
H6    H     H_    0.251139 0.543317 0.201895 0.118335
H7    H     H_    0.372853 0.658245 0.949279 0.182350
H8    H     H_    0.345692 0.526667 0.767166 0.119730
H9    H     H_    0.638830 0.754743 0.949130 0.146440
H10   H     H_    0.534251 0.782108 0.890664 0.123988
H11   H     H_    0.617078 0.764298 0.789814 0.111028
H12   H     H_    0.690901 0.702898 0.202516 0.116709
H13   H     H_    0.390784 0.244987 0.800774 0.155732
H14   H     H_    0.369796 0.349804 0.724615 0.150620
H15   H     H_    0.306040 0.313932 0.849929 0.118167
H16   H     H_    0.658914 0.443775 0.247096 0.083415
H17   H     H_    0.576537 0.311564 0.204382 0.122920
H18   H     H_    0.690694 0.567702 0.750176 0.167716
H19   H     H_    0.658606 0.452311 0.726011 0.141520
H20   H     H_    0.757149 0.476866 0.799674 0.106278
H21   H     H_    0.707319 0.341424 0.959162 0.164585
H22   H     H_    0.699574 0.309458 0.800170 0.081027
H23   H     H_    0.657392 0.600644 0.269523 0.130936
H24   H     H_    0.650651 0.242026 0.912107 0.158278
H25   H     H_    0.156923 0.670573 0.463527 0.118749
H26   H     H_    0.158106 0.328822 0.539852 0.126908
H27   H     H_    0.852072 0.615283 0.296620 0.119834
H28   H     H_    0.950785 0.675641 0.280761 0.142455
H29   H     H_    0.857446 0.735595 0.319346 0.154862
H30   H     H_    0.858884 0.380949 0.691664 0.081522
H31   H     H_    0.957289 0.318921 0.707161 0.144087
H32   H     H_    0.862063 0.260993 0.665450 0.134936
H33   H     H_    0.711092 0.057876 0.608464 0.123096
H34   H     H_    0.266882 0.399141 0.072149 0.182322
H35   H     H_    0.650780 0.162441 0.619027 0.093264
H36   H     H_    0.743701 0.158434 0.531512 0.170066
H37   H     H_    0.663790 0.794834 0.563770 0.132245
H38   H     H_    0.668992 0.902372 0.645668 0.075682
H39   H     H_    0.751454 0.868440 0.547799 0.173796
H40   H     H_    0.289303 0.330604 0.202081 0.125116
H41   H     H_    0.314335 0.288105 0.055601 0.158327
H42   H     H_    0.284195 0.931330 0.526443 0.120030
H43   H     H_    0.301204 0.069043 0.625108 0.113702
H44   H     H_    0.435498 0.789183 0.049503 0.127818
N1    N     N_1   0.499980 0.276710 0.500040 -0.170799
N2    N     N_1   0.499980 0.723290 0.500040 -0.167194
O1    O     O_R   0.380310 0.575320 0.500060 -0.478098
O2    O     O_3   0.394939 0.384830 0.128889 -0.514209
O3    O     O_2   0.343612 0.827001 0.602524 -0.440455
O4    O     O_2   0.328342 0.172697 0.518329 -0.501715
O5    O     O_3   0.466574 0.665740 0.132533 -0.572004
O6    O     O_3   0.352401 0.537645 0.090171 -0.577413
O7    O     O_2   0.419015 0.699954 0.794693 -0.445428
O8    O     O_2   0.269106 0.482972 0.891095 -0.509179
O9    O     O_3   0.577078 0.645844 0.866336 -0.489416
O10   O     O_3   0.426858 0.357636 0.900688 -0.476242
O11   O     O_2   0.726074 0.467886 0.103295 -0.459110
O12   O     O_R   0.380310 0.424680 0.500060 -0.495626
O13   O     O_2   0.524764 0.278231 0.046548 -0.409211
O14   O     O_3   0.656879 0.502312 0.908431 -0.472448
O15   O     O_3   0.589166 0.361465 0.867215 -0.497179
O16   O     O_2   0.054274 0.743326 0.481556 -0.437116
O17   O     O_2   0.056004 0.255714 0.511038 -0.437386
O18   O     O_3   0.909852 0.660499 0.459736 -0.517821
O19   O     O_3   0.911048 0.337716 0.528086 -0.505485
O20   O     O_3   0.642659 0.094057 0.450524 -0.523471
O21   O     O_3   0.644732 0.907924 0.453464 -0.544205
O22   O     O_R   0.499990 0.575340 0.317720 -0.486952
O23   O     O_R   0.499990 0.424660 0.317720 -0.502870
O24   O     O_R   0.619690 0.575360 0.500000 -0.528329
O25   O     O_R   0.619690 0.424640 0.500000 -0.510079
O26   O     O_R   0.500010 0.575340 0.682340 -0.429260
O27   O     O_R   0.500010 0.424660 0.682340 -0.475676
O28   O     O_3   0.609738 0.628500 0.093823 -0.519293

loop_
_geom_bond_atom_site_label_1
_geom_bond_atom_site_label_2
_ccdc_geom_bond_type
C10   C27   S    
C38   H18   S    
C42   H28   S    
C8    C13   S    
C23   C45   A    
C15   O24   A    
C37   H17   S    
C43   H31   S    
C33   O9    S    
C25   O28   S    
C19   C31   S    
C1    O1    A    
C6    C9    A    
C47   C49   A    
C46   H37   S    
C15   O25   A    
C5    O21   S    
C28   H43   S    
C11   C28   S    
C41   O17   D    
C5    C6    A    
Cu2   O25   S    
C17   O28   S    
C29   H2    S    
C35   H13   S    
C26   H40   S    
C30   H5    S    
Cu2   N1    S    
C29   O5    S    
C39   H22   S    
C31   H7    S    
C13   N2    T    
C35   O10   S    
C23   O18   S    
C40   O16   D    
C20   C24   S    
C33   H10   S    
C39   O15   S    
Cu2   O12   S    
C44   H35   S    
C16   O27   A    
C33   H11   S    
Cu1   N2    S    
C42   H27   S    
C16   C24   S    
C32   O8    D    
C21   C22   S    
Cu1   O26   S    
C31   O7    D    
C42   H29   S    
C18   O2    S    
C7    O23   A    
Cu1   O1    S    
C38   H20   S    
Cu1   Cu2   S    
C43   H32   S    
C41   H26   S    
C21   C36   S    
C46   H39   S    
C29   H3    S    
C35   H14   S    
C30   H4    S    
C12   C21   S    
C27   O3    D    
C4    C50   T    
C1    C3    S    
C25   H12   S    
C9    C14   S    
C2    C49   S    
C1    O12   A    
C5    C8    A    
Cu2   O23   S    
C44   O20   S    
C26   H34   S    
Cu1   O22   S    
C41   C47   S    
C34   C45   A    
C18   O6    S    
C39   H24   S    
C9    C11   A    
C43   O19   S    
C42   O18   S    
C48   C49   A    
C35   H15   S    
C32   H8    S    
C38   O14   S    
C44   H33   S    
C12   O14   S    
C14   N1    T    
C12   O15   S    
C20   C32   S    
C40   C48   S    
C38   H19   S    
C23   C48   A    
C18   C22   S    
C7    O22   A    
C8    C10   A    
C25   H1    S    
C29   H44   S    
Cu2   O27   S    
C36   H16   S    
C46   H38   S    
C7    C22   S    
C12   C24   S    
C17   C22   S    
C4    C15   S    
C2    C3    T    
C16   O26   A    
C45   C50   S    
C34   O19   S    
C30   H6    S    
C17   C19   S    
C46   O21   S    
C19   C24   S    
C18   C20   S    
C39   H21   S    
C17   O5    S    
C37   O13   D    
C26   H41   S    
C10   C11   A    
C28   O4    D    
C21   C37   S    
C33   H9    S    
C30   O6    S    
C36   O11   D    
Cu1   O24   S    
C40   H25   S    
C27   H42   S    
C34   C47   A    
C25   H23   S    
C44   H36   S    
C6    O20   S    
C43   H30   S    
C26   O2    S    
C20   O10   S    
C19   O9    S    
