data_mof_unit_47894.cif
_audit_creation_date              2012-12-10T18:14:40-0500
_audit_creation_method            fapswitch 2.2
_symmetry_space_group_name_H-M    P1
_symmetry_Int_Tables_number       1
_space_group_crystal_system       triclinic
_cell_length_a                    10.721038
_cell_length_b                    9.406164
_cell_length_c                    27.790552
_cell_angle_alpha                 89.95045
_cell_angle_beta                  90.063834
_cell_angle_gamma                 89.999471
_cell_volume                      2802.5032386

loop_
_atom_site_label
_atom_site_type_symbol
_atom_type_description
_atom_site_fract_x
_atom_site_fract_y
_atom_site_fract_z
_atom_type_partial_charge
C1    C     C_R   0.259639 0.500204 0.500076 0.766933
C2    C     C_R   0.510600 0.629769 0.278882 -0.107103
C3    C     C_R   0.499724 0.501902 0.253551 0.364586
C4    C     C_R   0.500364 0.507388 0.101862 -0.049204
C5    C     C_R   0.387050 0.498296 0.127336 -0.004704
C6    C     C_R   0.274579 0.492097 0.101999 -0.143215
C7    C     C_R   0.613199 0.515549 0.127609 -0.095875
C8    C     C_R   0.499861 0.500514 0.354452 -0.042003
C9    C     C_R   0.500144 0.499793 0.645564 -0.042487
C10   C     C_R   0.385897 0.518931 0.974489 0.046007
C11   C     C_R   0.614633 0.492013 0.974704 0.041121
C12   C     C_R   0.499885 0.500083 0.407437 0.805013
C13   C     C_R   0.500230 0.504877 0.949327 0.066633
C14   C     C_R   0.275625 0.542310 0.947638 -0.216302
C15   C     C_R   0.277193 0.545386 0.897637 -0.144546
C16   C     C_R   0.388382 0.523574 0.872511 -0.019278
C17   C     C_R   0.500051 0.502136 0.898240 -0.048622
C18   C     C_R   0.611444 0.477143 0.872825 -0.015335
C19   C     C_R   0.609421 0.475981 0.822315 0.535235
C20   C     C_R   0.390721 0.522754 0.822008 0.531677
C21   C     C_R   0.488678 0.627753 0.721289 -0.105459
C22   C     C_R   0.488812 0.628089 0.671114 -0.227856
C23   C     C_R   0.740122 0.500203 0.500064 0.766591
C24   C     C_R   0.511712 0.371376 0.671123 -0.227991
C25   C     C_R   0.512166 0.371468 0.721304 -0.103867
C26   C     C_R   0.500481 0.499556 0.746503 0.363560
C27   C     C_R   0.385512 0.508680 0.025434 0.066011
C28   C     C_R   0.500714 0.508428 0.050778 0.015898
C29   C     C_R   0.616051 0.510003 0.025555 -0.080213
C30   C     C_R   0.273551 0.497543 0.052047 -0.214294
C31   C     C_R   0.725336 0.530297 0.102629 -0.216666
C32   C     C_R   0.722740 0.456150 0.948293 -0.169846
C33   C     C_R   0.721510 0.450976 0.898308 -0.181877
C34   C     C_R   0.499934 0.499939 0.592585 0.802565
C35   C     C_R   0.727677 0.533233 0.052461 0.407396
C36   C     C_3   0.071243 0.655822 0.500653 -0.377096
C37   C     C_3   0.071990 0.422463 0.545293 -0.375971
C38   C     C_3   0.928520 0.655821 0.500680 -0.376751
C39   C     C_3   0.928021 0.422411 0.545281 -0.376207
C40   C     C_3   0.071730 0.425316 0.454453 -0.376066
C41   C     C_3   0.121713 0.500923 0.500122 0.157389
C42   C     C_3   0.878049 0.500923 0.500118 0.157367
C43   C     C_3   0.927783 0.425371 0.454440 -0.375771
C44   C     C_3   0.609764 0.083798 0.527181 -0.188006
C45   C     C_3   0.609729 0.916109 0.527197 -0.187962
C46   C     C_3   0.387317 0.083760 0.524786 -0.188130
C47   C     C_3   0.387268 0.916153 0.524743 -0.188315
C48   C     C_3   0.503704 0.083716 0.451553 -0.185856
C49   C     C_3   0.503810 0.916494 0.451554 -0.186509
C50   C     C_R   0.389027 0.495405 0.177844 0.530951
C51   C     C_R   0.610890 0.513253 0.178123 0.559844
C52   C     C_R   0.488888 0.373290 0.278539 -0.104994
C53   C     C_R   0.489247 0.372381 0.328734 -0.225884
C54   C     C_R   0.510396 0.629307 0.329045 -0.224986
Cu1   Cu    Cu3+1 0.499860 0.642410 0.500020 0.894856
Cu2   Cu    Cu3+1 0.499860 0.357590 0.500020 0.894939
H1    H     H_    0.518882 0.729627 0.347859 0.142741
H2    H     H_    0.480547 0.274167 0.259013 0.132905
H3    H     H_    0.812450 0.544053 0.121892 0.205487
H4    H     H_    0.808688 0.425193 0.965477 0.204987
H5    H     H_    0.520761 0.270961 0.652403 0.145527
H6    H     H_    0.807342 0.425141 0.879725 0.190008
H7    H     H_    0.521113 0.272035 0.740669 0.135839
H8    H     H_    0.105232 0.714968 0.468504 0.162755
H9    H     H_    0.106369 0.310797 0.545886 0.160573
H10   H     H_    0.105518 0.712852 0.533189 0.160418
H11   H     H_    0.106937 0.475427 0.578479 0.158834
H12   H     H_    0.894528 0.712726 0.533255 0.160290
H13   H     H_    0.893196 0.475278 0.578473 0.158747
H14   H     H_    0.518966 0.729438 0.259625 0.131937
H15   H     H_    0.894252 0.715087 0.468570 0.162858
H16   H     H_    0.893709 0.310720 0.545842 0.160357
H17   H     H_    0.106542 0.480284 0.421620 0.159430
H18   H     H_    0.106059 0.313689 0.453151 0.162230
H19   H     H_    0.892852 0.480440 0.421615 0.159338
H20   H     H_    0.893386 0.313773 0.453104 0.162584
H21   H     H_    0.611024 0.123437 0.564872 0.138277
H22   H     H_    0.610955 0.876321 0.564892 0.140142
H23   H     H_    0.697710 0.121095 0.510231 0.138810
H24   H     H_    0.697653 0.878939 0.510251 0.138148
H25   H     H_    0.380843 0.123442 0.562393 0.139880
H26   H     H_    0.380554 0.876094 0.562320 0.138490
H27   H     H_    0.421678 0.122208 0.430722 0.138749
H28   H     H_    0.421939 0.877934 0.430669 0.140633
H29   H     H_    0.588207 0.122713 0.432438 0.140552
H30   H     H_    0.588447 0.877718 0.432497 0.138430
H31   H     H_    0.301855 0.120972 0.505945 0.138987
H32   H     H_    0.301915 0.879287 0.505798 0.138520
H33   H     H_    0.186307 0.483206 0.120710 0.192629
H34   H     H_    0.479616 0.728593 0.652392 0.145666
H35   H     H_    0.479731 0.727088 0.740646 0.135513
H36   H     H_    0.190271 0.564026 0.878732 0.186663
H37   H     H_    0.186727 0.562260 0.964321 0.144834
H38   H     H_    0.183318 0.488463 0.035190 0.156246
H39   H     H_    0.480855 0.271612 0.347328 0.142642
N1    N     N_R   0.499909 0.502839 0.202030 -0.469587
N2    N     N_R   0.500237 0.499490 0.798073 -0.470332
N3    N     N_3   0.500250 0.143650 0.501060 -0.112241
N4    N     N_3   0.500250 0.856350 0.501060 -0.111931
O1    O     O_R   0.317570 0.620260 0.500030 -0.596170
O2    O     O_R   0.317570 0.379740 0.500030 -0.595874
O3    O     O_R   0.499900 0.620250 0.430280 -0.592704
O4    O     O_R   0.499900 0.379750 0.430280 -0.592595
O5    O     O_R   0.682190 0.620260 0.500010 -0.595925
O6    O     O_R   0.682190 0.379740 0.500010 -0.595536
O7    O     O_R   0.499860 0.620280 0.569750 -0.589772
O8    O     O_R   0.499860 0.379720 0.569750 -0.589541
O9    O     O_2   0.281141 0.486125 0.202629 -0.535356
O10   O     O_2   0.284365 0.543955 0.796982 -0.536979
O11   O     O_2   0.718559 0.521087 0.203197 -0.535521
O12   O     O_2   0.715760 0.452749 0.797594 -0.536831
O13   O     O_3   0.840103 0.565864 0.030870 -0.603650
C55   C     C_3   0.843789 0.713608 0.021950 0.065089
H40   H     H_    0.839254 0.774425 0.056301 0.153036
H41   H     H_    0.765533 0.747155 0.998066 0.154309
C56   C     C_3   0.965669 0.750199 0.996909 -0.782995
H42   H     H_    0.972376 0.691752 0.962292 0.243725
H43   H     H_    0.969528 0.866149 0.989523 0.210846
H44   H     H_    0.045848 0.720673 0.020201 0.245555

loop_
_geom_bond_atom_site_label_1
_geom_bond_atom_site_label_2
_ccdc_geom_bond_type
C10   C27   A    
C21   C26   A    
C24   H5    S    
C53   H39   S    
Cu2   N3    S    
Cu1   Cu2   S    
C19   N2    A    
C52   C53   A    
Cu1   O3    S    
C23   C42   S    
C34   O8    A    
C49   H28   S    
C28   C29   A    
Cu2   O2    S    
C38   C42   S    
C5    C6    A    
C36   H10   S    
C9    C22   A    
C15   C16   A    
C23   O6    A    
C47   N4    S    
C56   H42   S    
C18   C19   A    
C25   H7    S    
C47   H26   S    
C31   H3    S    
C15   H36   S    
C55   H40   S    
C44   N3    S    
C40   C43   S    
C20   N2    A    
C40   H18   S    
C33   H6    S    
C37   H9    S    
Cu1   O1    S    
C39   H16   S    
C3    N1    S    
C14   H37   S    
C16   C20   A    
C51   N1    A    
C55   C56   S    
C46   N3    S    
C21   C22   A    
C27   C30   A    
C50   O9    S    
C36   C41   S    
C38   H15   S    
C4    C7    A    
C1    O1    A    
O13   C55   S    
C4    C28   A    
C39   C42   S    
C39   H13   S    
C7    C31   A    
Cu1   O7    S    
C34   O7    A    
C24   C25   A    
C12   O4    A    
C2    C54   A    
C8    C54   A    
C16   C17   A    
C25   C26   A    
Cu1   O5    S    
Cu2   O8    S    
C12   O3    A    
C49   N4    S    
C46   H25   S    
C23   O5    A    
C8    C12   S    
C17   C18   A    
C22   H34   S    
C45   H22   S    
C52   H2    S    
C1    C41   S    
C48   C49   S    
C6    C30   A    
C38   H12   S    
C11   C32   A    
C51   O11   S    
C45   N4    S    
C9    C34   S    
C31   C35   A    
C5    C50   A    
C42   C43   S    
C32   H4    S    
C1    O2    A    
C44   C45   S    
C43   H19   S    
C46   H31   S    
C21   H35   S    
C43   H20   S    
C46   C47   S    
C40   C41   S    
C14   C15   A    
C49   H30   S    
C44   H23   S    
Cu2   O4    S    
C4    C5    A    
C10   C13   A    
C8    C53   A    
C3    C52   A    
C48   H27   S    
C9    C24   A    
C19   O12   S    
C6    H33   S    
C48   N3    S    
C29   C35   A    
C56   H44   S    
C13   C17   A    
C32   C33   A    
C36   C38   S    
C2    C3    A    
C7    C51   A    
C37   C39   S    
C36   H8    S    
C47   H32   S    
C11   C13   A    
C50   N1    A    
C44   H21   S    
C37   H11   S    
C56   H43   S    
C45   H24   S    
C37   C41   S    
C18   C33   A    
Cu2   O6    S    
C26   N2    S    
C20   O10   S    
C11   C29   A    
C30   H38   S    
Cu1   N4    S    
C27   C28   A    
C48   H29   S    
C40   H17   S    
C2    H14   S    
C35   O13   S    
C10   C14   A    
C55   H41   S    
C54   H1    S    
