data_mof_unit_35753.cif
_audit_creation_date              2012-12-10T19:47:18-0500
_audit_creation_method            fapswitch 2.2
_symmetry_space_group_name_H-M    P1
_symmetry_Int_Tables_number       1
_space_group_crystal_system       triclinic
_cell_length_a                    15.005501
_cell_length_b                    14.077318
_cell_length_c                    10.700918
_cell_angle_alpha                 90.348572
_cell_angle_beta                  89.494458
_cell_angle_gamma                 90.093228
_cell_volume                      2260.29943881

loop_
_atom_site_label
_atom_site_type_symbol
_atom_type_description
_atom_site_fract_x
_atom_site_fract_y
_atom_site_fract_z
_atom_type_partial_charge
C1    C     C_R   0.327573 0.499965 0.499206 0.830590
C2    C     C_R   0.672388 0.500070 0.499150 0.880673
C3    C     C_R   0.231887 0.499984 0.494589 -0.025309
C4    C     C_R   0.768079 0.500268 0.494034 -0.030989
C5    C     C_R   0.184524 0.418773 0.530182 -0.227598
C6    C     C_R   0.813031 0.421102 0.445364 -0.201063
C7    C     C_R   0.092674 0.418793 0.525244 -0.175621
C8    C     C_R   0.904963 0.421707 0.438955 -0.183866
C9    C     C_R   0.048169 0.499588 0.482963 0.118945
C10   C     C_R   0.951922 0.500893 0.482928 0.118924
C11   C     C_R   0.444009 0.104300 0.417873 0.002315
C12   C     C_R   0.554710 0.105091 0.583242 -0.002652
C13   C     C_R   0.445092 0.204351 0.421662 -0.044218
C14   C     C_R   0.553720 0.205187 0.579968 -0.053197
C15   C     C_R   0.499648 0.052977 0.500062 0.049922
C16   C     C_R   0.567212 0.895332 0.437740 -0.305880
C17   C     C_R   0.432161 0.895568 0.561416 -0.305800
C18   C     C_R   0.566224 0.795554 0.439192 0.025513
C19   C     C_R   0.433210 0.795830 0.559649 0.011182
C20   C     C_R   0.499705 0.946535 0.499773 0.157335
C21   C     C_R   0.498118 0.500228 0.258720 0.877314
C22   C     C_R   0.484938 0.500359 0.738802 0.897479
C23   C     C_R   0.553649 0.662924 0.103696 -0.134670
C24   C     C_R   0.460539 0.681296 0.882877 -0.115854
C25   C     C_R   0.550016 0.750981 0.044711 -0.149785
C26   C     C_R   0.499010 0.761256 0.937814 -0.153144
C27   C     C_R   0.471893 0.590256 0.935946 0.073295
C28   C     C_R   0.504193 0.584454 0.056743 0.069698
C29   C     C_R   0.481241 0.502358 0.126082 -0.199917
C30   C     C_R   0.459414 0.503405 0.870949 -0.222171
C31   C     C_R   0.428842 0.429455 0.070111 0.065188
C32   C     C_R   0.433852 0.420649 0.939072 0.068988
C33   C     C_R   0.095649 0.580176 0.445072 -0.189136
C34   C     C_R   0.906828 0.580165 0.531226 -0.180029
C35   C     C_R   0.187470 0.580639 0.451723 -0.198954
C36   C     C_R   0.814875 0.580125 0.535952 -0.201403
H1    H     H_    0.620235 0.932353 0.388886 0.131013
H2    H     H_    0.378871 0.932752 0.609850 0.133024
H3    H     H_    0.618438 0.756428 0.391425 0.113700
H4    H     H_    0.380235 0.756999 0.605626 0.112006
H5    H     H_    0.595010 0.657940 0.185438 0.144124
H6    H     H_    0.421416 0.691080 0.799790 0.139605
H7    H     H_    0.584594 0.811600 0.083982 0.133082
H8    H     H_    0.491774 0.830210 0.894997 0.143245
H9    H     H_    0.061703 0.642479 0.410562 0.130323
H10   H     H_    0.942702 0.641120 0.567363 0.129564
H11   H     H_    0.223628 0.643372 0.422037 0.155629
H12   H     H_    0.780517 0.641532 0.574236 0.152133
H13   H     H_    0.218274 0.355810 0.562427 0.157827
H14   H     H_    0.777176 0.359487 0.411119 0.151925
H15   H     H_    0.056419 0.356522 0.556293 0.130828
H16   H     H_    0.939393 0.360631 0.399916 0.129250
H17   H     H_    0.401783 0.244271 0.361670 0.131100
H18   H     H_    0.595288 0.245816 0.642933 0.137972
N1    N     N_R   0.500000 0.252470 0.500000 -0.105558
N2    N     N_R   0.500000 0.747550 0.500000 -0.086441
O1    O     O_R   0.369060 0.579480 0.500010 -0.631516
O2    O     O_R   0.630940 0.579480 0.499990 -0.629057
O3    O     O_R   0.369050 0.420520 0.500010 -0.646428
O4    O     O_R   0.630950 0.420520 0.499990 -0.617818
O5    O     O_R   0.500000 0.579490 0.316770 -0.619054
O6    O     O_R   0.500000 0.579490 0.683230 -0.618347
O7    O     O_R   0.499990 0.420540 0.316770 -0.626096
O8    O     O_R   0.500010 0.420540 0.683230 -0.625529
Zn1   Zn    Zn3+2 0.500000 0.606140 0.500000 0.936640
Zn2   Zn    Zn3+2 0.500000 0.393860 0.500000 0.922233
C37   C     C_3   0.367115 0.365524 0.148625 -0.386207
C38   C     C_3   0.271525 0.356915 0.098096 -0.377320
C39   C     C_3   0.202933 0.340701 0.202221 -0.891752
H19   H     H_    0.222304 0.279066 0.260360 0.257490
H20   H     H_    0.197526 0.405144 0.261883 0.280332
H21   H     H_    0.136617 0.326312 0.160882 0.251246
H22   H     H_    0.252792 0.422289 0.046850 0.233834
H23   H     H_    0.267405 0.294640 0.034631 0.233853
H24   H     H_    0.397100 0.293912 0.157355 0.173988
H25   H     H_    0.359074 0.395241 0.243853 0.237869
C40   C     C_3   0.417972 0.323332 0.878669 -0.375537
C41   C     C_3   0.336130 0.320486 0.793254 -0.334974
C42   C     C_3   0.315720 0.218919 0.751197 -0.905532
H26   H     H_    0.373728 0.188207 0.700194 0.272221
H27   H     H_    0.299845 0.173830 0.833295 0.253226
H28   H     H_    0.257435 0.218524 0.688108 0.243018
H29   H     H_    0.276597 0.350697 0.840518 0.200948
H30   H     H_    0.347732 0.364284 0.710101 0.254316
H31   H     H_    0.478482 0.299581 0.827379 0.209276
H32   H     H_    0.409977 0.267600 0.950506 0.189244
C43   C     C_3   0.384981 0.055492 0.323124 -0.423916
C44   C     C_3   0.435778 0.038893 0.199988 -0.325221
C45   C     C_3   0.376533 0.991279 0.102725 -0.899130
H33   H     H_    0.353731 0.920764 0.136466 0.271052
H34   H     H_    0.317696 0.036454 0.083231 0.258275
H35   H     H_    0.414635 0.980966 0.014348 0.245333
H36   H     H_    0.459681 0.107980 0.162466 0.212587
H37   H     H_    0.494603 0.992933 0.216478 0.225225
H38   H     H_    0.359323 0.987041 0.359733 0.215693
H39   H     H_    0.325478 0.100270 0.305137 0.190043
C46   C     C_3   0.612490 0.057096 0.679125 -0.419735
C47   C     C_3   0.561254 0.044781 0.802548 -0.328271
C48   C     C_3   0.619777 0.999224 0.901435 -0.918131
H40   H     H_    0.678941 0.044479 0.920053 0.263898
H41   H     H_    0.581320 0.991321 0.989814 0.246205
H42   H     H_    0.642225 0.927828 0.869705 0.267126
H43   H     H_    0.538235 0.115168 0.837693 0.216176
H44   H     H_    0.501760 0.999200 0.787246 0.220342
H45   H     H_    0.636333 0.987051 0.644588 0.215299
H46   H     H_    0.673140 0.100780 0.695666 0.192125

loop_
_geom_bond_atom_site_label_1
_geom_bond_atom_site_label_2
_ccdc_geom_bond_type
C19   N2    A    
C43   C44   S    
C4    C36   A    
C24   H6    S    
C24   C27   A    
C35   H11   S    
C25   H7    S    
C46   C47   S    
C26   H8    S    
C40   C41   S    
C31   C37   S    
C28   C29   A    
C24   C26   A    
C1    O3    A    
O3    Zn2   S    
C2    O4    A    
C38   H23   S    
N2    Zn1   S    
C17   C20   A    
C33   H9    S    
C39   H20   S    
C33   C35   A    
C32   C40   S    
C11   C15   A    
C41   H29   S    
C31   C32   A    
C11   C43   S    
C38   C39   S    
C43   H38   S    
C34   H10   S    
C45   H34   S    
C9    C10   S    
C8    H16   S    
C21   O5    A    
C18   N2    A    
C16   H1    S    
C46   H45   S    
C14   N1    A    
O7    Zn2   S    
O4    Zn2   S    
C27   C30   A    
C9    C33   A    
C5    H13   S    
C13   H17   S    
C15   C20   S    
C44   H37   S    
C37   C38   S    
C4    C6    A    
C42   H27   S    
C41   C42   S    
C6    C8    A    
C38   H22   S    
C21   C29   S    
C41   H30   S    
C1    C3    S    
O8    Zn2   S    
C39   H21   S    
C2    C4    S    
C18   H3    S    
C1    O1    A    
C22   O6    A    
O2    Zn1   S    
C48   H40   S    
C12   C15   A    
C3    C35   A    
C16   C20   A    
C43   H39   S    
C10   C34   A    
C23   C28   A    
C6    H14   S    
C45   H35   S    
C12   C46   S    
C46   H46   S    
C16   C18   A    
C14   H18   S    
C12   C14   A    
C40   H32   S    
C37   H24   S    
N1    Zn2   S    
C5    C7    A    
C7    C9    A    
C44   H36   S    
C22   C30   S    
O6    Zn1   S    
C48   H41   S    
O1    Zn1   S    
C3    C5    A    
C42   H28   S    
C2    O2    A    
C23   H5    S    
C25   C26   A    
C7    H15   S    
C29   C31   A    
C30   C32   A    
C11   C13   A    
C47   H44   S    
C17   C19   A    
C36   H12   S    
C34   C36   A    
C17   H2    S    
C23   C25   A    
C39   H19   S    
C21   O7    A    
C19   H4    S    
C40   H31   S    
C42   H26   S    
O5    Zn1   S    
C48   H42   S    
C44   C45   S    
C8    C10   A    
C47   C48   S    
C27   C28   A    
C37   H25   S    
C22   O8    A    
C45   H33   S    
C47   H43   S    
C13   N1    A    
