data_mof_unit_46525.cif
_audit_creation_date              2012-12-11T15:39:27-0500
_audit_creation_method            fapswitch 2.2
_symmetry_space_group_name_H-M    P1
_symmetry_Int_Tables_number       1
_space_group_crystal_system       triclinic
_cell_length_a                    14.289023
_cell_length_b                    14.787403
_cell_length_c                    33.2164
_cell_angle_alpha                 97.76259
_cell_angle_beta                  90.291342
_cell_angle_gamma                 118.792312
_cell_volume                      6074.5716475

loop_
_atom_site_label
_atom_site_type_symbol
_atom_type_description
_atom_site_fract_x
_atom_site_fract_y
_atom_site_fract_z
_atom_type_partial_charge
C1    C     C_R   0.617073 0.910108 0.436964 0.539950
C2    C     C_R   0.711863 0.436716 0.949407 0.531862
C3    C     C_R   0.593555 0.841796 0.775322 -0.125749
C4    C     C_R   0.602737 0.856640 0.734723 -0.127347
C5    C     C_R   0.645320 0.806095 0.708356 0.031751
C6    C     C_R   0.679460 0.741427 0.722650 -0.137184
C7    C     C_R   0.668199 0.724918 0.763004 -0.126393
C8    C     C_R   0.625090 0.774811 0.789647 0.038838
C9    C     C_R   0.564840 0.745212 0.636994 0.151099
C10   C     C_R   0.558984 0.765880 0.597359 0.151170
C11   C     C_R   0.724286 0.931223 0.614278 -0.142262
C12   C     C_3   0.482576 0.383541 0.106317 -0.284828
C13   C     C_R   0.709718 0.740542 0.950869 0.550509
C14   C     C_3   0.397807 0.274787 0.382344 -0.319393
C15   C     C_3   0.000399 0.463156 0.191229 -0.324658
C16   C     C_3   0.117648 0.634443 0.391292 -0.294027
C17   C     C_3   0.096567 0.046636 0.103836 -0.285305
C18   C     C_3   0.825015 0.302175 0.063751 -0.306513
C19   C     C_3   0.881563 0.111221 0.136065 -0.303895
C20   C     C_3   0.949389 0.973720 0.207016 -0.309447
C21   C     C_3   0.934385 0.937357 0.333939 -0.312312
C22   C     C_3   0.472633 0.699541 0.067710 -0.293841
C23   C     C_3   0.957657 0.337904 0.391869 -0.328788
C24   C     C_R   0.824064 0.409163 0.159874 0.097513
C25   C     C_3   0.913524 0.422173 0.813454 -0.312693
C26   C     C_3   0.407236 0.299049 0.618771 -0.254776
C27   C     C_3   0.591090 0.471914 0.709851 -0.306078
C28   C     C_3   0.214585 0.645112 0.924279 -0.290448
C29   C     C_3   0.050086 0.555900 0.625794 -0.316604
C30   C     C_3   0.769374 0.152965 0.279212 -0.300512
C31   C     C_3   0.394205 0.962792 0.813449 -0.305961
C32   C     C_3   0.890953 0.658672 0.788207 -0.308621
C33   C     C_3   0.127919 0.002652 0.561484 -0.295241
C34   C     C_3   0.654579 0.937375 0.964698 -0.304659
C35   C     C_R   0.812760 0.419793 0.118757 0.096891
C36   C     C_3   0.923457 0.981461 0.669942 -0.313136
C37   C     C_3   0.385815 0.654515 0.658938 -0.279048
C38   C     C_3   0.508584 0.635728 0.536663 -0.285245
C39   C     C_3   0.523046 0.349244 0.214814 -0.305399
C40   C     C_3   0.914171 0.660658 0.240026 -0.309982
C41   C     C_R   0.745141 0.317741 0.240633 -0.097007
C42   C     C_R   0.732721 0.297758 0.280713 0.150004
C43   C     C_R   0.745533 0.378761 0.312001 -0.002544
C44   C     C_R   0.775469 0.478481 0.303089 -0.156277
C45   C     C_R   0.788724 0.498633 0.262950 0.160948
C46   C     C_R   0.769925 0.416002 0.231327 0.071712
C47   C     C_R   0.758204 0.425120 0.188112 0.039021
C48   C     C_R   0.620762 0.344936 0.365711 -0.128007
C49   C     C_R   0.594464 0.205935 0.456525 0.549925
C50   C     C_R   0.579367 0.301647 0.400944 0.129332
C51   C     C_R   0.744129 0.295079 0.413878 -0.132257
C52   C     C_R   0.784856 0.337343 0.378450 0.149532
C53   C     C_R   0.719577 0.357895 0.353613 -0.004162
C54   C     C_R   0.640291 0.272115 0.424346 -0.009351
C55   C     C_R   0.242716 0.880639 0.393759 0.037864
C56   C     C_R   0.236922 0.967235 0.383025 -0.158943
C57   C     C_R   0.215787 0.971873 0.342608 -0.137673
C58   C     C_R   0.733780 0.908989 0.653119 0.114292
C59   C     C_R   0.198825 0.889730 0.312233 0.011059
C60   C     C_R   0.195364 0.799529 0.322553 -0.105195
C61   C     C_R   0.294903 0.892846 0.434456 0.545889
C62   C     C_R   0.215706 0.793318 0.363229 0.136687
C63   C     C_R   0.124179 0.774119 0.171763 -0.141422
C64   C     C_R   0.094947 0.746615 0.130387 -0.160877
C65   C     C_R   0.149900 0.927358 0.124569 0.118888
C66   C     C_R   0.179407 0.954492 0.166947 -0.114970
C67   C     C_R   0.162733 0.876740 0.190433 0.010837
C68   C     C_1   0.179941 0.896283 0.233974 -0.041855
C69   C     C_R   0.650091 0.818837 0.665363 0.000660
C70   C     C_1   0.189120 0.898174 0.270107 -0.041592
C71   C     C_R   0.103502 0.821375 0.106258 0.050269
C72   C     C_R   0.638566 0.876397 0.395714 -0.017777
C73   C     C_R   0.614247 0.904498 0.551411 0.540450
C74   C     C_R   0.553170 0.800840 0.368156 -0.145463
C75   C     C_R   0.567801 0.785561 0.326817 -0.144503
C76   C     C_R   0.667983 0.844575 0.312392 0.037969
C77   C     C_R   0.756613 0.914828 0.340126 0.151609
C78   C     C_R   0.740936 0.930277 0.381619 -0.092677
C79   C     C_R   0.775890 0.919053 0.174239 0.175461
C80   C     C_R   0.634483 0.864084 0.587000 -0.042909
C81   C     C_R   0.779393 0.917708 0.131414 0.137070
C82   C     C_R   0.612795 0.750972 0.120999 0.109899
C83   C     C_R   0.604658 0.759197 0.163117 -0.150023
C84   C     C_R   0.688066 0.838562 0.189672 -0.007927
C85   C     C_R   0.589436 0.198847 0.571150 0.534193
C86   C     C_1   0.681400 0.837204 0.232847 -0.033601
C87   C     C_1   0.675792 0.838466 0.269042 -0.041888
C88   C     C_R   0.707560 0.823739 0.105358 0.002196
C89   C     C_R   0.618467 0.240506 0.615209 -0.009309
C90   C     C_R   0.571853 0.295441 0.637407 0.168953
C91   C     C_R   0.051356 0.780510 0.064194 0.558078
C92   C     C_R   0.578313 0.307506 0.680549 0.182745
C93   C     C_R   0.631958 0.265600 0.700921 0.007840
C94   C     C_R   0.684077 0.218569 0.678891 -0.163441
C95   C     C_R   0.677769 0.206386 0.636599 -0.171729
C96   C     C_R   0.752004 0.325393 0.846011 0.151177
C97   C     C_R   0.288219 0.886385 0.548493 0.547212
C98   C     C_R   0.767662 0.362871 0.887926 -0.095831
C99   C     C_R   0.584953 0.331820 0.888037 -0.148519
C100  C     C_R   0.568848 0.294555 0.846300 -0.156075
C101  C     C_R   0.653014 0.294934 0.824896 0.035700
C102  C     C_R   0.743938 0.486996 0.066548 0.571858
C103  C     C_1   0.642310 0.279417 0.781095 -0.043426
C104  C     C_1   0.636676 0.272029 0.744545 -0.043515
C105  C     C_R   0.686017 0.370873 0.908901 -0.017520
C106  C     C_R   0.077921 0.762752 0.909987 0.020326
C107  C     C_R   0.083778 0.851390 0.896247 -0.153181
C108  C     C_R   0.112693 0.872241 0.857478 -0.115939
C109  C     C_R   0.737631 0.449483 0.106433 0.003413
C110  C     C_R   0.137762 0.805911 0.831732 0.040793
C111  C     C_R   0.144971 0.724847 0.846338 -0.076545
C112  C     C_R   0.115543 0.702352 0.885391 0.113386
C113  C     C_R   0.740845 0.790270 0.065947 0.537044
C114  C     C_R   0.238072 0.837585 0.769404 0.112445
C115  C     C_R   0.239738 0.841411 0.727669 -0.124702
C116  C     C_R   0.148059 0.823247 0.704872 -0.028132
C117  C     C_R   0.053868 0.801552 0.723460 -0.123650
C118  C     C_R   0.049590 0.794655 0.765017 0.120655
C119  C     C_R   0.142486 0.813420 0.788185 0.071178
C120  C     C_R   0.164360 0.913372 0.646265 -0.138983
C121  C     C_R   0.665217 0.455780 0.134375 0.099403
C122  C     C_R   0.196335 0.930365 0.606959 0.127852
C123  C     C_R   0.194293 0.763318 0.596497 -0.133870
C124  C     C_R   0.022817 0.732849 0.947472 0.542407
C125  C     C_R   0.158803 0.744630 0.635069 0.139981
C126  C     C_R   0.152127 0.824451 0.661093 0.009726
C127  C     C_R   0.221137 0.858845 0.583301 0.007383
C128  C     C_R   0.658640 0.746061 0.913630 0.045199
C129  C     C_R   0.607795 0.656033 0.884182 -0.167278
C130  C     C_R   0.589502 0.664289 0.844029 -0.140226
C131  C     C_R   0.621227 0.762546 0.832923 0.008827
C132  C     C_R   0.660860 0.851015 0.863163 -0.103126
C133  C     C_R   0.675535 0.443141 0.175118 0.144442
C134  C     C_R   0.678815 0.843556 0.903745 0.142481
Cr1   Cr    Cr6+3 0.424820 0.846020 0.489780 1.003067
Cr2   Cr    Cr6+3 0.657880 0.078580 0.505700 0.996178
Cr3   Cr    Cr6+3 0.417280 0.075360 0.504550 1.019552
Cr4   Cr    Cr6+3 0.903360 0.812540 0.006510 1.019515
Cr5   Cr    Cr6+3 0.914630 0.587050 0.006280 1.010092
Cr6   Cr    Cr6+3 0.673560 0.582680 0.008540 1.027059
H1    H     H_    0.791346 0.275321 0.432701 0.133910
H2    H     H_    0.391556 0.219600 0.354869 0.154938
H3    H     H_    0.048174 0.971185 0.574055 0.121873
H4    H     H_    0.124792 0.946319 0.535037 0.153202
H5    H     H_    0.147108 0.077003 0.550591 0.125178
H6    H     H_    0.166474 0.674586 0.826383 0.133917
H7    H     H_    0.208774 0.705633 0.578133 0.138276
H8    H     H_    0.591212 0.580590 0.891330 0.131515
H9    H     H_    0.727147 0.254014 0.216112 0.130802
H10   H     H_    0.762044 0.004465 0.921961 0.242059
H11   H     H_    0.698363 0.009554 0.987389 0.133383
H12   H     H_    0.627778 0.869261 0.981013 0.142678
H13   H     H_    0.418980 0.352246 0.373986 0.125657
H14   H     H_    0.583479 0.936817 0.950667 0.130506
H15   H     H_    0.814519 0.981980 0.710790 0.261144
H16   H     H_    0.990833 0.042540 0.691423 0.136390
H17   H     H_    0.941928 0.999009 0.638552 0.147550
H18   H     H_    0.916604 0.904278 0.672362 0.139348
H19   H     H_    0.576388 0.907097 0.723743 0.106421
H20   H     H_    0.561700 0.882180 0.795496 0.101689
H21   H     H_    0.556673 0.594790 0.821172 0.111226
H22   H     H_    0.713452 0.703091 0.702457 0.096209
H23   H     H_    0.694814 0.674529 0.773600 0.100488
H24   H     H_    0.906198 0.324696 0.151898 0.247317
H25   H     H_    0.506775 0.618113 0.668458 0.247781
H26   H     H_    0.323710 0.576135 0.664450 0.143962
H27   H     H_    0.353656 0.676868 0.633826 0.183396
H28   H     H_    0.402593 0.711554 0.687102 0.134008
H29   H     H_    0.415538 0.702400 0.560683 0.270645
H30   H     H_    0.436854 0.570096 0.518542 0.126633
H31   H     H_    0.556043 0.603572 0.549648 0.151460
H32   H     H_    0.557531 0.691377 0.516145 0.140955
H33   H     H_    0.684144 0.927033 0.854897 0.098173
H34   H     H_    0.577403 0.501834 0.202301 0.249058
H35   H     H_    0.041113 0.518260 0.169430 0.127023
H36   H     H_    0.529258 0.355025 0.248484 0.154052
H37   H     H_    0.534564 0.282820 0.200994 0.144530
H38   H     H_    0.441359 0.332636 0.204719 0.114702
H39   H     H_    0.784857 0.004932 0.606479 0.148332
H40   H     H_    0.785098 0.539868 0.327392 0.104683
H41   H     H_    0.791887 0.641354 0.277044 0.245476
H42   H     H_    0.924357 0.738193 0.236084 0.142630
H43   H     H_    0.921298 0.622612 0.209990 0.158122
H44   H     H_    0.978701 0.672552 0.262401 0.132478
H45   H     H_    0.052457 0.431190 0.199893 0.133222
H46   H     H_    0.989099 0.505478 0.219315 0.155430
H47   H     H_    0.060174 0.664557 0.117817 0.143913
H48   H     H_    0.113041 0.713929 0.189593 0.102043
H49   H     H_    0.179096 0.734640 0.298804 0.092431
H50   H     H_    0.229856 0.659946 0.348900 0.232484
H51   H     H_    0.807885 0.988583 0.402430 0.133315
H52   H     H_    0.045783 0.604403 0.369647 0.127097
H53   H     H_    0.108058 0.677821 0.419540 0.158371
H54   H     H_    0.124222 0.567327 0.399522 0.138288
H55   H     H_    0.255270 0.034924 0.405537 0.144081
H56   H     H_    0.212633 0.035019 0.181469 0.100482
H57   H     H_    0.249374 0.066096 0.105121 0.238135
H58   H     H_    0.105491 0.089849 0.134962 0.122987
H59   H     H_    0.013439 0.981492 0.097138 0.225668
H60   H     H_    0.112559 0.100712 0.081426 0.134488
H61   H     H_    0.954496 0.423382 0.100810 0.247450
H62   H     H_    0.574368 0.364371 0.346204 0.115335
H63   H     H_    0.801665 0.238287 0.082199 0.122733
H64   H     H_    0.880073 0.297187 0.041193 0.133079
H65   H     H_    0.752411 0.291936 0.046849 0.149961
H66   H     H_    0.216937 0.041276 0.334905 0.102603
H67   H     H_    0.832221 0.004020 0.083857 0.259452
H68   H     H_    0.911202 0.169058 0.114660 0.101219
H69   H     H_    0.948771 0.136848 0.159376 0.186790
H70   H     H_    0.811620 0.112452 0.150092 0.154564
H71   H     H_    0.842307 0.022269 0.228425 0.234265
H72   H     H_    0.018353 0.042158 0.225334 0.128799
H73   H     H_    0.573816 0.531710 0.140543 0.244775
H74   H     H_    0.976397 0.956154 0.177132 0.174460
H75   H     H_    0.922177 0.905607 0.223403 0.144234
H76   H     H_    0.861146 0.992771 0.297758 0.246827
H77   H     H_    0.014042 0.991175 0.324261 0.138197
H78   H     H_    0.905449 0.858243 0.316033 0.144027
H79   H     H_    0.943731 0.934346 0.366887 0.150485
H80   H     H_    0.473306 0.758255 0.378016 0.147550
H81   H     H_    0.534598 0.700889 0.175292 0.103422
H82   H     H_    0.473575 0.606990 0.109049 0.234231
H83   H     H_    0.410429 0.629872 0.047332 0.129078
H84   H     H_    0.426617 0.406852 0.093783 0.130552
H85   H     H_    0.529810 0.753494 0.048355 0.141310
H86   H     H_    0.433340 0.738898 0.085705 0.131649
H87   H     H_    0.499462 0.731040 0.305769 0.111247
H88   H     H_    0.845967 0.391624 0.903409 0.133673
H89   H     H_    0.925334 0.412268 0.348547 0.248937
H90   H     H_    0.032294 0.354731 0.376796 0.131464
H91   H     H_    0.919196 0.255292 0.396984 0.162207
H92   H     H_    0.979154 0.391500 0.421348 0.131413
H93   H     H_    0.814539 0.261826 0.801798 0.253085
H94   H     H_    0.983426 0.416957 0.801461 0.147882
H95   H     H_    0.445396 0.338127 0.131257 0.128090
H96   H     H_    0.942635 0.485800 0.840009 0.159684
H97   H     H_    0.875013 0.441105 0.789208 0.137926
H98   H     H_    0.727128 0.188055 0.694432 0.130558
H99   H     H_    0.714052 0.163865 0.620581 0.149944
H100  H     H_    0.549815 0.364201 0.589308 0.244503
H101  H     H_    0.365043 0.255217 0.588539 0.148369
H102  H     H_    0.389588 0.364203 0.627142 0.152053
H103  H     H_    0.375711 0.245525 0.641736 0.159499
H104  H     H_    0.492554 0.271416 0.830269 0.108042
H105  H     H_    0.520395 0.336748 0.903299 0.133336
H106  H     H_    0.495865 0.333407 0.081549 0.156780
H107  H     H_    0.495511 0.329569 0.728860 0.243459
H108  H     H_    0.542907 0.505341 0.724875 0.137842
H109  H     H_    0.613727 0.502134 0.680544 0.173513
H110  H     H_    0.664596 0.497332 0.729931 0.126315
H111  H     H_    0.059479 0.901845 0.914460 0.140347
H112  H     H_    0.050267 0.559143 0.906487 0.271437
H113  H     H_    0.215192 0.573353 0.930330 0.135325
H114  H     H_    0.214263 0.690466 0.953764 0.154246
H115  H     H_    0.288448 0.692537 0.909404 0.155225
H116  H     H_    0.138476 0.648806 0.679194 0.258090
H117  H     H_    0.478954 0.326267 0.440699 0.253654
H118  H     H_    0.043023 0.486102 0.637452 0.138252
H119  H     H_    0.062982 0.547820 0.592866 0.146212
H120  H     H_    0.974138 0.558407 0.629795 0.146928
H121  H     H_    0.661003 0.175140 0.315052 0.270010
H122  H     H_    0.731408 0.070457 0.284380 0.149176
H123  H     H_    0.844613 0.199130 0.299387 0.176586
H124  H     H_    0.788346 0.155058 0.246882 0.142503
H125  H     H_    0.312677 0.858653 0.712864 0.115372
H126  H     H_    0.378868 0.832354 0.775694 0.243140
H127  H     H_    0.462298 0.969570 0.832321 0.138337
H128  H     H_    0.318367 0.243027 0.395061 0.132440
H129  H     H_    0.344350 0.984006 0.833979 0.160436
H130  H     H_    0.426469 0.018377 0.791210 0.140923
H131  H     H_    0.109186 0.936514 0.846607 0.124296
H132  H     H_    0.983050 0.786669 0.705427 0.104233
H133  H     H_    0.904510 0.792836 0.770231 0.250023
H134  H     H_    0.860402 0.608525 0.757911 0.125676
H135  H     H_    0.822313 0.646584 0.806530 0.145779
H136  H     H_    0.941124 0.634783 0.804618 0.155545
H137  H     H_    0.154422 0.972174 0.666103 0.101994
H138  H     H_    0.220172 0.081460 0.615606 0.227583
N1    N     N_2   0.582747 0.475965 0.121448 -0.468280
N2    N     N_2   0.526761 0.667279 0.094729 -0.477534
N3    N     N_2   0.886903 0.353443 0.365768 -0.516409
N4    N     N_2   0.838163 0.323485 0.825318 -0.523311
N5    N     N_2   0.521753 0.341520 0.616789 -0.502432
N6    N     N_2   0.528206 0.359318 0.702911 -0.508760
N7    N     N_2   0.120664 0.616514 0.897879 -0.527430
N8    N     N_2   0.138817 0.649222 0.648219 -0.535970
N9    N     N_2   0.696505 0.193604 0.288253 -0.509654
N10   N     N_2   0.332115 0.856890 0.792231 -0.527497
N11   N     N_2   0.951484 0.767486 0.783343 -0.516755
N12   N     N_2   0.476895 0.285267 0.412701 -0.488796
N13   N     N_2   0.209194 0.021956 0.592694 -0.489158
N14   N     N_2   0.724651 0.935382 0.933690 -0.498265
N15   N     N_2   0.825079 0.981394 0.680117 -0.520562
N16   N     N_2   0.482143 0.650900 0.648208 -0.494767
N17   N     N_2   0.475129 0.686768 0.569076 -0.485655
N18   N     N_2   0.602277 0.447406 0.203453 -0.493693
N19   N     N_2   0.810172 0.598627 0.254417 -0.497463
N20   N     N_2   0.898517 0.378409 0.172784 -0.532357
N21   N     N_2   0.213076 0.701131 0.372678 -0.498680
N22   N     N_2   0.171012 0.006596 0.100512 -0.524349
N23   N     N_2   0.878176 0.402706 0.089775 -0.493898
N24   N     N_2   0.851917 0.008199 0.114179 -0.516711
N25   N     N_2   0.863493 0.997271 0.201316 -0.523046
N26   N     N_2   0.860332 0.975118 0.326753 -0.531851
O1    O     O_R   0.318160 0.824460 0.443680 -0.480279
O2    O     O_R   0.668160 0.499860 0.053480 -0.476433
O3    O     O_R   0.689170 0.693840 0.050110 -0.450504
O4    O     O_R   0.525040 0.857250 0.449830 -0.497770
O5    O     O_R   0.803860 0.812940 0.962540 -0.479868
O6    O     O_R   0.982950 0.787950 0.964120 -0.503661
O7    O     O_R   0.007050 0.649970 0.960540 -0.520761
O8    O     O_R   0.807910 0.482370 0.965590 -0.506321
O9    O     O_R   0.643310 0.460980 0.963840 -0.521589
O10   O     O_R   0.666140 0.657800 0.967020 -0.517216
O11   O     O_3   0.830520 0.660760 0.007110 -0.247065
O12   O     O_R   0.645130 0.163230 0.552140 -0.507428
O13   O     O_R   0.684760 0.998800 0.456360 -0.519761
O14   O     O_R   0.647540 0.166310 0.470260 -0.510247
O15   O     O_R   0.500960 0.181750 0.467450 -0.493525
O16   O     O_R   0.331100 0.981120 0.457080 -0.513712
O17   O     O_R   0.315560 0.821140 0.532010 -0.546895
O18   O     O_R   0.522630 0.854180 0.531710 -0.497110
O19   O     O_R   0.682160 0.995480 0.544690 -0.527324
O20   O     O_R   0.498360 0.178430 0.555780 -0.500414
O21   O     O_R   0.328690 0.978040 0.538950 -0.457467
O22   O     O_3   0.499990 0.999990 0.500010 -0.233636
O23   O     O_R   0.828710 0.851830 0.052170 -0.536440
O24   O     O_R   0.005980 0.823990 0.047210 -0.476210
O25   O     O_R   0.031900 0.688850 0.050170 -0.529652
O26   O     O_R   0.830940 0.518420 0.048680 -0.469345

loop_
_geom_bond_atom_site_label_1
_geom_bond_atom_site_label_2
_ccdc_geom_bond_type
C61   O16   A    
C75   C76   A    
C29   N8    S    
C31   N10   S    
C114  C115  A    
Cr3   O20   S    
C38   H31   S    
C22   H85   S    
H138  N13   S    
C15   H45   S    
C16   N21   S    
C84   C86   S    
C5    C6    A    
C57   C59   A    
C41   H9    S    
C106  C107  A    
C55   C62   A    
C56   C57   A    
C60   C62   A    
C110  C111  A    
C16   H53   S    
C46   C47   S    
Cr5   O8    S    
C14   H128  S    
H100  N5    S    
C1    O13   A    
C14   N12   S    
C18   H63   S    
Cr3   O16   S    
C34   N14   S    
C35   C109  A    
C48   C50   A    
C17   N22   S    
C59   C60   A    
C101  C103  S    
H133  N11   S    
C37   H28   S    
C73   O19   A    
C33   H4    S    
C1    O4    A    
C51   C52   A    
C29   H120  S    
C20   H75   S    
C3    C8    A    
C10   C80   A    
C77   C78   A    
C7    H23   S    
C30   H122  S    
C43   C44   A    
H107  N6    S    
C32   H136  S    
C56   H55   S    
C90   C92   A    
H89   N3    S    
C95   H99   S    
C30   N9    S    
C11   H39   S    
C97   O21   A    
C39   H38   S    
Cr3   O22   S    
C108  H131  S    
C82   N2    S    
C78   H51   S    
C121  N1    S    
C134  N14   S    
C4    C5    A    
C61   O1    A    
C6    C7    A    
H41   N19   S    
C75   H87   S    
C130  C131  A    
C27   H109  S    
C109  C121  A    
Cr6   O9    S    
C17   H59   S    
C13   O5    A    
C20   H72   S    
C81   C88   A    
C83   H81   S    
C132  C134  A    
C106  C124  S    
C102  C109  S    
C23   H91   S    
H121  N9    S    
Cr6   O2    S    
C14   H2    S    
C19   H70   S    
H10   N14   S    
C111  C112  A    
C114  N10   S    
C128  C129  A    
C85   O12   A    
C7    C8    A    
Cr1   O18   S    
C29   H119  S    
C79   C84   A    
C22   N2    S    
C133  N18   S    
C115  C116  A    
C48   H62   S    
C124  O7    A    
C88   C113  S    
C72   C78   A    
Cr2   O14   S    
C96   C98   A    
C107  C108  A    
C118  N11   S    
C11   C58   A    
C9    C10   A    
C114  C119  A    
C100  H104  S    
C40   H43   S    
C32   N11   S    
C66   C67   A    
C21   H77   S    
C62   N21   S    
C91   O25   A    
C31   H130  S    
Cr1   O4    S    
C51   H1    S    
C48   C53   A    
C1    C72   S    
C31   H127  S    
C28   H113  S    
C111  H6    S    
C27   N6    S    
Cr4   O5    S    
C34   H12   S    
C26   H103  S    
Cr6   O11   S    
C57   H66   S    
C20   H74   S    
C49   O15   A    
C128  C134  A    
C123  C127  A    
C83   C84   A    
C8    C131  S    
C19   N24   S    
H116  N8    S    
C76   C87   S    
C36   H17   S    
Cr5   O11   S    
C25   H94   S    
C19   H68   S    
C112  N7    S    
C74   H80   S    
C3    C4    A    
C52   C53   A    
C129  C130  A    
Cr5   O25   S    
C90   N5    S    
C110  C119  S    
C38   H32   S    
C22   H86   S    
H76   N26   S    
C25   N4    S    
C92   N6    S    
C117  C118  A    
C120  H137  S    
C38   N17   S    
C12   H106  S    
C55   C61   S    
C100  C101  A    
C108  C110  A    
C16   H54   S    
C63   C64   A    
H126  N10   S    
Cr5   O7    S    
C21   H79   S    
C18   H64   S    
C13   O10   A    
Cr3   O15   S    
C12   H95   S    
C55   C56   A    
C41   C42   A    
Cr2   O22   S    
C28   H115  S    
H112  N7    S    
C44   H40   S    
Cr4   O11   S    
C26   H101  S    
C37   H27   S    
C73   O18   A    
C33   H3    S    
H50   N21   S    
C50   C54   A    
H34   N18   S    
C18   H65   S    
C40   N19   S    
C9    C69   A    
C120  C126  A    
C123  C125  A    
C4    H19   S    
C35   N23   S    
C18   N23   S    
Cr2   O19   S    
C30   H123  S    
C64   C71   A    
C12   H84   S    
C5    C69   S    
C52   N3    S    
C43   C53   S    
C25   H96   S    
C124  O6    A    
C99   H105  S    
C42   N9    S    
Cr1   O22   S    
C23   N3    S    
C96   C101  A    
C47   C133  A    
H67   N24   S    
C39   H37   S    
Cr3   O21   S    
C38   H30   S    
C77   N26   S    
C40   H42   S    
C34   H14   S    
C102  O2    A    
C15   H46   S    
C67   C68   S    
C72   C74   A    
C58   N15   S    
C85   C89   S    
C86   C87   T    
C45   N19   S    
C89   C95   A    
H71   N25   S    
Cr6   O10   S    
C2    O9    A    
C17   H58   S    
C12   N1    S    
C37   H26   S    
C36   N15   S    
C125  C126  A    
C42   C43   A    
H82   N2    S    
C131  C132  A    
C79   N25   S    
C44   C45   A    
C36   H16   S    
C125  N8    S    
C19   H69   S    
C122  N13   S    
C58   C69   A    
Cr1   O17   S    
C29   H118  S    
C107  H111  S    
C21   N26   S    
C32   H135  S    
C27   H108  S    
C92   C93   A    
C94   C95   A    
C11   C80   A    
C59   C70   S    
C71   C91   S    
C82   C83   A    
C103  C104  T    
C89   C90   A    
C115  H125  S    
C40   H44   S    
H57   N22   S    
H73   N1    S    
C37   N16   S    
C97   C127  S    
C81   N24   S    
C24   C35   A    
C106  C112  A    
Cr2   O12   S    
C98   C105  A    
H15   N15   S    
C27   H110  S    
C28   H114  S    
Cr4   O6    S    
C82   C88   A    
C65   N22   S    
C49   C54   S    
C122  C127  A    
C116  C117  A    
C17   H60   S    
C118  C119  A    
C129  H8    S    
C49   O14   A    
C16   H52   S    
C13   C128  S    
C94   H98   S    
C6    H22   S    
C15   N20   S    
C60   H49   S    
C31   H129  S    
C41   C46   A    
C25   H97   S    
C50   N12   S    
H24   N20   S    
C23   H92   S    
C36   H18   S    
H93   N4    S    
C2    O8    A    
C91   O24   A    
H29   N17   S    
C93   C104  S    
C9    N16   S    
C33   N13   S    
C120  C122  A    
H117  N12   S    
C98   H88   S    
H61   N23   S    
C99   C105  A    
C63   C67   A    
C20   N25   S    
C74   C75   A    
C23   H90   S    
C76   C77   A    
C97   O17   A    
C79   C81   A    
C65   C71   A    
C96   N4    S    
Cr4   O24   S    
C85   O20   A    
C24   N20   S    
C99   C100  A    
Cr2   O13   S    
Cr4   O23   S    
C102  O26   A    
C93   C94   A    
C26   N5    S    
C33   H5    S    
C130  H21   S    
C28   N7    S    
C123  H7    S    
C65   C66   A    
C21   H78   S    
C14   H13   S    
C3    H20   S    
C117  H132  S    
Cr1   O1    S    
C24   C47   A    
C39   H36   S    
C66   H56   S    
C34   H11   S    
C26   H102  S    
H25   N16   S    
C22   H83   S    
C2    C105  S    
C15   H35   S    
C51   C54   A    
C113  O23   A    
C113  O3    A    
C73   C80   S    
C30   H124  S    
C132  H33   S    
C64   H47   S    
C32   H134  S    
C45   C46   A    
Cr6   O3    S    
C68   C70   T    
C63   H48   S    
C39   N18   S    
C116  C126  S    
C121  C133  A    
C10   N17   S    
Cr5   O26   S    
