data_mof_unit_42717.cif
_audit_creation_date              2013-03-05T15:49:06-0500
_audit_creation_method            fapswitch 2.2
_symmetry_space_group_name_H-M    P1
_symmetry_Int_Tables_number       1
_space_group_crystal_system       triclinic
_cell_length_a                    22.227532
_cell_length_b                    7.229189
_cell_length_c                    19.280958
_cell_angle_alpha                 90.004816
_cell_angle_beta                  99.182688
_cell_angle_gamma                 89.993403
_cell_volume                      3058.4949536

loop_
_atom_site_label
_atom_site_type_symbol
_atom_site_description
_atom_site_fract_x
_atom_site_fract_y
_atom_site_fract_z
_atom_type_partial_charge
O1    O     O_R   0.448470 0.506130 0.415700 -0.581094
O2    O     O_R   0.551530 0.006130 0.584300 -0.580715
O3    O     O_R   0.436320 0.174490 0.555800 -0.581808
O4    O     O_R   0.563680 0.674490 0.444200 -0.580802
C1    C     C_R   0.421123 0.344384 0.575108 0.945912
C2    C     C_R   0.578883 0.844366 0.424893 0.945720
O5    O     O_R   0.441350 0.176340 0.414480 -0.582222
O6    O     O_R   0.558650 0.676340 0.585520 -0.582035
O7    O     O_R   0.556600 0.007100 0.441970 -0.581088
O8    O     O_R   0.443400 0.507100 0.558030 -0.582768
C3    C     C_R   0.427124 0.344723 0.389085 0.930568
C4    C     C_R   0.572858 0.844740 0.610935 0.930489
O9    O     O_3   0.537810 0.339550 0.509190 -0.280618
O10   O     O_3   0.462190 0.839550 0.490810 -0.282440
V1    V     V_3+5 0.492990 0.064280 0.498300 1.182857
V2    V     V_3+5 0.507010 0.564280 0.501700 1.183309
C5    C     C_R   0.868085 0.973291 0.693272 -0.211539
C6    C     C_R   0.132258 0.480791 0.306194 -0.208866
H1    H     H_    0.784926 0.967521 0.578596 0.146190
H2    H     H_    0.215560 0.479374 0.420796 0.149669
H3    H     H_    0.885392 0.996891 0.644505 0.140413
H4    H     H_    0.114959 0.508403 0.354697 0.144561
C7    C     C_R   0.886462 0.942131 0.820176 -0.140550
C8    C     C_R   0.113686 0.442578 0.179596 -0.152782
C9    C     C_R   0.590276 0.819025 0.739748 -0.277116
C10   C     C_R   0.409558 0.314498 0.260447 -0.275862
C11   C     C_R   0.626940 0.817990 0.805891 0.426110
C12   C     C_R   0.372847 0.311645 0.194350 0.425726
C13   C     C_R   0.689879 0.848534 0.810842 -0.305225
C14   C     C_R   0.310017 0.344326 0.189275 -0.305880
C15   C     C_R   0.717338 0.880551 0.750572 0.057247
C16   C     C_R   0.282721 0.380445 0.249370 0.057213
C17   C     C_R   0.678781 0.882538 0.683532 0.105303
C18   C     C_R   0.321346 0.384652 0.316343 0.106264
C19   C     C_R   0.781820 0.910270 0.754655 0.125169
C20   C     C_R   0.218321 0.411877 0.245180 0.125642
C21   C     C_R   0.805557 0.942233 0.691613 0.135338
C22   C     C_R   0.194731 0.448189 0.308012 0.132661
C23   C     C_R   0.766863 0.943441 0.626825 -0.194831
C24   C     C_R   0.233506 0.451957 0.372726 -0.195020
C25   C     C_R   0.704645 0.913930 0.622731 -0.187135
C26   C     C_R   0.295642 0.420403 0.376952 -0.190415
C27   C     C_R   0.823770 0.909932 0.818773 -0.268348
C28   C     C_R   0.176314 0.409145 0.181130 -0.265651
C29   C     C_R   0.908824 0.974349 0.756730 0.182003
C30   C     C_R   0.091431 0.478560 0.242819 0.183524
C31   C     C_R   0.615072 0.851338 0.678694 -0.209901
C32   C     C_R   0.384936 0.350995 0.321316 -0.210647
H5    H     H_    0.809352 0.887024 0.868825 0.122293
H6    H     H_    0.190644 0.383574 0.131202 0.122062
H7    H     H_    0.541731 0.794324 0.735455 0.166232
H8    H     H_    0.458001 0.287822 0.264857 0.166618
H9    H     H_    0.716349 0.846287 0.862616 0.170462
H10   H     H_    0.283504 0.340418 0.137543 0.170313
H11   H     H_    0.676853 0.916017 0.571219 0.109218
H12   H     H_    0.323495 0.424349 0.428410 0.109828
C33   C     C_3   0.779542 0.874250 0.318304 -0.226343
C34   C     C_3   0.248107 0.222930 0.722635 -0.265450
C35   C     C_3   0.786042 0.041195 0.270620 0.392842
C36   C     C_3   0.194722 0.360795 0.713367 0.406694
H13   H     H_    0.803246 0.856719 0.373103 0.163557
H14   H     H_    0.246655 0.080288 0.701071 0.151599
H15   H     H_    0.689120 0.182040 0.245436 0.158244
H16   H     H_    0.224443 0.615863 0.650031 0.156200
C37   C     C_1   0.875659 0.940491 0.121532 -0.249087
C38   C     C_1   0.124345 0.440487 0.878470 -0.255495
C39   C     C_1   0.625189 0.854094 0.379686 -0.264614
C40   C     C_1   0.374816 0.354101 0.620308 -0.266599
C41   C     C_3   0.785225 0.744306 0.255276 -0.167642
C42   C     C_3   0.261896 0.276692 0.801760 -0.187263
C43   C     C_3   0.792273 0.914354 0.208681 0.022365
C44   C     C_3   0.207613 0.412893 0.791221 0.058743
C45   C     C_3   0.715016 0.751969 0.232152 -0.081963
C46   C     C_3   0.304501 0.434343 0.784082 -0.061516
C47   C     C_3   0.709912 0.882606 0.294272 0.146804
C48   C     C_3   0.289987 0.381428 0.705628 0.157125
C49   C     C_3   0.722540 0.922529 0.185224 -0.164405
C50   C     C_3   0.249693 0.570550 0.773813 -0.200875
C51   C     C_3   0.716625 0.053302 0.247930 -0.248446
C52   C     C_3   0.235863 0.518010 0.694562 -0.256421
C53   C     C_1   0.837983 0.929667 0.160633 0.103293
C54   C     C_1   0.162007 0.429315 0.839361 0.089510
C55   C     C_1   0.663540 0.865599 0.341419 0.047961
C56   C     C_1   0.336441 0.365303 0.658551 0.032816
H17   H     H_    0.699079 0.941706 0.130409 0.179124
H18   H     H_    0.250513 0.713483 0.795023 0.149303
H19   H     H_    0.685272 0.630832 0.216374 0.143339
H20   H     H_    0.350566 0.464848 0.813429 0.155668
H21   H     H_    0.813453 0.617153 0.257870 0.206425
H22   H     H_    0.272766 0.177876 0.846061 0.163040
O11   O     O_R   0.056650 0.288730 0.942060 -0.582568
O12   O     O_R   0.943350 0.788730 0.057940 -0.582106
O13   O     O_R   0.058660 0.616870 0.085540 -0.581962
O14   O     O_R   0.941340 0.116870 0.914460 -0.590974
C57   C     C_R   0.072521 0.448827 0.111240 0.916821
C58   C     C_R   0.927749 0.948815 0.888513 0.921608
O15   O     O_R   0.063700 0.618520 0.944220 -0.588243
O16   O     O_R   0.936300 0.118520 0.055780 -0.576316
O17   O     O_R   0.948460 0.787610 0.915680 -0.584049
O18   O     O_R   0.051540 0.287610 0.084320 -0.586780
C59   C     C_R   0.078766 0.450066 0.924540 0.946618
C60   C     C_R   0.921230 0.950065 0.075454 0.946621
O19   O     O_3   0.962230 0.453430 0.990860 -0.278205
O20   O     O_3   0.037770 0.953430 0.009140 -0.281568
V3    V     V_3+5 0.007010 0.728750 0.001700 1.170739
V4    V     V_3+5 0.992990 0.228750 0.998300 1.177148
C61   C     C_3   0.975774 0.009578 0.755011 -0.384606
C62   C     C_3   0.011469 0.828609 0.757629 -0.774134
H23   H     H_    0.008615 0.752076 0.806845 0.248705
H24   H     H_    0.993237 0.740101 0.711989 0.267477
H25   H     H_    0.060156 0.858729 0.755627 0.260109
H26   H     H_    0.981547 0.084240 0.706087 0.238254
H27   H     H_    0.995653 0.100345 0.799260 0.203867
C63   C     C_3   0.024510 0.513925 0.244719 -0.358513
C64   C     C_3   0.011828 0.720503 0.250003 -0.806338
H28   H     H_    0.038164 0.778668 0.298949 0.255927
H29   H     H_    0.024458 0.794892 0.204019 0.254666
H30   H     H_    0.962518 0.742588 0.250957 0.255499
H31   H     H_    0.995134 0.457375 0.197497 0.195349
H32   H     H_    0.010726 0.441595 0.290595 0.221892
N1    N     N_R   0.600234 0.785147 0.868190 0.248150
O21   O     O_R   0.541944 0.756180 0.863734 -0.365494
O22   O     O_R   0.633853 0.783993 0.930001 -0.380231
N2    N     N_R   0.399383 0.274553 0.132240 0.248055
O23   O     O_R   0.457590 0.243856 0.136813 -0.363319
O24   O     O_R   0.365692 0.271223 0.070486 -0.379291
N3    N     N_R   0.824140 0.200950 0.293230 0.228042
O25   O     O_R   0.813829 0.297526 0.347006 -0.414324
O26   O     O_R   0.868600 0.247461 0.260370 -0.432337
N4    N     N_R   0.135084 0.319833 0.672922 0.235066
O27   O     O_R   0.130462 0.276440 0.606837 -0.391972
O28   O     O_R   0.086319 0.327213 0.702164 -0.429373

loop_
_geom_bond_atom_site_label_1
_geom_bond_atom_site_label_2
_geom_bond_distance
_ccdc_geom_bond_type
C34   H14   1.110362 S    
C22   C24   1.399007 A    
C39   C55   1.216026 T    
C7    C29   1.411351 A    
C11   C13   1.404439 A    
C45   C47   1.543522 S    
C61   H26   1.111905 S    
O1    C3    1.331278 A    
O2    C4    1.331158 A    
C48   C56   1.484162 S    
C2    O7    1.337753 A    
C9    H7    1.083774 S    
C63   C64   1.526143 S    
C11   N1    1.441963 S    
C34   C48   1.544250 S    
C23   C25   1.389089 A    
H15   C51   1.110282 S    
C7    C58   1.481436 S    
O5    C3    1.331194 A    
C14   H10   1.074885 S    
C47   C51   1.544716 S    
C46   C48   1.543628 S    
C16   C20   1.438837 A    
C19   C21   1.419135 A    
C5    C29   1.401227 A    
C1    C40   1.452625 S    
H2    C24   1.084143 S    
C50   C52   1.556816 S    
C33   C35   1.537966 S    
C36   C44   1.529671 S    
C35   N3    1.457140 S    
C64   H28   1.110753 S    
C58   O17   1.329450 A    
C7    C27   1.408805 A    
C62   H23   1.109006 S    
O6    V2    1.998394 S    
C41   C43   1.545308 S    
C61   H27   1.110560 S    
C44   C50   1.544994 S    
O13   V3    1.998249 S    
C45   H19   1.110140 S    
C64   H29   1.110705 S    
C18   C26   1.404213 A    
C42   C46   1.554097 S    
C61   C62   1.526621 S    
C15   C17   1.432471 A    
C41   C45   1.554084 S    
C25   H11   1.082812 S    
C19   C27   1.424733 A    
C9    C31   1.396882 A    
C63   H31   1.110273 S    
O12   C60   1.329987 A    
C26   H12   1.082801 S    
C50   H18   1.110313 S    
C24   C26   1.389300 A    
C49   H17   1.110080 S    
O13   C57   1.329482 A    
H16   C52   1.110194 S    
C38   C59   1.451700 S    
C3    C32   1.482462 S    
C42   H22   1.110162 S    
C37   C60   1.451689 S    
O11   C59   1.330138 A    
C4    C31   1.482654 S    
C41   H21   1.109502 S    
C6    C30   1.401051 A    
O20   V3    1.759307 S    
C49   C51   1.556693 S    
O17   V3    1.984091 S    
C46   H20   1.110085 S    
C30   C63   1.515455 S    
C40   C56   1.215968 T    
C17   C25   1.404090 A    
O4    C2    1.342100 A    
C8    C57   1.480337 S    
C35   C51   1.537657 S    
C57   O18   1.329654 A    
C27   H5    1.077134 S    
O16   C60   1.334105 A    
C5    H3    1.084751 S    
C16   C18   1.432365 A    
O4    V2    1.973997 S    
N4    O28   1.300247 A    
N3    O26   1.300390 A    
C10   H8    1.083786 S    
C38   C54   1.215466 T    
C37   C53   1.215449 T    
O6    C4    1.331355 A    
C64   H30   1.110645 S    
O1    V2    1.982605 S    
C5    C21   1.403215 A    
O14   C58   1.330143 A    
O2    V1    1.982602 S    
N1    O21   1.301719 A    
H1    C23   1.084149 S    
C2    C39   1.452749 S    
C8    C28   1.408520 A    
C15   C19   1.438993 A    
C20   C28   1.424519 A    
C18   C32   1.422287 A    
C36   N4    1.457115 S    
N3    O25   1.300287 A    
C43   C49   1.544910 S    
O3    V1    1.973805 S    
N2    O24   1.301731 A    
C28   H6    1.077111 S    
C63   H32   1.111881 S    
O14   V4    1.998242 S    
C36   C52   1.538028 S    
C6    H4    1.084890 S    
C10   C12   1.399450 A    
C34   C42   1.556647 S    
C48   C52   1.544536 S    
O3    C1    1.342065 A    
C12   N2    1.441965 S    
C33   H13   1.110109 S    
C10   C32   1.396928 A    
C9    C11   1.399607 A    
O18   V4    1.984096 S    
O16   V4    1.974123 S    
C62   H25   1.110593 S    
C8    C30   1.410926 A    
C33   C47   1.544286 S    
O11   V4    1.963680 S    
N4    O27   1.300263 A    
C6    C22   1.403382 A    
O15   V3    1.973931 S    
C12   C14   1.404316 A    
C13   C15   1.415242 A    
O8    V2    1.959566 S    
C20   C22   1.419205 A    
C14   C16   1.415314 A    
C47   C55   1.484260 S    
C13   H9    1.074928 S    
C17   C31   1.422242 A    
O5    V1    1.998398 S    
C62   H24   1.110932 S    
O19   V4    1.759183 S    
O7    V1    1.959457 S    
C44   C54   1.484434 S    
N1    O22   1.301737 A    
O12   V3    1.963566 S    
C1    O8    1.337737 A    
C21   C23   1.399050 A    
C46   C50   1.554248 S    
O9    V2    1.759870 S    
C45   C49   1.554183 S    
O10   V1    1.759993 S    
C42   C44   1.545350 S    
C33   C41   1.556923 S    
C34   C36   1.537971 S    
O15   C59   1.333980 A    
C29   C61   1.515378 S    
C35   C43   1.529302 S    
N2    O23   1.301719 A    
C43   C53   1.484350 S    
