data_mof_unit_66414.cif
_audit_creation_date              2012-12-10T21:41:29-0500
_audit_creation_method            fapswitch 2.2
_symmetry_space_group_name_H-M    P1
_symmetry_Int_Tables_number       1
_space_group_crystal_system       triclinic
_cell_length_a                    23.924878
_cell_length_b                    23.832761
_cell_length_c                    16.086321
_cell_angle_alpha                 89.999795
_cell_angle_beta                  92.849118
_cell_angle_gamma                 90.000161
_cell_volume                      9161.01625666

loop_
_atom_site_label
_atom_site_type_symbol
_atom_type_description
_atom_site_fract_x
_atom_site_fract_y
_atom_site_fract_z
_atom_type_partial_charge
C1    C     C_R   0.577137 0.075695 0.511052 0.876512
C2    C     C_R   0.483713 1.000000 0.889808 0.332105
C3    C     C_R   0.016283 0.500000 0.110189 0.331716
C4    C     C_R   0.983717 0.500000 0.889811 0.331717
C5    C     C_R   0.564764 0.000000 0.163003 -0.302828
C6    C     C_R   0.435236 1.000000 0.836997 -0.302828
C7    C     C_R   0.064757 0.500000 0.162994 -0.303948
C8    C     C_R   0.935243 0.500000 0.837006 -0.303948
C9    C     C_R   0.560664 0.000000 0.249719 -0.001536
C10   C     C_R   0.439336 1.000000 0.750281 -0.001533
C11   C     C_R   0.060659 0.500000 0.249708 -0.004422
C12   C     C_R   0.422863 0.924305 0.488948 0.876510
C13   C     C_R   0.939341 0.500000 0.750292 -0.004423
C14   C     C_R   0.625470 0.887582 0.518314 -0.031482
C15   C     C_R   0.374530 0.112418 0.481685 -0.031482
C16   C     C_R   0.374528 0.887583 0.481685 -0.031482
C17   C     C_R   0.625472 0.112416 0.518314 -0.031483
C18   C     C_R   0.112379 0.374293 0.515964 -0.032754
C19   C     C_R   0.887621 0.625706 0.484036 -0.032754
C20   C     C_R   0.887621 0.374293 0.484037 -0.032756
C21   C     C_R   0.112378 0.625708 0.515963 -0.032755
C22   C     C_R   0.656669 0.878429 0.448183 -0.231812
C23   C     C_R   0.422863 0.075695 0.488948 0.876511
C24   C     C_R   0.343330 0.121570 0.551816 -0.231813
C25   C     C_R   0.343328 0.878433 0.551816 -0.231812
C26   C     C_R   0.656667 0.121573 0.448180 -0.231814
C27   C     C_R   0.125777 0.347041 0.442453 -0.230714
C28   C     C_R   0.874220 0.652956 0.557547 -0.230714
C29   C     C_R   0.874218 0.347044 0.557548 -0.230715
C30   C     C_R   0.125778 0.652959 0.442452 -0.230714
C31   C     C_R   0.703970 0.845294 0.454298 -0.162823
C32   C     C_R   0.296030 0.154706 0.545701 -0.162822
C33   C     C_R   0.296026 0.845299 0.545700 -0.162822
C34   C     C_R   0.577137 0.924304 0.511052 0.876511
C35   C     C_R   0.703971 0.154705 0.454295 -0.162822
C36   C     C_R   0.158979 0.299716 0.445971 -0.163101
C37   C     C_R   0.841018 0.700281 0.554029 -0.163101
C38   C     C_R   0.841018 0.299717 0.554030 -0.163100
C39   C     C_R   0.158978 0.700285 0.445970 -0.163100
C40   C     C_R   0.720384 0.820104 0.530870 0.328030
C41   C     C_R   0.279617 0.179898 0.469130 0.328029
C42   C     C_R   0.279612 0.820108 0.469129 0.328030
C43   C     C_R   0.720390 0.179889 0.530869 0.328031
C44   C     C_R   0.179974 0.279237 0.523526 0.327757
C45   C     C_R   0.075377 0.577487 0.510742 0.875393
C46   C     C_R   0.820024 0.720762 0.476474 0.327758
C47   C     C_R   0.820029 0.279234 0.476475 0.327757
C48   C     C_R   0.179971 0.720766 0.523525 0.327756
C49   C     C_R   0.690309 0.830726 0.601362 -0.192906
C50   C     C_R   0.309694 0.169277 0.398638 -0.192906
C51   C     C_R   0.309689 0.830729 0.398637 -0.192906
C52   C     C_R   0.690319 0.169262 0.601364 -0.192907
C53   C     C_R   0.165510 0.305646 0.596892 -0.192240
C54   C     C_R   0.834490 0.694355 0.403108 -0.192241
C55   C     C_R   0.834496 0.305640 0.403109 -0.192242
C56   C     C_R   0.924623 0.422513 0.489258 0.875392
C57   C     C_R   0.165507 0.694358 0.596891 -0.192241
C58   C     C_R   0.642881 0.864349 0.595344 -0.220205
C59   C     C_R   0.357121 0.135654 0.404656 -0.220206
C60   C     C_R   0.357118 0.864350 0.404656 -0.220205
C61   C     C_R   0.642888 0.135642 0.595346 -0.220204
C62   C     C_R   0.131784 0.353103 0.593389 -0.218743
C63   C     C_R   0.868216 0.646898 0.406611 -0.218744
C64   C     C_R   0.868220 0.353099 0.406611 -0.218744
C65   C     C_R   0.131782 0.646899 0.593389 -0.218744
C66   C     C_R   0.461778 1.000000 0.234254 -0.018734
C67   C     C_R   0.924623 0.577487 0.489258 0.875393
C68   C     C_R   0.538222 0.000000 0.765746 -0.018735
C69   C     C_R   0.961778 0.500000 0.234254 -0.019724
C70   C     C_R   0.038222 0.500000 0.765746 -0.019723
C71   C     C_R   0.463953 1.000000 0.147179 -0.273622
C72   C     C_R   0.536047 0.000000 0.852821 -0.273622
C73   C     C_R   0.963950 0.500000 0.147177 -0.273804
C74   C     C_R   0.036050 0.500000 0.852823 -0.273803
C75   C     C_R   0.075377 0.422513 0.510742 0.875394
C76   C     C_R   0.516287 1.000000 0.110192 0.332104
H1    H     H_    0.355235 0.102996 0.611572 0.161205
H2    H     H_    0.726859 0.838612 0.398741 0.148270
H3    H     H_    0.726857 0.161391 0.398736 0.148269
H4    H     H_    0.273135 0.838619 0.601257 0.148269
H5    H     H_    0.831106 0.720022 0.612110 0.149277
H6    H     H_    0.168888 0.279974 0.387891 0.149276
H7    H     H_    0.168889 0.720027 0.387890 0.149276
H8    H     H_    0.831105 0.279978 0.612111 0.149276
H9    H     H_    0.702789 0.811519 0.660432 0.139113
H10   H     H_    0.297214 0.188486 0.339569 0.139113
H11   H     H_    0.297209 0.811521 0.339568 0.139113
H12   H     H_    0.644763 0.897001 0.388427 0.161205
H13   H     H_    0.702804 0.188464 0.660436 0.139112
H14   H     H_    0.181594 0.290147 0.656703 0.138948
H15   H     H_    0.818408 0.709854 0.343297 0.138949
H16   H     H_    0.818416 0.290139 0.343298 0.138948
H17   H     H_    0.181589 0.709857 0.656702 0.138949
H18   H     H_    0.619694 0.871702 0.650456 0.161754
H19   H     H_    0.380309 0.128301 0.349545 0.161754
H20   H     H_    0.380306 0.871702 0.349545 0.161754
H21   H     H_    0.619704 0.128285 0.650460 0.161753
H22   H     H_    0.121269 0.373302 0.650876 0.159894
H23   H     H_    0.644757 0.103007 0.388421 0.161208
H24   H     H_    0.878733 0.626700 0.349124 0.159895
H25   H     H_    0.878738 0.373295 0.349124 0.159896
H26   H     H_    0.121266 0.626701 0.650875 0.159894
H27   H     H_    0.578339 0.000000 0.737529 0.130633
H28   H     H_    0.421661 1.000000 0.262471 0.130635
H29   H     H_    0.078338 0.500000 0.737531 0.128257
H30   H     H_    0.921662 0.500000 0.262469 0.128258
H31   H     H_    0.574882 0.000000 0.890318 0.152987
H32   H     H_    0.425118 1.000000 0.109682 0.152988
H33   H     H_    0.074885 0.500000 0.890318 0.152610
H34   H     H_    0.355233 0.897005 0.611572 0.161203
H35   H     H_    0.925114 0.500000 0.109682 0.152610
H36   H     H_    0.605659 0.000001 0.137024 0.143564
H37   H     H_    0.394341 1.000000 0.862976 0.143564
H38   H     H_    0.105651 0.500000 0.137011 0.145005
H39   H     H_    0.894349 0.500000 0.862989 0.145004
H40   H     H_    0.598272 0.000000 0.289954 0.123367
H41   H     H_    0.401728 1.000000 0.710046 0.123364
H42   H     H_    0.098266 0.500000 0.289931 0.132134
H43   H     H_    0.901734 0.500000 0.710069 0.132132
H44   H     H_    0.889563 0.637977 0.618044 0.166631
H45   H     H_    0.110432 0.362020 0.381956 0.166631
H46   H     H_    0.110435 0.637979 0.381955 0.166631
H47   H     H_    0.889559 0.362026 0.618045 0.166631
H48   H     H_    0.273139 0.161386 0.601257 0.148270
N1    N     N_2   0.763858 0.780351 0.538065 -0.208683
N2    N     N_R   0.490310 0.000000 0.716270 -0.086804
N3    N     N_R   0.009690 0.500000 0.283730 -0.087772
N4    N     N_R   0.990310 0.500000 0.716270 -0.087772
N5    N     N_2   0.522407 0.000000 0.021825 -0.189355
N6    N     N_2   0.477593 1.000000 0.978175 -0.189355
N7    N     N_2   0.022406 0.500000 0.021825 -0.189604
N8    N     N_2   0.977594 0.500000 0.978175 -0.189604
N9    N     N_2   0.236143 0.219651 0.461935 -0.208682
N10   N     N_2   0.236138 0.780355 0.461934 -0.208682
N11   N     N_2   0.763865 0.219641 0.538065 -0.208683
N12   N     N_2   0.219165 0.235195 0.530118 -0.207878
N13   N     N_2   0.780834 0.764804 0.469882 -0.207878
N14   N     N_2   0.780839 0.235191 0.469882 -0.207878
N15   N     N_2   0.219162 0.764809 0.530117 -0.207877
N16   N     N_R   0.509690 0.000000 0.283730 -0.086804
O1    O     O_R   0.554580 0.058040 0.577230 -0.622729
O2    O     O_R   0.439190 0.941940 0.561660 -0.624322
O3    O     O_R   0.439190 0.058060 0.561660 -0.624322
O4    O     O_R   0.560810 0.941940 0.438340 -0.624322
O5    O     O_R   0.060810 0.558060 0.438340 -0.624344
O6    O     O_R   0.939190 0.441940 0.561660 -0.624344
O7    O     O_R   0.939190 0.558060 0.561660 -0.624344
O8    O     O_R   0.060810 0.441940 0.438340 -0.624345
O9    O     O_R   0.445420 0.941960 0.422770 -0.622729
O10   O     O_R   0.445420 0.058040 0.422770 -0.622730
O11   O     O_R   0.554580 0.941960 0.577230 -0.622729
O12   O     O_R   0.054580 0.558040 0.577230 -0.623469
O13   O     O_R   0.945420 0.441960 0.422770 -0.623469
O14   O     O_R   0.945420 0.558040 0.422770 -0.623468
O15   O     O_R   0.054580 0.441960 0.577230 -0.623468
O16   O     O_R   0.560810 0.058060 0.438340 -0.624324
Zn1   Zn    Zn3+2 0.495820 0.000000 0.592740 0.946172
Zn2   Zn    Zn3+2 0.504180 1.000000 0.407260 0.946171
Zn3   Zn    Zn3+2 0.995820 0.500000 0.592740 0.944454
Zn4   Zn    Zn3+2 0.004180 0.500000 0.407260 0.944453

loop_
_geom_bond_atom_site_label_1
_geom_bond_atom_site_label_2
_ccdc_geom_bond_type
C44   N12   S    
N11   N14   D    
C18   C75   S    
C32   H48   S    
C68   H27   S    
C4    C8    A    
O7    Zn3   S    
C74   H33   S    
C41   N9    S    
C27   H45   S    
C48   C57   A    
C4    N8    S    
C7    C11   A    
C34   O4    A    
C5    C9    A    
C8    C13   A    
C67   O14   A    
C45   O5    A    
C50   C59   A    
O11   Zn1   S    
C7    H38   S    
C3    C7    A    
C52   C61   A    
C16   C60   A    
C71   C76   A    
C9    N16   A    
C43   C52   A    
C54   C63   A    
C40   C49   A    
C31   C40   A    
O8    Zn4   S    
C8    H39   S    
C17   C61   A    
C62   H22   S    
C13   N4    A    
C44   C53   A    
C12   C16   S    
C36   H6    S    
C29   C38   A    
C70   C74   A    
N9    N12   D    
C32   C41   A    
C69   C73   A    
C22   H12   S    
C35   C43   A    
O9    Zn2   S    
C4    C74   A    
C20   C56   S    
C26   H23   S    
N16   Zn2   S    
C15   C23   S    
O12   Zn3   S    
C57   H17   S    
C71   H32   S    
C37   H5    S    
C52   H13   S    
C2    C6    A    
C59   H19   S    
C65   H26   S    
C2    C72   A    
C13   H43   S    
C73   H35   S    
C21   C45   S    
C20   C29   A    
C64   H25   S    
C14   C58   A    
C23   O3    A    
C22   C31   A    
O15   Zn3   S    
C49   H9    S    
O3    Zn1   S    
C28   H44   S    
C51   H11   S    
N10   N15   D    
O5    Zn4   S    
C18   C62   A    
O6    Zn3   S    
N1    N13   D    
C49   C58   A    
C20   C64   A    
C1    O16   A    
C11   N3    A    
C24   C32   A    
C6    H37   S    
O14   Zn4   S    
C63   H24   S    
C43   N11   S    
C66   H28   S    
C76   N5    S    
C26   C35   A    
C66   C71   A    
C72   H31   S    
C68   C72   A    
C55   C64   A    
C46   C54   A    
C19   C67   S    
C19   C28   A    
C38   C47   A    
C19   C63   A    
C25   H34   S    
C46   N13   S    
C60   H20   S    
O1    Zn1   S    
C15   C24   A    
C55   H16   S    
C67   O7    A    
C75   O8    A    
C3    N7    S    
C36   C44   A    
C17   C26   A    
O2    Zn1   S    
O4    Zn2   S    
N7    N8    D    
C68   N2    A    
C41   C50   A    
C31   H2    S    
C47   C55   A    
N5    N6    D    
N2    Zn1   S    
C70   N4    A    
C16   C25   A    
C33   C42   A    
C69   H30   S    
O10   Zn2   S    
C48   N15   S    
C21   C65   A    
C9    H40   S    
C15   C59   A    
C12   O9    A    
C23   O10   A    
C61   H21   S    
C18   C27   A    
C57   C65   A    
C56   O13   A    
C70   H29   S    
C14   C34   S    
C6    C10   A    
C34   O11   A    
C33   H4    S    
C5    H36   S    
C27   C36   A    
C21   C30   A    
C42   C51   A    
C1    C17   S    
C42   N10   S    
C45   O12   A    
C14   C22   A    
C5    C76   A    
O16   Zn2   S    
C58   H18   S    
C38   H8    S    
C54   H15   S    
C10   H41   S    
C28   C37   A    
O13   Zn4   S    
C30   H46   S    
C40   N1    S    
C29   H47   S    
C47   N14   S    
C35   H3    S    
C2    N6    S    
C12   O2    A    
C30   C39   A    
C56   O6    A    
C3    C73   A    
C1    O1    A    
C50   H10   S    
C39   H7    S    
C75   O15   A    
C24   H1    S    
C66   N16   A    
C69   N3    A    
C53   C62   A    
C53   H14   S    
C51   C60   A    
C37   C46   A    
C10   N2    A    
C11   H42   S    
N3    Zn4   S    
N4    Zn3   S    
C25   C33   A    
C39   C48   A    
