data_mof_unit_36421.cif
_audit_creation_date              2013-03-05T16:46:43-0500
_audit_creation_method            fapswitch 2.2
_symmetry_space_group_name_H-M    P1
_symmetry_Int_Tables_number       1
_space_group_crystal_system       triclinic
_cell_length_a                    10.68028
_cell_length_b                    8.927774
_cell_length_c                    8.123004
_cell_angle_alpha                 89.910136
_cell_angle_beta                  89.55745
_cell_angle_gamma                 89.741514
_cell_volume                      774.505681873

loop_
_atom_site_label
_atom_site_type_symbol
_atom_site_description
_atom_site_fract_x
_atom_site_fract_y
_atom_site_fract_z
_atom_type_partial_charge
O1    O     O_R   0.500000 0.285350 0.636850 -0.639190
O2    O     O_R   0.500000 0.714650 0.636850 -0.619419
O3    O     O_R   0.500000 0.285360 0.363100 -0.611656
O4    O     O_R   0.500000 0.714640 0.363100 -0.586078
C1    C     C_R   0.500231 0.218070 0.500048 0.885186
C2    C     C_R   0.501285 0.781911 0.499884 1.006196
O5    O     O_R   0.316770 0.500000 0.636900 -0.617888
O6    O     O_R   0.683230 0.500000 0.636900 -0.625102
O7    O     O_R   0.316780 0.500000 0.363150 -0.602711
O8    O     O_R   0.683220 0.500000 0.363150 -0.582350
C3    C     C_R   0.260020 0.498748 0.500714 0.956537
C4    C     C_R   0.739992 0.498459 0.499190 0.917642
Zn1   Zn    Zn3+2 0.500000 0.500000 0.682780 1.024179
Zn2   Zn    Zn3+2 0.500000 0.500000 0.317220 1.071778
C5    C     C_R   0.130477 0.243322 0.631094 -0.124310
C6    C     C_R   0.869963 0.242244 0.628635 -0.113214
H1    H     H_    0.231556 0.237258 0.631644 0.140392
H2    H     H_    0.768976 0.235241 0.626750 0.137824
C7    C     C_R   0.065370 0.120988 0.694676 -0.048813
C8    C     C_R   0.935258 0.120816 0.694234 -0.044438
N1    N     N_1   0.500000 0.500000 0.073640 -0.005700
N2    N     N_1   0.500000 0.500000 0.926360 -0.013447
C9    C     C_R   0.934624 0.368378 0.565276 0.060817
C10   C     C_R   0.065565 0.369348 0.567373 0.049033
C11   C     C_R   0.127936 0.495505 0.502471 -0.262631
C12   C     C_R   0.872047 0.492698 0.496538 -0.260456
C13   C     C_R   0.064497 0.617791 0.432837 0.218082
C14   C     C_R   0.935338 0.615139 0.427627 0.212547
C15   C     C_1   0.500919 0.065219 0.500095 -0.149344
C16   C     C_1   0.501353 0.934785 0.499862 -0.095320
N3    N     N_R   0.131183 0.745548 0.369890 0.234724
O9    O     O_R   0.109476 0.795160 0.222074 -0.320340
O10   O     O_R   0.207249 0.818733 0.464373 -0.432423
N4    N     N_R   0.867999 0.740980 0.361718 0.224123
O11   O     O_R   0.874077 0.870611 0.433892 -0.393272
O12   O     O_R   0.815451 0.731147 0.218229 -0.341924
H3    H     H_    0.116059 0.025704 0.743491 0.178011
H4    H     H_    0.884721 0.025466 0.742900 0.172956

loop_
_geom_bond_atom_site_label_1
_geom_bond_atom_site_label_2
_geom_bond_distance
_ccdc_geom_bond_type
C5    C7    1.393785 A    
O7    Zn2   1.989258 S    
N3    O10   1.300749 A    
O6    Zn1   1.989289 S    
C11   C13   1.402935 A    
C8    H4    1.082606 S    
C12   C14   1.401459 A    
C7    C8    1.389678 A    
O6    C4    1.268277 A    
C6    C8    1.393777 A    
C14   N4    1.436266 S    
O2    C2    1.263466 A    
N1    N2    1.196355 T    
O5    C3    1.265585 A    
O7    C3    1.267213 A    
C15   C16   1.164476 T    
O3    Zn2   1.951589 S    
O8    C4    1.264596 A    
O1    C1    1.264000 A    
Zn2   N1    1.978601 S    
C6    H2    1.080891 S    
C5    C10   1.418152 A    
C2    C16   1.364828 S    
Zn1   N2    1.978601 S    
C6    C9    1.417602 A    
N4    O12   1.300797 A    
O4    Zn2   1.952736 S    
O1    Zn1   1.952901 S    
C3    C11   1.411086 S    
C9    C10   1.398789 A    
C13   N3    1.438582 S    
C1    C15   1.364607 S    
O5    Zn1   1.994946 S    
C10   C11   1.410572 A    
O4    C2    1.264050 A    
N4    O11   1.300269 A    
O8    Zn2   1.994919 S    
C9    C12   1.409773 A    
C13   C14   1.380744 A    
C5    H1    1.080705 S    
O2    Zn1   1.951752 S    
C7    H3    1.082618 S    
N3    O9    1.301282 A    
C4    C12   1.411082 S    
O3    C1    1.263463 A    
