data_mof_unit_18464.cif
_audit_creation_date              2012-12-10T20:58:07-0500
_audit_creation_method            fapswitch 2.2
_symmetry_space_group_name_H-M    P1
_symmetry_Int_Tables_number       1
_space_group_crystal_system       triclinic
_cell_length_a                    18.213374
_cell_length_b                    18.291395
_cell_length_c                    18.478936
_cell_angle_alpha                 120.08675
_cell_angle_beta                  89.837534
_cell_angle_gamma                 119.828713
_cell_volume                      4364.74863344

loop_
_atom_site_label
_atom_site_type_symbol
_atom_type_description
_atom_site_fract_x
_atom_site_fract_y
_atom_site_fract_z
_atom_type_partial_charge
C1    C     C_R   0.358068 0.220241 0.361225 0.856090
C2    C     C_3   0.276843 0.577898 0.359016 -0.465668
C3    C     C_3   0.295439 0.494786 0.301620 0.054802
C4    C     C_3   0.194067 0.495177 0.199683 0.005241
C5    C     C_3   0.145363 0.383486 0.177495 -0.024055
C6    C     C_3   0.208435 0.568253 0.299869 -0.461099
C7    C     C_3   0.758530 0.940985 0.650566 0.822600
C8    C     C_3   0.822373 0.061918 0.715263 0.078353
C9    C     C_3   0.636789 0.938822 0.722542 0.092399
C10   C     C_3   0.759570 0.940845 0.790551 0.488107
C11   C     C_3   0.697744 0.897582 0.699127 -0.197248
C12   C     C_R   0.640661 0.780866 0.639888 0.888939
C13   C     C_3   0.796616 0.102544 0.800906 -0.160135
C14   C     C_3   0.694266 0.058515 0.773687 0.753002
C15   C     C_3   0.811267 0.060781 0.850654 -0.544144
C16   C     C_3   0.641242 0.443636 0.205109 -0.654141
C17   C     C_3   0.701060 0.445516 0.145725 0.244717
C18   C     C_3   0.771764 0.615362 0.334302 0.209004
C19   C     C_3   0.741835 0.444637 0.301493 0.642639
C20   C     C_3   0.698523 0.501391 0.302169 -0.021912
C21   C     C_3   0.800476 0.504157 0.200905 -0.045347
C22   C     C_3   0.835168 0.617542 0.277348 0.017983
C23   C     C_R   0.358293 0.499790 0.639548 0.790230
C24   C     C_3   0.801965 0.447481 0.240739 -0.596408
C25   C     C_R   0.427645 0.180434 0.574541 -0.253373
C26   C     C_R   0.404964 0.141509 0.485084 0.428072
C27   C     C_R   0.317403 0.100809 0.439148 -0.060333
C28   C     C_R   0.254178 0.098779 0.484081 0.171153
C29   C     C_R   0.277356 0.135487 0.573714 0.395790
C30   C     C_R   0.365915 0.180099 0.619994 0.061486
C31   C     C_R   0.239821 0.944341 0.285946 0.412098
C32   C     C_R   0.193667 0.892518 0.196538 -0.165727
C33   C     C_R   0.200142 0.948532 0.161776 -0.202749
C34   C     C_R   0.640647 0.501322 0.359637 0.835350
C35   C     C_R   0.250885 0.056297 0.217675 0.391587
C36   C     C_R   0.298361 0.107776 0.306520 -0.164030
C37   C     C_R   0.287590 0.051573 0.342222 -0.140438
C38   C     C_R   0.213859 0.900479 0.012510 -0.091809
C39   C     C_R   0.177068 0.857779 0.923746 -0.178406
C40   C     C_R   0.086238 0.812692 0.888784 -0.041498
C41   C     C_R   0.031879 0.809650 0.942340 -0.058828
C42   C     C_R   0.068390 0.852506 0.031164 -0.179077
C43   C     C_R   0.159583 0.897833 0.066551 0.180939
C44   C     C_R   0.931263 0.690075 0.609361 -0.225211
C45   C     C_R   0.642059 0.500539 0.640274 0.828730
C46   C     C_R   0.870300 0.608915 0.615567 0.251870
C47   C     C_R   0.843806 0.632383 0.691904 0.054243
C48   C     C_R   0.877566 0.735232 0.758880 -0.329177
C49   C     C_R   0.941926 0.816359 0.754623 0.260944
C50   C     C_R   0.967922 0.793312 0.678151 0.216155
C51   C     C_R   0.842404 0.542062 0.757147 0.386993
C52   C     C_R   0.800153 0.489154 0.795921 -0.111017
C53   C     C_R   0.705905 0.430843 0.773908 -0.047585
C54   C     C_R   0.657130 0.436547 0.722611 -0.260904
C55   C     C_R   0.699195 0.498954 0.692988 -0.099391
C56   C     C_R   0.356292 0.498375 0.359629 0.806771
C57   C     C_R   0.793160 0.553908 0.710966 -0.114050
C58   C     C_R   0.616337 0.252876 0.736999 -0.357355
C59   C     C_R   0.559493 0.181064 0.754969 0.449510
C60   C     C_R   0.542918 0.216423 0.836195 0.243534
C61   C     C_R   0.582282 0.322200 0.897524 -0.264705
C62   C     C_R   0.636408 0.392571 0.878239 -0.112154
C63   C     C_R   0.654029 0.358286 0.798008 0.125356
C64   C     C_R   0.315260 0.741849 0.656595 -0.118464
C65   C     C_R   0.319799 0.695211 0.695940 -0.088515
C66   C     C_R   0.252357 0.591278 0.659320 0.148117
C67   C     C_3   0.345911 0.528906 0.244595 -0.482322
C68   C     C_R   0.179875 0.535033 0.583757 -0.152160
C69   C     C_R   0.175199 0.582195 0.545052 -0.170156
C70   C     C_R   0.242867 0.685494 0.581402 -0.123786
C71   C     C_R   0.200531 0.542602 0.760193 -0.253297
C72   C     C_R   0.196745 0.500092 0.806629 -0.043912
C73   C     C_R   0.247472 0.459064 0.797804 0.079098
C74   C     C_R   0.299301 0.461099 0.742904 -0.226591
C75   C     C_R   0.302260 0.502169 0.696014 -0.062195
C76   C     C_R   0.252812 0.544656 0.705294 -0.015803
C77   C     C_R   0.324683 0.477551 0.922174 0.392464
C78   C     C_3   0.288125 0.533570 0.187529 0.059098
C79   C     C_R   0.338769 0.433706 0.960400 -0.318523
C80   C     C_R   0.283683 0.326663 0.919425 0.220314
C81   C     C_R   0.212183 0.264485 0.841377 -0.241132
C82   C     C_R   0.196925 0.306610 0.802169 0.178685
C83   C     C_R   0.251938 0.414490 0.844490 0.018497
C84   C     C_R   0.857281 0.502058 0.142675 0.843927
C85   C     C_R   0.139683 0.500532 0.862592 0.807092
C86   C     C_R   0.856424 0.219138 0.861445 0.844829
C87   C     C_R   0.138290 0.779865 0.141135 0.856945
C88   C     C_R   0.856018 0.496740 0.858972 0.834037
C89   C     C_3   0.202363 0.382617 0.241626 0.391078
C90   C     C_R   0.137972 0.497960 0.142640 0.817680
H1    H     H_    0.368444 0.480602 0.203262 0.171690
H2    H     H_    0.143771 0.538016 0.313082 0.166830
H3    H     H_    0.081748 0.367426 0.192208 0.130960
H4    H     H_    0.890989 0.083538 0.736719 0.142711
H5    H     H_    0.410398 0.606011 0.289394 0.180825
H6    H     H_    0.884010 0.096562 0.875937 0.221504
H7    H     H_    0.789992 0.086540 0.910085 0.213234
H8    H     H_    0.603311 0.917510 0.766089 0.118317
H9    H     H_    0.606699 0.479091 0.203725 0.206679
H10   H     H_    0.586958 0.362023 0.177586 0.207974
H11   H     H_    0.675627 0.363971 0.093686 0.178753
H12   H     H_    0.735651 0.645344 0.322881 0.053525
H13   H     H_    0.831302 0.654419 0.245888 0.107770
H14   H     H_    0.777471 0.367748 0.184662 0.176410
H15   H     H_    0.871801 0.482931 0.276978 0.178794
H16   H     H_    0.494612 0.211804 0.609103 0.178335
H17   H     H_    0.279375 0.482096 0.116863 0.148047
H18   H     H_    0.284581 0.936300 0.039428 0.131007
H19   H     H_    0.219019 0.860179 0.882218 0.132436
H20   H     H_    0.058290 0.780570 0.820251 0.131749
H21   H     H_    0.961497 0.774272 0.915377 0.128899
H22   H     H_    0.026066 0.850862 0.072422 0.111561
H23   H     H_    0.951480 0.673679 0.551123 0.149773
H24   H     H_    0.857241 0.752696 0.817292 0.133312
H25   H     H_    0.585190 0.392832 0.707284 0.185037
H26   H     H_    0.629306 0.226534 0.674542 0.169043
H27   H     H_    0.568299 0.349283 0.959130 0.200184
H28   H     H_    0.663995 0.473519 0.925392 0.153785
H29   H     H_    0.239159 0.721824 0.551281 0.133253
H30   H     H_    0.367281 0.821971 0.684981 0.138333
H31   H     H_    0.375234 0.740058 0.755207 0.122729
H32   H     H_    0.126544 0.455384 0.555786 0.126910
H33   H     H_    0.119000 0.538802 0.487038 0.124083
H34   H     H_    0.162019 0.574186 0.766065 0.181880
H35   H     H_    0.338809 0.430968 0.737585 0.167541
H36   H     H_    0.394529 0.483220 0.020440 0.150949
H37   H     H_    0.253803 0.573632 0.413071 0.200293
H38   H     H_    0.171328 0.181670 0.807893 0.150904
H39   H     H_    0.340189 0.656572 0.393632 0.211867
H40   H     H_    0.232620 0.646575 0.318985 0.224702
O1    O     O_3   0.500000 0.500000 0.500000 -0.508582
O2    O     O_R   0.383400 0.560740 0.616060 -0.644118
O3    O     O_R   0.555060 0.439270 0.322940 -0.680839
O4    O     O_R   0.383950 0.268380 0.445700 -0.652862
O5    O     O_R   0.677590 0.731610 0.615290 -0.611256
O6    O     O_3   0.997750 0.500010 0.002220 -0.506957
O7    O     O_R   0.942690 0.560750 0.179280 -0.634122
O8    O     O_R   0.114340 0.439270 0.886160 -0.653930
O9    O     O_R   0.820160 0.268410 0.886930 -0.607357
O10   O     O_R   0.113800 0.731630 0.056520 -0.649588
O11   O     O_R   0.819390 0.439310 0.886160 -0.649735
O12   O     O_R   0.383400 0.268380 0.323710 -0.578961
O13   O     O_R   0.115110 0.560720 0.179280 -0.631705
O14   O     O_R   0.941380 0.560750 0.885620 -0.572274
O15   O     O_R   0.115110 0.439270 0.057830 -0.654479
O16   O     O_R   0.942690 0.268390 0.886930 -0.676437
O17   O     O_R   0.114340 0.731630 0.178520 -0.567280
O18   O     O_R   0.820160 0.439310 0.057830 -0.614226
O19   O     O_R   0.113800 0.560730 0.885620 -0.629941
O20   O     O_R   0.555060 0.731630 0.615290 -0.608948
O21   O     O_R   0.383950 0.439280 0.616600 -0.650926
O22   O     O_R   0.677590 0.560710 0.444390 -0.544498
O23   O     O_R   0.556370 0.439260 0.616600 -0.645428
O24   O     O_R   0.382640 0.439290 0.322940 -0.653188
O25   O     O_R   0.678360 0.560700 0.616060 -0.641767
O26   O     O_R   0.382640 0.560750 0.444390 -0.627064
Zn1   Zn    Zn3+2 0.456040 0.586770 0.543190 0.990298
Zn2   Zn    Zn3+2 0.456820 0.413240 0.543960 0.958687
Zn3   Zn    Zn3+2 0.631110 0.586750 0.543190 1.025887
Zn4   Zn    Zn3+2 0.456040 0.413240 0.369660 0.969443
Zn5   Zn    Zn3+2 0.041710 0.413240 0.959030 0.943586
Zn6   Zn    Zn3+2 0.866640 0.413270 0.959030 0.989391
Zn7   Zn    Zn3+2 0.040930 0.586780 0.958260 1.002013
Zn8   Zn    Zn3+2 0.041710 0.586770 0.132560 0.994794
N1    N     N_2   0.152272 0.363536 0.300250 -0.341102
H41   H     H_    0.140829 0.417931 0.341091 0.216516
C91   C     C_3   0.071856 0.261273 0.263972 -0.840163
H42   H     H_    0.053829 0.255847 0.319366 0.243288
H43   H     H_    0.081269 0.199251 0.222154 0.257976
H44   H     H_    0.014797 0.247753 0.224978 0.232076
O27   O     O_3   0.704488 0.905938 0.570333 -0.726981
H45   H     H_    0.680992 0.947951 0.582573 0.421314
O28   O     O_3   0.811709 0.902695 0.628079 -0.738708
H46   H     H_    0.844124 0.925232 0.592219 0.330930
O29   O     O_3   0.823093 0.107288 0.671888 -0.741989
H47   H     H_    0.876770 0.179548 0.707295 0.326547
O30   O     O_3   0.568662 0.891765 0.646548 -0.690511
H48   H     H_    0.522913 0.903864 0.667215 0.361916
O31   O     O_3   0.676472 0.083767 0.718179 -0.714939
H49   H     H_    0.698682 0.157279 0.754911 0.369955
N2    N     N_2   0.706272 0.898571 0.836390 -0.326019
H50   H     H_    0.651549 0.822905 0.796087 0.183006
C92   C     C_3   0.754618 0.919575 0.914233 -0.763280
H51   H     H_    0.811702 0.001863 0.959244 0.247640
H52   H     H_    0.780131 0.870693 0.894473 0.223981
H53   H     H_    0.708511 0.901198 0.951237 0.236852
O32   O     O_3   0.823529 0.917463 0.776146 -0.725205
H54   H     H_    0.794399 0.845070 0.756058 0.359014
O33   O     O_3   0.670525 0.099575 0.849927 -0.802427
H55   H     H_    0.608058 0.077033 0.829565 0.355264
O34   O     O_3   0.694468 0.487492 0.101592 -0.784607
H56   H     H_    0.698260 0.551178 0.144199 0.323420
N3    N     N_2   0.332381 0.639030 0.212995 -0.295132
H57   H     H_    0.363383 0.697067 0.279831 0.249515
C93   C     C_3   0.380477 0.663926 0.157899 -0.791160
H58   H     H_    0.411850 0.746273 0.185231 0.252039
H59   H     H_    0.332578 0.616453 0.090779 0.275661
H60   H     H_    0.433709 0.650283 0.155408 0.228508
O35   O     O_3   0.791872 0.492918 0.388737 -0.717512
H61   H     H_    0.851038 0.555154 0.406310 0.350722
N4    N     N_2   0.672038 0.336590 0.265667 -0.311433
H62   H     H_    0.613577 0.322388 0.279849 0.213822
C94   C     C_3   0.699750 0.279951 0.276845 -0.717546
H63   H     H_    0.645547 0.196246 0.233063 0.222890
H64   H     H_    0.712311 0.304222 0.346506 0.265168
H65   H     H_    0.761281 0.292426 0.259269 0.234792
O36   O     O_3   0.820639 0.678606 0.425174 -0.736969
H66   H     H_    0.824893 0.743696 0.452175 0.341554
N5    N     N_2   0.928752 0.677911 0.330652 -0.243045
H67   H     H_    0.942223 0.660798 0.371975 0.246462
C95   C     C_3   0.983034 0.786642 0.366757 -0.708724
H68   H     H_    0.053421 0.821361 0.400518 0.244387
H69   H     H_    0.957944 0.827004 0.415486 0.227006
H70   H     H_    0.982430 0.797584 0.312864 0.230646
N6    N     N_2   0.393585 0.225338 0.712259 -0.316372
H71   H     H_    0.445739 0.225201 0.732844 0.241584
C96   C     C_3   0.409724 0.325741 0.767705 -0.763814
H72   H     H_    0.433349 0.356803 0.838352 0.239023
H73   H     H_    0.347089 0.319647 0.754590 0.257744
H74   H     H_    0.461593 0.380267 0.755229 0.238618
O37   O     O_3   0.470243 0.144794 0.445845 -0.767044
H75   H     H_    0.447235 0.117151 0.383181 0.328726
N7    N     N_2   0.165582 0.055836 0.437590 -0.283276
H76   H     H_    0.116519 0.009263 0.451959 0.260122
C97   C     C_3   0.153058 0.130603 0.443646 -0.728785
H77   H     H_    0.083654 0.090488 0.402852 0.220690
H78   H     H_    0.200097 0.171803 0.418304 0.237380
H79   H     H_    0.163921 0.187396 0.513477 0.251868
O38   O     O_3   0.211626 0.125390 0.613167 -0.784487
H80   H     H_    0.231769 0.136404 0.669561 0.358406
O39   O     O_3   0.236711 0.888072 0.316967 -0.740480
H81   H     H_    0.290210 0.931095 0.369055 0.331661
O40   O     O_3   0.254265 0.113546 0.187668 -0.757779
H82   H     H_    0.199847 0.072064 0.137054 0.328031
N8    N     N_2   0.033374 0.873319 0.671216 -0.315650
H83   H     H_    0.067721 0.852896 0.629562 0.213743
C98   C     C_3   0.002553 0.924571 0.655072 -0.689070
H84   H     H_    0.976866 0.958202 0.707861 0.294009
H85   H     H_    0.949059 0.869271 0.589808 0.257936
H86   H     H_    0.059198 0.988069 0.654543 0.233476
N9    N     N_2   0.216300 0.299518 0.193877 -0.273313
H87   H     H_    0.226984 0.275583 0.230364 0.264712
C99   C     C_3   0.260494 0.286041 0.127487 -0.687739
H88   H     H_    0.330219 0.315190 0.156734 0.254665
H89   H     H_    0.261897 0.324950 0.097120 0.247173
H90   H     H_    0.224165 0.202517 0.074195 0.238968
N10   N     N_2   0.835420 0.504670 0.545194 -0.249429
H91   H     H_    0.781183 0.448491 0.547238 0.231610
C100  C     C_3   0.900244 0.481268 0.519275 -0.776512
H92   H     H_    0.941615 0.496365 0.575435 0.227194
H93   H     H_    0.944314 0.527116 0.495777 0.236759
H94   H     H_    0.864570 0.398544 0.463838 0.241636
N11   N     N_2   0.979816 0.920241 0.827759 -0.273149
H95   H     H_    0.944446 0.929851 0.871429 0.238415
C101  C     C_3   0.076093 0.987612 0.871043 -0.779538
H96   H     H_    0.091801 0.009109 0.939671 0.226783
H97   H     H_    0.103307 0.058879 0.874166 0.245482
H98   H     H_    0.110205 0.950943 0.835828 0.242968
O41   O     O_3   0.932106 0.582027 0.766495 -0.755991
H99   H     H_    0.948330 0.595638 0.721580 0.323769
O42   O     O_3   0.518005 0.076517 0.693886 -0.762494
H100  H     H_    0.533631 0.064378 0.639328 0.358254
N12   N     N_2   0.485340 0.145596 0.855778 -0.286225
H101  H     H_    0.499209 0.177300 0.922661 0.217532
C102  C     C_3   0.390827 0.088630 0.810786 -0.771354
H102  H     H_    0.351204 0.033712 0.828144 0.228090
H103  H     H_    0.375397 0.043734 0.737861 0.280338
H104  H     H_    0.370336 0.142238 0.831303 0.239459
N13   N     N_2   0.120924 0.303770 0.084039 -0.279040
H105  H     H_    0.150912 0.324986 0.044356 0.250159
C103  C     C_3   0.030116 0.212071 0.039357 -0.760351
H106  H     H_    0.023805 0.155723 0.971571 0.248249
H107  H     H_    0.982671 0.232052 0.034732 0.222871
H108  H     H_    0.013140 0.175312 0.075300 0.246671
O43   O     O_3   0.384414 0.580591 0.955947 -0.777631
H109  H     H_    0.437127 0.611399 0.003551 0.329329
N14   N     N_2   0.299956 0.279344 0.953721 -0.312487
H110  H     H_    0.261431 0.199827 0.913598 0.224658
C104  C     C_3   0.391677 0.325557 0.998899 -0.830137
H111  H     H_    0.394303 0.273553 0.011707 0.245303
H112  H     H_    0.418492 0.399622 0.063924 0.240707
H113  H     H_    0.433937 0.337983 0.957474 0.247228
N15   N     N_2   0.133136 0.238617 0.715610 -0.269442
H114  H     H_    0.140558 0.268181 0.679039 0.234626
C105  C     C_3   0.041526 0.178725 0.710358 -0.750125
H115  H     H_    0.997026 0.126935 0.640608 0.244413
H116  H     H_    0.033069 0.130438 0.733467 0.235394
H117  H     H_    0.022224 0.231231 0.751837 0.247935

loop_
_geom_bond_atom_site_label_1
_geom_bond_atom_site_label_2
_ccdc_geom_bond_type
C103  H108  S    
C66   C68   A    
O27   H45   S    
C101  H97   S    
C9    H8    S    
O20   Zn1   S    
C7    O27   S    
N15   C105  S    
N8    C98   S    
C41   C42   A    
C77   O43   S    
C102  H103  S    
C35   C36   A    
N6    H71   S    
C87   O10   A    
C6    H40   S    
C2    H39   S    
C72   C85   S    
C8    O29   S    
C7    C8    S    
C91   H43   S    
O6    Zn6   S    
N2    H50   S    
C17   O34   S    
O10   Zn7   S    
C7    C11   S    
C94   H64   S    
C100  H92   S    
N1    H41   S    
C13   C15   S    
C87   O17   A    
C65   H31   S    
C21   C22   S    
C28   C29   A    
C97   H77   S    
C46   N10   S    
C105  H117  S    
O17   Zn8   S    
N6    C96   S    
C18   H12   S    
N11   H95   S    
C31   C32   A    
C74   H35   S    
C69   H33   S    
C96   H74   S    
C103  H106  S    
C22   N5    S    
C7    O28   S    
O11   Zn6   S    
C19   N4    S    
C97   H79   S    
C105  H115  S    
N12   C102  S    
N9    H87   S    
C73   C74   A    
C104  H113  S    
O23   Zn2   S    
O1    Zn1   S    
C42   H22   S    
C17   H11   S    
C1    O12   A    
C33   C35   A    
C30   N6    S    
C54   C55   A    
C14   O33   S    
C99   H88   S    
C35   O40   S    
N7    H76   S    
C16   C17   S    
N3    C93   S    
C12   O5    A    
C31   O39   S    
C13   C86   S    
C48   C49   A    
N8    H83   S    
C51   C57   A    
C13   C14   S    
C29   C30   A    
C102  H102  S    
C90   O13   A    
C56   O26   A    
O41   H99   S    
C72   C73   A    
C93   H60   S    
C20   C34   S    
C2    H37   S    
C61   C62   A    
N10   C100  S    
N12   H101  S    
C101  H98   S    
C59   C60   A    
N1    C91   S    
N14   H110  S    
C67   H5    S    
N4    C94   S    
C60   N12   S    
O1    Zn4   S    
C67   C78   S    
C15   H7    S    
C82   N15   S    
C86   O16   A    
C94   H65   S    
O38   H80   S    
C44   C46   A    
C25   H16   S    
C10   O32   S    
C91   H44   S    
C4    C90   S    
O6    Zn5   S    
C84   O18   A    
C1    C36   S    
C98   H85   S    
O16   Zn5   S    
C3    C67   S    
C100  H93   S    
O5    Zn3   S    
C74   C75   A    
C14   O31   S    
C61   H27   S    
C51   C52   A    
C33   C43   S    
O21   Zn2   S    
C12   O20   A    
C71   H34   S    
C52   C88   S    
C8    H4    S    
C4    C6    S    
C98   H86   S    
N2    C92   S    
C68   H32   S    
C15   H6    S    
N11   C101  S    
C9    C14   S    
C34   O22   A    
C68   C69   A    
C40   H20   S    
C93   H58   S    
C34   O3    A    
C99   H89   S    
C25   C26   A    
O28   H46   S    
C32   C87   S    
O25   Zn3   S    
N13   C103  S    
C77   C83   A    
C81   C82   A    
C22   H13   S    
C2    C6    S    
C60   C61   A    
C24   H14   S    
C78   N3    S    
O26   Zn1   S    
O1    Zn2   S    
C75   C76   A    
C95   H68   S    
C4    C78   S    
O37   H75   S    
N5    C95   S    
C98   H84   S    
C47   C57   S    
C92   H52   S    
C49   N11   S    
C3    C56   S    
C5    H3    S    
C47   C48   A    
O39   H81   S    
C21   C84   S    
C39   H19   S    
C70   H29   S    
C16   C20   S    
C99   H90   S    
C66   C76   S    
C54   H25   S    
C62   C63   A    
C67   H1    S    
N5    H67   S    
C26   C27   A    
C77   C79   A    
C92   H51   S    
O33   H55   S    
C58   H26   S    
O1    Zn3   S    
C9    C11   S    
C89   N1    S    
C86   O9    A    
O30   H48   S    
C45   O25   A    
C56   O24   A    
C40   C41   A    
O4    Zn2   S    
O43   H109  S    
C84   O7    A    
C82   C83   A    
C26   O37   S    
C64   C70   A    
C55   C57   A    
O14   Zn7   S    
C80   N14   S    
C49   C50   A    
C89   N9    S    
C92   H53   S    
C23   C75   S    
C45   O23   A    
C42   C43   A    
C101  H96   S    
O13   Zn8   S    
C91   H42   S    
C9    O30   S    
C52   C53   A    
C48   H24   S    
O6    Zn8   S    
C44   C50   A    
C25   C30   A    
C103  H107  S    
C23   O21   A    
C46   C47   A    
C36   C37   A    
C100  H94   S    
C95   H69   S    
C11   C12   S    
C18   C22   S    
C58   C59   A    
C19   O35   S    
C50   N8    S    
C59   O42   S    
O9    Zn6   S    
C16   H10   S    
C58   C63   A    
O12   Zn4   S    
C80   C81   A    
C79   H36   S    
C44   H23   S    
O7    Zn8   S    
C51   O41   S    
N10   H91   S    
N7    C97   S    
C16   H9    S    
C53   C54   A    
O19   Zn7   S    
O31   H49   S    
C96   H73   S    
C85   O19   A    
C5    N13   S    
O2    Zn1   S    
C64   H30   S    
N4    H62   S    
C3    C89   S    
C10   C15   S    
O3    Zn4   S    
O18   Zn6   S    
C32   C33   A    
N15   H114  S    
C19   C20   S    
N14   C104  S    
C19   C24   S    
C96   H72   S    
C104  H111  S    
C29   O38   S    
C38   C43   A    
C81   H38   S    
O29   H47   S    
C64   C65   A    
C104  H112  S    
C53   C63   S    
C71   C76   A    
O22   Zn3   S    
O15   Zn5   S    
C27   C37   S    
C28   N7    S    
C6    H2    S    
C4    C5    S    
C38   C39   A    
C97   H78   S    
C73   C83   S    
C23   O2    A    
C2    C3    S    
O8    Zn5   S    
C18   C20   S    
C18   O36   S    
C65   C66   A    
C90   O15   A    
C38   H18   S    
C69   C70   A    
O34   H56   S    
C102  H104  S    
C17   C21   S    
C62   H28   S    
C10   C11   S    
O24   Zn4   S    
C79   C80   A    
C39   C40   A    
C8    C13   S    
C31   C37   A    
O35   H61   S    
C95   H70   S    
C71   C72   A    
C45   C55   S    
C105  H116  S    
N3    H57   S    
C41   H21   S    
C21   C24   S    
C27   C28   A    
O42   H100  S    
C10   N2    S    
O36   H66   S    
C78   H17   S    
O32   H54   S    
C24   H15   S    
C94   H63   S    
N9    C99   S    
C88   O11   A    
N13   H105  S    
C85   O8    A    
C88   O14   A    
C5    C89   S    
C1    O4    A    
O40   H82   S    
C93   H59   S    
O6    Zn7   S    
