data_mof_unit_34966.cif
_audit_creation_date              2012-12-11T14:58:02-0500
_audit_creation_method            fapswitch 2.2
_symmetry_space_group_name_H-M    P1
_symmetry_Int_Tables_number       1
_space_group_crystal_system       triclinic
_cell_length_a                    6.937985
_cell_length_b                    16.928013
_cell_length_c                    16.923325
_cell_angle_alpha                 100.272279
_cell_angle_beta                  90.102217
_cell_angle_gamma                 90.037771
_cell_volume                      1955.71973944

loop_
_atom_site_label
_atom_site_type_symbol
_atom_type_description
_atom_site_fract_x
_atom_site_fract_y
_atom_site_fract_z
_atom_type_partial_charge
O1    O     O_R   0.506180 0.438940 0.579430 -0.479555
O2    O     O_R   0.170520 0.406230 0.413590 -0.546656
O3    O     O_R   0.005180 0.561060 0.420570 -0.552559
C1    C     C_R   0.340210 0.382964 0.385388 0.648653
O4    O     O_R   0.176140 0.429310 0.578370 -0.529807
O5    O     O_R   0.010830 0.584300 0.586530 -0.539416
C2    C     C_R   0.344188 0.412175 0.603922 0.787227
O6    O     O_R   0.500520 0.415700 0.413470 -0.552327
O7    O     O_3   0.340830 0.550820 0.502480 -0.376744
V1    V     V_3+5 0.064040 0.490570 0.499540 1.520478
O8    O     O_R   0.681400 0.593770 0.586410 -0.506051
C3    C     C_R   0.849314 0.610871 0.620308 0.841755
O9    O     O_R   0.675790 0.570690 0.421630 -0.551824
C4    C     C_R   0.842811 0.586430 0.394669 0.652192
V2    V     V_3+5 0.564650 0.509430 0.500460 1.555232
O10   O     O_3   0.837730 0.449180 0.497520 -0.352670
C5    C     C_R   0.927537 0.860609 0.166860 -0.065882
C6    C     C_R   0.839066 0.639251 0.332933 -0.060922
C7    C     C_R   0.650947 0.695725 0.233732 -0.199340
C8    C     C_R   0.671151 0.640980 0.286013 -0.162321
C9    C     C_R   0.989223 0.693039 0.324970 -0.247025
C10   C     C_R   0.968867 0.749039 0.272715 0.159004
C11   C     C_R   0.797917 0.750718 0.226966 0.158775
C12   C     C_R   0.777480 0.806766 0.174770 -0.245339
C13   C     C_R   0.095541 0.858827 0.213714 -0.156504
C14   C     C_R   0.115831 0.804036 0.265946 -0.196302
H1    H     H_    0.648322 0.806648 0.138596 0.124965
H2    H     H_    0.213856 0.899590 0.209247 0.127942
H3    H     H_    0.519150 0.695539 0.199220 0.124665
H4    H     H_    0.247634 0.804221 0.300454 0.125158
H5    H     H_    0.552795 0.600240 0.290493 0.125125
H6    H     H_    0.118329 0.693192 0.361186 0.120925
H7    H     H_    0.905010 0.645748 0.000160 0.139517
C15   C     C_R   0.057082 0.888253 0.720086 0.001161
C16   C     C_R   0.095594 0.896509 0.641251 -0.016551
C17   C     C_R   0.039211 0.836807 0.578145 -0.155329
C18   C     C_R   0.954160 0.766619 0.593800 -0.152961
C19   C     C_R   0.922460 0.754803 0.673761 0.052799
C20   C     C_R   0.961056 0.819813 0.737477 0.053113
C21   C     C_R   0.862113 0.678950 0.690501 -0.171298
C22   C     C_R   0.851297 0.668266 0.773642 -0.023235
C23   C     C_R   0.882365 0.736809 0.835899 0.028837
C24   C     C_R   0.913696 0.813648 0.817220 -0.145446
C25   C     C_R   0.817839 0.592932 0.799804 0.405197
C26   C     C_R   0.850727 0.585688 0.880009 -0.157076
C27   C     C_R   0.887734 0.652126 0.937986 -0.182191
C28   C     C_R   0.894528 0.727163 0.917094 -0.134578
H8    H     H_    0.108914 0.934875 0.767414 0.165208
H9    H     H_    0.168008 0.949756 0.629158 0.154051
H10   H     H_    0.065711 0.843969 0.516787 0.132577
H11   H     H_    0.917675 0.721349 0.542393 0.097561
H12   H     H_    0.835400 0.528623 0.899675 0.149634
H13   H     H_    0.920271 0.777143 0.965428 0.100005
H14   H     H_    0.970262 0.436832 0.152224 0.116832
C29   C     C_R   0.582554 0.244870 0.395327 -0.135376
C30   C     C_R   0.713619 0.183786 0.400017 -0.072005
C31   C     C_R   0.736562 0.121173 0.335808 -0.120434
C32   C     C_R   0.632428 0.120476 0.265411 -0.153978
C33   C     C_R   0.509191 0.185041 0.256240 0.068181
C34   C     C_R   0.482184 0.248593 0.323043 0.063874
C35   C     C_R   0.411970 0.186506 0.182667 -0.180638
C36   C     C_R   0.292102 0.253066 0.175487 0.070473
C37   C     C_R   0.263007 0.316169 0.242559 0.067996
C38   C     C_R   0.356351 0.313767 0.316928 -0.177088
C39   C     C_R   0.204994 0.259644 0.101089 -0.126321
C40   C     C_R   0.088545 0.324786 0.093406 -0.119564
C41   C     C_R   0.058985 0.385781 0.158752 -0.123059
C42   C     C_R   0.146437 0.382318 0.232172 -0.148783
H15   H     H_    0.562639 0.288801 0.449317 0.113982
H16   H     H_    0.797043 0.184962 0.454044 0.193216
H17   H     H_    0.834718 0.072565 0.340694 0.132337
H18   H     H_    0.652063 0.068799 0.218650 0.120485
H19   H     H_    0.228726 0.215673 0.047344 0.100280
H20   H     H_    0.023150 0.328474 0.036036 0.110481
H21   H     H_    0.123249 0.432984 0.279778 0.115940
C43   C     C_R   0.419283 0.135555 0.829521 -0.240601
C44   C     C_R   0.345957 0.360794 0.666726 -0.031141
C45   C     C_R   0.201742 0.324310 0.786452 -0.044742
C46   C     C_R   0.214413 0.375712 0.730534 0.000405
C47   C     C_R   0.468391 0.294115 0.660934 -0.084645
C48   C     C_R   0.461906 0.242362 0.718484 -0.078089
C49   C     C_R   0.321809 0.256824 0.780389 0.105534
C50   C     C_R   0.305634 0.204872 0.836483 -0.253471
C51   C     C_R   0.548689 0.117522 0.764052 0.354352
C52   C     C_R   0.587554 0.175597 0.714794 0.352313
H22   H     H_    0.205419 0.218697 0.886120 0.138207
H23   H     H_    0.096523 0.337116 0.834271 0.091441
H24   H     H_    0.120795 0.427475 0.737146 0.147540
H25   H     H_    0.559361 0.280950 0.608555 0.169091
O11   O     O_R   0.265840 0.084300 0.086750 -0.546440
O12   O     O_R   0.589750 0.070740 0.921690 -0.507603
O13   O     O_R   0.755020 0.915730 0.913400 -0.499993
C53   C     C_R   0.421079 0.086906 0.895205 0.830281
O14   O     O_R   0.595830 0.093740 0.086480 -0.549053
O15   O     O_R   0.761150 0.938890 0.079360 -0.549818
C54   C     C_R   0.426453 0.117002 0.114665 0.657673
O16   O     O_R   0.259710 0.061140 0.920790 -0.532729
O17   O     O_3   0.425260 0.949200 0.997610 -0.372749
V3    V     V_3+5 0.702060 0.009430 0.000450 1.531159
O18   O     O_R   0.090530 0.929220 0.078150 -0.548031
C55   C     C_R   0.923595 0.913544 0.105228 0.660674
O19   O     O_R   0.084440 0.906220 0.913360 -0.550477
C56   C     C_R   0.917340 0.885533 0.882845 0.780291
V4    V     V_3+5 0.201450 0.990520 0.999290 1.476294
O20   O     O_3   0.928380 0.050800 0.002390 -0.366661
S1    S     S_3+6 0.687361 0.512538 0.745021 -0.061625
O21   O     O_2   0.509606 0.547094 0.713641 -0.346865
O22   O     O_2   0.806742 0.468278 0.677415 -0.367927
O23   O     O_3   0.618237 0.447373 0.804017 -0.520640
H26   H     H_    0.722237 0.406736 0.799543 0.337831
S2    S     S_3+6 0.654156 0.020564 0.743434 0.014463
O24   O     O_2   0.835053 0.024219 0.792469 -0.332238
O25   O     O_2   0.520174 0.959406 0.768076 -0.393498
O26   O     O_3   0.705623 0.992341 0.645364 -0.456190
H27   H     H_    0.670982 0.934727 0.631973 0.352658
S3    S     S_3+6 0.803163 0.169559 0.656121 0.016728
O27   O     O_2   0.759091 0.123916 0.573644 -0.335054
O28   O     O_2   0.875882 0.251869 0.649752 -0.364691
O29   O     O_3   0.980460 0.122440 0.697105 -0.449613
H28   H     H_    0.089102 0.119297 0.658769 0.358968

loop_
_geom_bond_atom_site_label_1
_geom_bond_atom_site_label_2
_ccdc_geom_bond_type
C45   H23   S    
C29   C30   A    
C6    C9    A    
C22   C23   A    
C4    C6    S    
O2    C1    A    
C7    C8    A    
C12   H1    S    
C1    O6    A    
C43   C51   A    
O26   H27   S    
C35   C54   S    
C26   C27   A    
C30   C31   A    
C13   H2    S    
C36   C37   A    
C17   C18   A    
O5    C3    A    
C19   C20   A    
O19   V4    S    
O17   V3    S    
O15   V3    S    
S1    O21   D    
V2    O10   S    
C40   H20   S    
O18   V4    S    
C39   H19   S    
S3    O27   D    
C15   C16   A    
C47   H25   S    
C5    C55   S    
C46   H24   S    
O13   C56   A    
C37   C42   A    
O8    V2    S    
S2    O24   D    
C16   H9    S    
C11   C12   A    
O1    V2    S    
O9    C4    A    
O7    V1    S    
C2    C44   S    
C40   C41   A    
C33   C34   A    
C29   C34   A    
H7    C27   S    
C35   C36   A    
C43   C50   A    
V4    O20   S    
C48   C49   A    
C44   C46   A    
V3    O20   S    
C9    H6    S    
C33   C35   A    
C5    C12   A    
C15   C20   A    
C51   S2    S    
C51   C52   A    
O4    C2    A    
C45   C46   A    
C20   C24   A    
H14   C41   S    
C26   H12   S    
C32   C33   A    
C41   C42   A    
C42   H21   S    
C16   C17   A    
C3    C21   S    
C7    C11   A    
C18   C19   A    
C43   C53   S    
O12   C53   A    
C45   C49   A    
O29   H28   S    
S2    O25   D    
C31   H17   S    
O14   C54   A    
O11   V4    S    
C29   H15   S    
O3    C4    A    
C21   C22   A    
C14   H4    S    
O6    V2    S    
C30   H16   S    
O9    V2    S    
C8    H5    S    
C22   C25   A    
C15   H8    S    
C23   C24   A    
O2    V1    S    
C53   O16   A    
C17   H10   S    
C25   C26   A    
C44   C47   A    
C27   C28   A    
C36   C39   A    
O1    C2    A    
C52   S3    S    
C47   C48   A    
O5    V1    S    
O8    C3    A    
O11   C54   A    
C25   S1    S    
C1    C38   S    
S3    O29   S    
C28   H13   S    
C34   C38   A    
C5    C13   A    
C13   C14   A    
O4    V1    S    
O3    V1    S    
V1    O10   S    
O23   H26   S    
C19   C21   A    
C32   H18   S    
C31   C32   A    
S1    O22   D    
O14   V3    S    
C18   H11   S    
O18   C55   A    
S3    O28   D    
S2    O26   S    
C6    C8    A    
C23   C28   A    
C39   C40   A    
O7    V2    S    
O19   C56   A    
C24   C56   S    
O16   V4    S    
C37   C38   A    
C50   H22   S    
C49   C50   A    
C10   C14   A    
C10   C11   A    
O12   V3    S    
C9    C10   A    
O17   V4    S    
C48   C52   A    
O15   C55   A    
O13   V3    S    
S1    O23   S    
C7    H3    S    
