data_mof_unit_42549.cif
_audit_creation_date              2013-03-05T15:49:56-0500
_audit_creation_method            fapswitch 2.2
_symmetry_space_group_name_H-M    P1
_symmetry_Int_Tables_number       1
_space_group_crystal_system       triclinic
_cell_length_a                    13.554401
_cell_length_b                    13.617183
_cell_length_c                    27.677238
_cell_angle_alpha                 90.462747
_cell_angle_beta                  89.972782
_cell_angle_gamma                 119.809087
_cell_volume                      4432.36457905

loop_
_atom_site_label
_atom_site_type_symbol
_atom_site_description
_atom_site_fract_x
_atom_site_fract_y
_atom_site_fract_z
_atom_type_partial_charge
O1    O     O_R   0.302900 0.805360 0.446400 -0.480683
O2    O     O_R   0.522090 0.841370 0.450730 -0.469559
C1    C     C_R   0.619465 0.899010 0.431147 0.570740
O3    O     O_R   0.693280 0.995650 0.447220 -0.477647
O4    O     O_R   0.657260 0.178740 0.451050 -0.492166
C2    C     C_R   0.599980 0.218725 0.431451 0.615259
O5    O     O_R   0.502640 0.195380 0.446850 -0.395840
O6    O     O_R   0.319630 0.976590 0.450330 -0.500502
C3    C     C_R   0.279890 0.879069 0.430499 0.537927
O7    O     O_R   0.303680 0.807790 0.552740 -0.514564
O8    O     O_R   0.522820 0.843620 0.549310 -0.473426
C4    C     C_R   0.619529 0.901976 0.569612 0.567171
O9    O     O_R   0.694060 0.998080 0.553560 -0.509430
O10   O     O_R   0.657980 0.180990 0.549630 -0.530112
C5    C     C_R   0.604244 0.228218 0.566735 0.723077
O11   O     O_R   0.503420 0.197810 0.553190 -0.303768
O12   O     O_R   0.320350 0.978840 0.548910 -0.506426
C6    C     C_R   0.278674 0.881055 0.567597 0.540121
Cr1   Cr    Cr6+3 0.417720 0.831920 0.499820 1.133527
Cr2   Cr    Cr6+3 0.668190 0.085770 0.500360 1.103672
Cr3   Cr    Cr6+3 0.414060 0.082260 0.499840 1.247280
O13   O     O_3   0.499990 0.999990 0.500010 -0.339385
C7    C     C_1   0.631527 0.264405 0.383987 0.116904
C8    C     C_R   0.741871 0.290557 0.264566 0.165469
C9    C     C_R   0.751086 0.306814 0.214002 0.173078
C10   C     C_R   0.612090 0.371535 0.217319 0.212987
C11   C     C_R   0.596533 0.347743 0.266998 0.179158
C12   C     C_R   0.663711 0.310360 0.290774 -0.071489
C13   C     C_R   0.685638 0.346748 0.190613 -0.051286
C14   C     C_1   0.693331 0.364553 0.139056 0.054793
C15   C     C_1   0.649940 0.290035 0.342083 0.105580
C16   C     C_1   0.701006 0.389612 0.097028 0.043236
C17   C     C_1   0.230785 0.862014 0.383074 0.070812
C18   C     C_R   0.240034 0.933825 0.260943 -0.137468
C19   C     C_R   0.225572 0.926757 0.210024 0.288612
C20   C     C_R   0.075546 0.730873 0.219176 -0.137308
C21   C     C_R   0.088614 0.738058 0.269658 0.245421
C22   C     C_R   0.172720 0.840973 0.290535 0.009575
C23   C     C_R   0.143440 0.823278 0.189671 0.009626
C24   C     C_1   0.122773 0.810795 0.138178 0.017546
C25   C     C_1   0.200312 0.851265 0.341444 0.062650
C26   C     C_1   0.096089 0.793228 0.096060 0.022738
H1    H     H_    0.305443 0.010324 0.278080 0.118452
H2    H     H_    0.011098 0.652725 0.202553 0.166896
C27   C     C_1   0.634470 0.868643 0.383150 0.103993
C28   C     C_R   0.576782 0.852441 0.258580 0.266149
C29   C     C_R   0.579693 0.835641 0.208134 0.300206
C30   C     C_R   0.739485 0.804566 0.220003 -0.173691
C31   C     C_R   0.733718 0.814395 0.270221 0.182137
C32   C     C_R   0.651250 0.838030 0.289589 0.018285
C33   C     C_R   0.663681 0.815033 0.189146 -0.029922
C34   C     C_1   0.673692 0.802118 0.137974 0.006407
C35   C     C_1   0.643193 0.851489 0.341000 0.116704
C36   C     C_1   0.690669 0.789166 0.096300 0.015353
H3    H     H_    0.803634 0.788132 0.204737 0.153182
C37   C     C_R   0.649520 0.300681 0.610002 0.075122
C38   C     C_R   0.745820 0.309338 0.633214 0.168999
C39   C     C_R   0.759414 0.330615 0.683084 0.142041
C40   C     C_R   0.674810 0.340898 0.709290 -0.071432
C41   C     C_R   0.588410 0.348744 0.684381 0.075836
C42   C     C_R   0.582842 0.338996 0.633908 0.319993
C43   C     C_R   0.585672 0.291981 0.791573 -0.096052
C44   C     C_R   0.592234 0.311249 0.842190 0.241573
C45   C     C_R   0.796703 0.439512 0.832641 0.201647
C46   C     C_R   0.784555 0.429865 0.783288 -0.050791
C47   C     C_R   0.681367 0.354066 0.762224 0.036060
C48   C     C_R   0.699158 0.387882 0.862226 0.051168
H4    H     H_    0.507201 0.230721 0.774459 0.112431
H5    H     H_    0.858339 0.480721 0.761666 0.155242
C49   C     C_R   0.244095 0.871389 0.617424 -0.031877
C50   C     C_R   0.130652 0.826622 0.631658 0.252028
C51   C     C_R   0.105994 0.820235 0.681109 0.292681
C52   C     C_R   0.194788 0.855806 0.715687 0.021447
C53   C     C_R   0.308692 0.903490 0.700969 0.212539
C54   C     C_R   0.331505 0.909012 0.651512 -0.181252
C55   C     C_R   0.202827 0.778268 0.795482 -0.113702
C56   C     C_R   0.175797 0.759941 0.844629 0.200359
C57   C     C_R   0.077743 0.868441 0.837179 -0.154252
C58   C     C_R   0.111864 0.892746 0.789354 0.297671
C59   C     C_R   0.168844 0.841938 0.767587 0.027575
C60   C     C_R   0.105223 0.798762 0.864721 -0.026827
H6    H     H_    0.251305 0.743540 0.778790 0.188638
H7    H     H_    0.025489 0.900995 0.851946 0.162187
H8    H     H_    0.417877 0.941959 0.638962 0.091531
C61   C     C_R   0.631771 0.870218 0.618836 0.005999
C62   C     C_R   0.532409 0.809583 0.646188 -0.139088
C63   C     C_R   0.538562 0.798668 0.695504 -0.120090
C64   C     C_R   0.644080 0.845993 0.718494 0.060154
C65   C     C_R   0.745195 0.902838 0.691713 0.327543
C66   C     C_R   0.738951 0.912668 0.641207 0.231960
C67   C     C_R   0.691069 0.914900 0.803700 0.271810
C68   C     C_R   0.709987 0.892730 0.851327 -0.164819
C69   C     C_R   0.610150 0.690259 0.834265 0.243098
C70   C     C_R   0.604724 0.712340 0.785416 0.182448
C71   C     C_R   0.647212 0.824648 0.770103 0.027849
C72   C     C_R   0.673405 0.782064 0.866235 -0.046195
H9    H     H_    0.448896 0.774884 0.629920 0.175491
H10   H     H_    0.756662 0.961587 0.876637 0.134282
H11   H     H_    0.460634 0.753439 0.715997 0.174181
O14   O     O_R   0.819150 0.845650 0.033320 -0.492746
O15   O     O_R   0.006060 0.815720 0.028680 -0.492290
C73   C     C_R   0.049027 0.760822 0.048276 0.552055
O16   O     O_R   0.028100 0.664460 0.032550 -0.490733
O17   O     O_R   0.811290 0.477490 0.029660 -0.492790
C74   C     C_R   0.714029 0.435206 0.049513 0.538447
O18   O     O_R   0.638120 0.455970 0.034270 -0.506289
O19   O     O_R   0.667540 0.672320 0.030160 -0.505421
C75   C     C_R   0.722966 0.771029 0.049220 0.542271
O20   O     O_R   0.814460 0.840990 0.926980 -0.522161
O21   O     O_R   0.001710 0.811400 0.930110 -0.520596
C76   C     C_R   0.045533 0.756794 0.910861 0.608247
O22   O     O_R   0.023410 0.659800 0.926210 -0.428357
O23   O     O_R   0.806940 0.473170 0.931090 -0.477392
C77   C     C_R   0.709445 0.430864 0.911676 0.610810
O24   O     O_R   0.633420 0.451310 0.927930 -0.455620
O25   O     O_R   0.663190 0.668000 0.931580 -0.468305
C78   C     C_R   0.716936 0.764663 0.911897 0.571061
Cr4   Cr    Cr6+3 0.908000 0.821090 0.979770 1.047459
Cr5   Cr    Cr6+3 0.912420 0.571130 0.979880 1.095285
Cr6   Cr    Cr6+3 0.657970 0.566940 0.980940 1.064435
O26   O     O_3   0.826130 0.653050 0.980200 -0.275608
N1    N     N_R   0.813420 0.256147 0.289114 0.123710
O27   O     O_R   0.921079 0.303401 0.278843 -0.179590
O28   O     O_R   0.771636 0.177113 0.321541 -0.350169
O29   O     O_3   0.505377 0.845994 0.177157 -0.550548
C79   C     C_3   0.400018 0.744508 0.177965 -0.077882
H12   H     H_    0.359223 0.730067 0.214066 0.170240
H13   H     H_    0.409380 0.670675 0.167017 0.122571
H14   H     H_    0.342095 0.751203 0.151579 0.160373
N2    N     N_R   0.811779 0.799803 0.300525 0.108245
O30   O     O_R   0.850814 0.857542 0.340463 -0.271945
O31   O     O_R   0.851947 0.735448 0.286097 -0.308689
O32   O     O_3   0.829673 0.305329 0.605774 -0.509160
C80   C     C_3   0.840991 0.210904 0.618150 0.012024
H15   H     H_    0.761845 0.138910 0.633133 0.081324
H16   H     H_    0.912762 0.236488 0.643665 0.176380
H17   H     H_    0.863906 0.180560 0.585057 0.195223
O33   O     O_3   0.501305 0.255817 0.874135 -0.550866
C81   C     C_3   0.393880 0.200853 0.851453 -0.118602
H18   H     H_    0.327623 0.173835 0.879736 0.146700
H19   H     H_    0.380345 0.123034 0.832288 0.123533
H20   H     H_    0.382360 0.258850 0.826978 0.119267
N3    N     N_R   0.858500 0.340545 0.706432 0.049063
O34   O     O_R   0.848627 0.271236 0.740537 -0.412962
O35   O     O_R   0.959351 0.417532 0.692667 -0.347415
O36   O     O_3   0.904181 0.508223 0.851460 -0.554267
C82   C     C_3   0.963357 0.447278 0.850425 -0.062144
H21   H     H_    0.911857 0.360237 0.865199 0.092810
H22   H     H_    0.039805 0.491748 0.873668 0.199233
H23   H     H_    0.991923 0.443608 0.813123 0.172115
O37   O     O_3   0.520111 0.380582 0.709617 -0.478006
C83   C     C_3   0.403821 0.299264 0.703751 -0.082445
H24   H     H_    0.387816 0.211854 0.696634 0.023754
H25   H     H_    0.365574 0.325088 0.674585 0.173879
H26   H     H_    0.359086 0.296955 0.737622 0.151979
N4    N     N_R   0.823507 0.278610 0.186344 0.119734
O38   O     O_R   0.816870 0.180598 0.191529 -0.279798
O39   O     O_R   0.895272 0.350001 0.155486 -0.304885
N5    N     N_R   0.511803 0.371486 0.608016 1.335301
O40   O     O_R   0.540306 0.417676 0.565593 -1.448186
O41   O     O_R   0.540306 0.417676 0.565593 -1.448186
O42   O     O_3   0.043892 0.795454 0.598243 -0.584449
C84   C     C_3   0.019654 0.692753 0.575255 -0.062075
H27   H     H_    0.928408 0.646894 0.564929 0.228156
H28   H     H_    0.034657 0.635035 0.598642 0.132880
H29   H     H_    0.069596 0.710176 0.541498 0.158135
N6    N     N_R   0.223107 0.705743 0.873490 0.078723
O43   O     O_R   0.257480 0.641622 0.853086 -0.395440
O44   O     O_R   0.250184 0.735511 0.918477 -0.323860
O45   O     O_3   0.995660 0.784663 0.695499 -0.490001
C85   C     C_3   0.939178 0.666921 0.702625 -0.050167
H30   H     H_    0.989953 0.640933 0.725316 0.105867
H31   H     H_    0.917497 0.620721 0.667547 0.163910
H32   H     H_    0.858203 0.642074 0.721679 0.189346
O46   O     O_3   0.082020 0.959755 0.762979 -0.491514
C86   C     C_3   0.170250 0.072823 0.767503 -0.128829
H33   H     H_    0.254777 0.082365 0.758714 0.101239
H34   H     H_    0.171021 0.106041 0.804409 0.097219
H35   H     H_    0.154964 0.125157 0.741406 0.130741
O47   O     O_3   0.393441 0.936916 0.736072 -0.575125
C87   C     C_3   0.495000 0.035146 0.722861 -0.109230
H36   H     H_    0.479063 0.098656 0.704788 0.072165
H37   H     H_    0.548386 0.013210 0.699787 0.127534
H38   H     H_    0.544161 0.075055 0.756129 0.165199
O48   O     O_3   0.545113 0.406956 0.193937 -0.544206
C88   C     C_3   0.608379 0.525559 0.188719 -0.055311
H39   H     H_    0.550145 0.555485 0.176266 0.149211
H40   H     H_    0.675955 0.550340 0.161098 0.098485
H41   H     H_    0.646787 0.569466 0.223533 0.173411
O49   O     O_3   0.722719 0.023335 0.787475 -0.557292
C89   C     C_3   0.710775 0.090633 0.823654 -0.100151
H42   H     H_    0.786205 0.128854 0.847914 0.121156
H43   H     H_    0.630547 0.042709 0.844505 0.126408
H44   H     H_    0.707064 0.161612 0.806301 0.165415
N7    N     N_R   0.563440 0.621107 0.750888 0.117425
O50   O     O_R   0.628105 0.624099 0.715502 -0.249444
O51   O     O_R   0.459168 0.538255 0.753079 -0.313331
O52   O     O_3   0.571039 0.579734 0.848321 -0.517785
C90   C     C_3   0.460455 0.536576 0.867227 -0.028007
H45   H     H_    0.400137 0.535135 0.839670 0.173782
H46   H     H_    0.459776 0.585731 0.899406 0.134199
H47   H     H_    0.429056 0.448151 0.878803 0.151402
O53   O     O_3   0.848429 0.939318 0.714872 -0.501935
C91   C     C_3   0.914517 0.058493 0.713218 -0.004588
H48   H     H_    0.863509 0.101540 0.709138 0.155863
H49   H     H_    0.977484 0.084011 0.683566 0.157201
H50   H     H_    0.961663 0.089256 0.747808 0.167293
O54   O     O_3   0.837449 0.966973 0.614353 -0.610171
C92   C     C_3   0.862205 0.884649 0.596277 0.000454
H51   H     H_    0.794986 0.825406 0.570796 0.189186
H52   H     H_    0.873697 0.836751 0.626076 0.225444
H53   H     H_    0.943195 0.928128 0.575970 0.184488
N8    N     N_R   0.509508 0.357674 0.292782 0.118048
O55   O     O_R   0.437300 0.274979 0.319591 -0.325193
O56   O     O_R   0.497191 0.445749 0.287262 -0.257210
O57   O     O_3   0.292720 0.014003 0.178319 -0.564439
C93   C     C_3   0.341259 0.122534 0.199724 -0.054939
H54   H     H_    0.415853 0.139223 0.222250 0.108216
H55   H     H_    0.277904 0.134267 0.220863 0.170860
H56   H     H_    0.372621 0.186184 0.170525 0.196428
N9    N     N_R   0.016850 0.640409 0.298536 0.121954
O58   O     O_R   0.996434 0.651213 0.343630 -0.249038
O59   O     O_R   0.962641 0.540434 0.278566 -0.292156
O60   O     O_3   0.498239 0.878005 0.278527 -0.575260
C94   C     C_3   0.522357 0.986882 0.263902 -0.077932
H57   H     H_    0.473134 0.980489 0.230870 0.183507
H58   H     H_    0.614394 0.046079 0.257453 0.170173
H59   H     H_    0.495173 0.024727 0.292967 0.119229

loop_
_geom_bond_atom_site_label_1
_geom_bond_atom_site_label_2
_geom_bond_distance
_ccdc_geom_bond_type
C6    C49   1.442151 S    
C30   H3    1.084529 S    
O53   C91   1.412067 S    
C69   C70   1.397293 A    
C50   O42   1.384500 S    
C52   C53   1.406483 A    
C19   C23   1.403683 A    
C76   O22   1.276728 A    
C85   H30   1.113297 S    
O60   C94   1.412990 S    
O21   Cr4   1.918837 S    
C80   H17   1.107855 S    
C77   O24   1.274582 A    
C91   H49   1.109850 S    
C68   H10   1.081738 S    
N6    O44   1.301422 A    
O4    Cr2   1.924016 S    
C61   C62   1.404345 A    
C37   C38   1.406055 A    
C93   H56   1.108924 S    
C4    O9    1.274799 A    
C85   H31   1.109655 S    
O8    Cr1   1.924486 S    
C10   C11   1.406768 A    
N9    O58   1.301185 A    
C20   C23   1.400601 A    
C4    C61   1.466855 S    
O15   Cr4   1.924684 S    
N4    O38   1.301409 A    
C82   H22   1.106667 S    
C48   C77   1.463301 S    
O36   C82   1.412195 S    
C69   O52   1.383295 S    
C42   N5    1.437284 S    
C40   C47   1.471906 S    
O4    C2    1.272398 A    
C10   O48   1.384404 S    
C54   H8    1.082795 S    
O45   C85   1.407201 S    
N3    O34   1.299354 A    
C87   H36   1.112497 S    
C68   C72   1.397851 A    
C92   H53   1.109097 S    
C28   O60   1.387122 S    
O25   C78   1.271976 A    
C18   C19   1.418871 A    
C31   C32   1.412346 A    
C62   H9    1.082871 S    
O21   C76   1.273578 A    
C82   H21   1.115468 S    
C92   H52   1.113431 S    
O23   Cr5   1.929659 S    
C39   N3    1.434763 S    
C30   C33   1.397790 A    
C60   C76   1.470740 S    
O54   C92   1.408682 S    
C90   H47   1.109163 S    
O37   C83   1.413891 S    
N5    O41   1.301315 A    
C8    C9    1.414390 A    
C29   O29   1.383304 S    
C49   C50   1.400921 A    
C8    C12   1.414682 A    
C19   O57   1.396723 S    
C67   C68   1.406498 A    
O17   Cr5   1.921449 S    
C45   O36   1.380818 S    
C24   C26   1.206964 T    
C64   C71   1.464794 S    
C27   C35   1.205159 T    
C40   C41   1.408730 A    
Cr3   O13   1.977129 S    
C9    N4    1.437515 S    
C3    C17   1.435993 S    
C38   O32   1.389883 S    
C73   O16   1.269858 A    
O14   Cr4   2.037060 S    
C26   C73   1.436060 S    
O17   C74   1.273241 A    
C85   H32   1.109213 S    
O15   C73   1.277456 A    
C34   C36   1.204668 T    
O20   Cr4   2.040942 S    
O12   C6    1.273838 A    
C63   H11   1.083976 S    
Cr5   O26   1.977236 S    
C9    C13   1.409806 A    
C67   O49   1.395255 S    
C44   C48   1.408790 A    
O1    Cr1   2.042760 S    
C32   C35   1.444213 S    
O14   C75   1.270999 A    
C53   C54   1.397526 A    
C43   C47   1.406008 A    
O20   C78   1.276498 A    
C33   C34   1.440411 S    
C45   C48   1.413145 A    
C58   O46   1.380994 S    
C72   C78   1.464935 S    
C82   H23   1.111902 S    
O1    C3    1.271573 A    
C55   C56   1.400300 A    
C22   C25   1.445724 S    
C92   H51   1.113076 S    
C87   H37   1.109976 S    
C55   H6    1.083496 S    
C23   C24   1.444881 S    
C57   C58   1.389177 A    
O6    C3    1.277572 A    
C80   H16   1.107304 S    
C79   H14   1.109440 S    
C93   H54   1.110172 S    
N8    O55   1.301378 A    
C1    C27   1.432341 S    
O42   C84   1.413353 S    
O12   Cr3   1.921440 S    
C70   N7    1.435241 S    
C41   C42   1.400695 A    
Cr4   O26   1.985806 S    
C51   O45   1.382791 S    
C21   C22   1.413003 A    
N2    O31   1.300897 A    
C89   H43   1.114168 S    
O49   C89   1.414630 S    
C13   C14   1.444360 S    
O10   Cr2   1.926039 S    
N5    O40   1.301315 A    
O10   C5    1.276205 A    
C83   H26   1.108358 S    
C56   C60   1.414663 A    
O7    Cr1   2.035493 S    
C81   H18   1.109113 S    
O57   C93   1.409780 S    
C84   H29   1.109382 S    
C43   C44   1.417861 A    
C8    N1    1.441970 S    
C94   H57   1.109105 S    
C64   C65   1.407319 A    
O52   C90   1.412190 S    
C10   C13   1.408498 A    
C66   O54   1.381328 S    
C30   C31   1.401109 A    
C65   O53   1.385724 S    
C83   H25   1.109160 S    
O24   Cr6   2.045672 S    
C69   C72   1.413522 A    
C16   C74   1.431814 S    
O29   C79   1.409973 S    
C44   O33   1.398335 S    
C58   C59   1.400777 A    
C20   H2    1.084181 S    
C56   N6    1.440325 S    
O19   C75   1.278412 A    
C88   H40   1.110627 S    
C94   H59   1.109168 S    
O19   Cr6   1.927511 S    
N6    O43   1.301768 A    
Cr6   O26   1.978311 S    
C62   C63   1.381238 A    
C90   H46   1.112593 S    
O23   C77   1.267162 A    
C74   O18   1.268127 A    
C87   H38   1.104357 S    
C89   H42   1.110410 S    
N3    O35   1.301525 A    
C28   C29   1.416722 A    
C86   H33   1.113979 S    
C79   H13   1.113848 S    
O9    Cr2   2.040106 S    
O18   Cr6   2.041051 S    
O2    Cr1   1.919339 S    
C18   C22   1.403906 A    
C12   C15   1.443208 S    
O16   Cr5   2.046901 S    
C18   H1    1.081824 S    
C55   C59   1.402918 A    
Cr2   O13   1.978482 S    
C51   C52   1.418818 A    
O6    Cr3   1.930079 S    
C5    O11   1.270821 A    
C57   H7    1.083599 S    
O22   Cr5   2.036792 S    
C29   C33   1.401998 A    
C61   C66   1.410039 A    
O11   Cr3   2.047561 S    
N1    O27   1.301258 A    
C2    O5    1.268122 A    
C36   C75   1.432598 S    
C93   H55   1.113414 S    
C31   N2    1.440484 S    
C28   C32   1.412231 A    
C80   H15   1.115544 S    
O48   C88   1.411131 S    
C43   H4    1.078652 S    
C17   C25   1.207145 T    
C5    C37   1.471000 S    
C86   H35   1.108031 S    
C88   H41   1.112933 S    
N4    O39   1.301206 A    
O2    C1    1.275963 A    
C65   C66   1.411897 A    
N8    O56   1.300643 A    
C21   N9    1.443459 S    
C50   C51   1.401826 A    
N9    O59   1.300939 A    
O46   C86   1.408122 S    
O5    Cr3   2.039936 S    
C45   C46   1.373313 A    
C14   C16   1.204717 T    
C81   H19   1.111604 S    
C57   C60   1.408346 A    
C38   C39   1.401331 A    
O32   C80   1.413302 S    
C81   H20   1.112797 S    
O7    C6    1.268358 A    
C79   H12   1.112329 S    
C46   H5    1.074921 S    
C2    C7    1.429583 S    
C86   H34   1.111723 S    
C94   H58   1.113656 S    
C52   C59   1.469883 S    
N2    O30   1.301116 A    
C91   H50   1.108294 S    
C46   C47   1.384645 A    
C70   C71   1.408794 A    
C39   C40   1.420548 A    
C89   H44   1.105992 S    
C84   H27   1.109433 S    
O33   C81   1.408616 S    
C67   C71   1.408591 A    
N7    O50   1.301333 A    
O3    Cr2   2.042081 S    
O25   Cr6   1.923184 S    
C90   H45   1.111262 S    
C53   O47   1.394541 S    
C91   H48   1.112857 S    
C49   C54   1.395031 A    
C63   C64   1.394130 A    
C20   C21   1.404960 A    
Cr1   O13   1.985910 S    
C11   C12   1.409995 A    
C11   N8    1.440547 S    
C37   C42   1.410510 A    
C84   H28   1.115954 S    
C83   H24   1.114517 S    
C88   H39   1.109143 S    
N1    O28   1.301391 A    
C41   O37   1.387925 S    
O47   C87   1.412303 S    
C1    O3    1.269884 A    
O8    C4    1.274107 A    
C7    C15   1.203684 T    
N7    O51   1.299913 A    
