data_mof_unit_11712.cif
_audit_creation_date              2012-12-10T20:51:47-0500
_audit_creation_method            fapswitch 2.2
_symmetry_space_group_name_H-M    P1
_symmetry_Int_Tables_number       1
_space_group_crystal_system       triclinic
_cell_length_a                    8.101733
_cell_length_b                    8.933804
_cell_length_c                    16.835517
_cell_angle_alpha                 89.508556
_cell_angle_beta                  95.218374
_cell_angle_gamma                 90.010349
_cell_volume                      1213.44747236

loop_
_atom_site_label
_atom_site_type_symbol
_atom_type_description
_atom_site_fract_x
_atom_site_fract_y
_atom_site_fract_z
_atom_type_partial_charge
C1    C     C_R   0.499964 0.217972 0.499996 0.921454
C2    C     C_R   0.563235 0.379984 0.144607 -0.199696
C3    C     C_R   0.558829 0.409301 0.903256 0.256311
C4    C     C_R   0.433581 0.447527 0.095778 0.234831
C5    C     C_R   0.704110 0.450159 0.868341 0.068279
C6    C     C_R   0.310669 0.532345 0.129692 0.055969
C7    C     C_R   0.691785 0.487931 0.786288 0.373541
C8    C     C_R   0.323948 0.551684 0.213701 0.400857
C9    C     C_1   0.499967 0.065188 0.499979 -0.178654
C10   C     C_1   0.500022 0.934818 0.499970 -0.177889
C11   C     C_3   0.868914 0.453093 0.919432 -0.421112
C12   C     C_R   0.500030 0.782029 0.499975 0.941036
C13   C     C_3   0.925562 0.295164 0.944661 -0.850180
C14   C     C_3   0.173504 0.607353 0.075525 -0.440491
C15   C     C_3   0.202836 0.775627 0.068257 -0.833271
C16   C     C_R   0.522677 0.495191 0.654061 0.915282
C17   C     C_R   0.477352 0.502146 0.346178 0.932996
C18   C     C_R   0.538849 0.469209 0.740058 -0.121162
C19   C     C_R   0.460151 0.488214 0.260089 -0.103580
C20   C     C_R   0.399794 0.417065 0.775214 -0.303406
C21   C     C_R   0.577342 0.402229 0.225550 -0.323504
C22   C     C_R   0.409185 0.387945 0.855812 -0.213943
H1    H     H_    0.679409 0.349871 0.261617 0.191215
H2    H     H_    0.205792 0.830742 0.127164 0.273400
H3    H     H_    0.322301 0.796682 0.042542 0.266230
H4    H     H_    0.101351 0.826437 0.028082 0.243484
H5    H     H_    0.165256 0.561132 0.014439 0.227424
H6    H     H_    0.050154 0.584339 0.096677 0.194963
H7    H     H_    0.874910 0.624589 0.784392 0.318895
H8    H     H_    0.110095 0.653791 0.217568 0.343690
H9    H     H_    0.282305 0.399344 0.740433 0.209691
H10   H     H_    0.656521 0.311955 0.120027 0.173431
H11   H     H_    0.298194 0.351231 0.881653 0.176131
H12   H     H_    0.835809 0.240513 0.981619 0.264478
H13   H     H_    0.939271 0.225953 0.891145 0.266793
H14   H     H_    0.047463 0.300611 0.980464 0.241803
H15   H     H_    0.969993 0.503678 0.888231 0.215352
H16   H     H_    0.856509 0.522013 0.973162 0.209727
N1    N     N_1   0.073640 0.500030 0.499990 -0.018187
N2    N     N_1   0.926360 0.499970 0.500010 -0.016577
N3    N     N_2   0.563271 0.402571 0.987039 -0.185304
N4    N     N_2   0.429537 0.440491 0.011926 -0.194397
O1    O     O_R   0.636850 0.285340 0.500000 -0.620618
O2    O     O_3   0.212393 0.635249 0.252558 -0.763565
O3    O     O_R   0.363150 0.714660 0.500000 -0.607926
O4    O     O_R   0.363100 0.285350 0.500000 -0.621237
O5    O     O_R   0.636900 0.714650 0.500000 -0.615191
O6    O     O_R   0.652140 0.498630 0.616140 -0.555766
O7    O     O_R   0.347860 0.501370 0.383860 -0.569306
O8    O     O_R   0.378390 0.498650 0.616130 -0.636591
O9    O     O_R   0.621610 0.501350 0.383870 -0.637117
O10   O     O_3   0.825593 0.543312 0.750341 -0.750595
Zn1   Zn    Zn3+2 0.682780 0.499990 0.500010 1.021645
Zn2   Zn    Zn3+2 0.317220 0.500010 0.499990 1.020359

loop_
_geom_bond_atom_site_label_1
_geom_bond_atom_site_label_2
_ccdc_geom_bond_type
C7    O10   S    
C11   H16   S    
C2    C4    A    
N2    Zn1   S    
C5    C11   S    
C11   H15   S    
C14   H5    S    
C6    C14   S    
C9    C10   T    
O4    Zn2   S    
O5    Zn1   S    
C7    C18   A    
C15   H4    S    
C16   O6    A    
C2    C21   A    
O1    Zn1   S    
C13   H12   S    
C11   C13   S    
H8    O2    S    
O8    Zn2   S    
C4    N4    S    
C12   O5    A    
C10   C12   S    
C16   C18   S    
C15   H2    S    
C17   C19   S    
C20   C22   A    
O3    Zn2   S    
C13   H13   S    
C18   C20   A    
C21   H1    S    
O6    Zn1   S    
H7    O10   S    
C1    O4    A    
C15   H3    S    
N1    Zn2   S    
O7    Zn2   S    
C8    C19   A    
C3    C5    A    
C1    C9    S    
C13   H14   S    
C2    H10   S    
C4    C6    A    
N3    N4    D    
C17   O7    A    
N1    N2    T    
C5    C7    A    
C22   H11   S    
C14   C15   S    
C3    N3    S    
C3    C22   A    
C6    C8    A    
C17   O9    A    
C14   H6    S    
C19   C21   A    
C1    O1    A    
C8    O2    S    
C16   O8    A    
C12   O3    A    
O9    Zn1   S    
C20   H9    S    
