data_mof_unit_40834.cif
_audit_creation_date              2012-12-11T15:39:25-0500
_audit_creation_method            fapswitch 2.2
_symmetry_space_group_name_H-M    P1
_symmetry_Int_Tables_number       1
_space_group_crystal_system       triclinic
_cell_length_a                    14.345003
_cell_length_b                    14.785363
_cell_length_c                    33.212918
_cell_angle_alpha                 97.591007
_cell_angle_beta                  90.448904
_cell_angle_gamma                 118.890752
_cell_volume                      6092.68386357

loop_
_atom_site_label
_atom_site_type_symbol
_atom_type_description
_atom_site_fract_x
_atom_site_fract_y
_atom_site_fract_z
_atom_type_partial_charge
C1    C     C_R   0.616867 0.910079 0.437020 0.569510
C2    C     C_R   0.712297 0.437934 0.949120 0.555559
C3    C     C_R   0.751487 0.820257 0.766214 -0.111074
C4    C     C_R   0.744439 0.841400 0.727143 -0.108897
C5    C     C_R   0.684603 0.759985 0.695114 0.034282
C6    C     C_R   0.632045 0.656230 0.703168 -0.102327
C7    C     C_R   0.639008 0.634932 0.742660 -0.100028
C8    C     C_R   0.699064 0.717084 0.774482 0.034177
C9    C     C_R   0.570523 0.734984 0.632790 -0.104666
C10   C     C_R   0.553473 0.771012 0.598205 -0.114974
C11   C     C_R   0.738904 0.906656 0.605232 -0.124803
C12   C     C_R   0.743390 0.716409 0.945951 0.563320
C13   C     C_R   0.830251 0.433847 0.163863 -0.112500
C14   C     C_R   0.826081 0.446644 0.123124 -0.122195
C15   C     C_R   0.779656 0.350287 0.245649 -0.134563
C16   C     C_R   0.772606 0.337365 0.286525 -0.172241
C17   C     C_R   0.741567 0.396795 0.313998 0.035991
C18   C     C_R   0.724917 0.474511 0.300595 0.381912
C19   C     C_R   0.731293 0.486747 0.259670 -0.074005
C20   C     C_R   0.755106 0.422327 0.231746 -0.029427
C21   C     C_R   0.747715 0.426390 0.187927 0.033726
C22   C     C_R   0.612010 0.347013 0.366954 -0.060531
C23   C     C_R   0.593654 0.205157 0.456314 0.562464
C24   C     C_R   0.573636 0.299668 0.401465 0.085785
C25   C     C_R   0.740369 0.297674 0.412734 -0.157599
C26   C     C_R   0.777529 0.344583 0.378258 -0.137072
C27   C     C_R   0.712401 0.366806 0.354506 0.048086
C28   C     C_R   0.636877 0.271179 0.424016 0.055715
C29   C     C_R   0.245917 0.878552 0.393198 0.023011
C30   C     C_R   0.232786 0.959440 0.380724 -0.126660
C31   C     C_R   0.209680 0.957665 0.339601 -0.108803
C32   C     C_R   0.756227 0.869866 0.639605 -0.119046
C33   C     C_R   0.198859 0.874909 0.310563 0.040204
C34   C     C_R   0.205209 0.791039 0.322929 -0.107296
C35   C     C_R   0.295815 0.892893 0.434340 0.540439
C36   C     C_R   0.228339 0.792594 0.364015 -0.122570
C37   C     C_R   0.196922 0.808896 0.163114 -0.178469
C38   C     C_R   0.168328 0.786858 0.121299 -0.145864
C39   C     C_R   0.090797 0.901372 0.129500 -0.092736
C40   C     C_R   0.118857 0.922860 0.171464 0.389948
C41   C     C_R   0.168567 0.873547 0.188450 0.048628
C42   C     C_1   0.180256 0.879120 0.231832 0.041748
C43   C     C_R   0.671295 0.785953 0.654581 0.030299
C44   C     C_1   0.188104 0.878611 0.267892 -0.002911
C45   C     C_R   0.110815 0.829260 0.104347 -0.036313
C46   C     C_R   0.635228 0.878486 0.395038 0.042922
C47   C     C_R   0.613927 0.904811 0.551573 0.547077
C48   C     C_R   0.545679 0.812787 0.367287 -0.130169
C49   C     C_R   0.555948 0.801163 0.325275 0.116759
C50   C     C_R   0.657478 0.855085 0.311017 0.055158
C51   C     C_R   0.747962 0.913851 0.338449 -0.124181
C52   C     C_R   0.737789 0.925940 0.380453 0.091682
C53   C     C_R   0.778481 0.922995 0.174161 -0.096661
C54   C     C_R   0.636641 0.859266 0.584834 0.018759
C55   C     C_R   0.793619 0.908670 0.132832 -0.114903
C56   C     C_R   0.618854 0.753487 0.121432 -0.126080
C57   C     C_R   0.603804 0.768219 0.162668 -0.112337
C58   C     C_R   0.685098 0.850728 0.189230 0.032107
C59   C     C_R   0.589880 0.199651 0.570826 0.541271
C60   C     C_1   0.676496 0.854818 0.232218 -0.011862
C61   C     C_1   0.668713 0.855211 0.268185 0.014621
C62   C     C_R   0.715725 0.821129 0.106454 0.016906
C63   C     C_R   0.624245 0.251862 0.613492 0.019824
C64   C     C_R   0.560419 0.285145 0.635816 -0.126702
C65   C     C_R   0.052204 0.781357 0.063785 0.545536
C66   C     C_R   0.578211 0.311394 0.678152 -0.117120
C67   C     C_R   0.659956 0.304926 0.698520 0.041642
C68   C     C_R   0.728637 0.279283 0.676393 -0.103031
C69   C     C_R   0.711279 0.253324 0.634039 -0.125721
C70   C     C_R   0.760069 0.341494 0.844771 -0.056835
C71   C     C_R   0.288903 0.886728 0.548414 0.547970
C72   C     C_R   0.769059 0.365620 0.887220 0.369348
C73   C     C_R   0.596315 0.358306 0.884121 -0.184136
C74   C     C_R   0.587906 0.334281 0.841774 -0.139541
C75   C     C_R   0.671511 0.329815 0.822042 -0.018166
C76   C     C_R   0.744159 0.487038 0.066283 0.544427
C77   C     C_1   0.669585 0.321022 0.778542 -0.006659
C78   C     C_1   0.666807 0.314968 0.742076 -0.009754
C79   C     C_R   0.689333 0.379529 0.907241 0.026247
C80   C     C_R   0.065798 0.752125 0.907983 -0.041611
C81   C     C_R   0.103486 0.850860 0.896254 -0.163703
C82   C     C_R   0.122041 0.863308 0.855747 -0.182710
C83   C     C_R   0.738830 0.451270 0.105937 0.021570
C84   C     C_R   0.103359 0.777252 0.826619 0.033197
C85   C     C_R   0.071462 0.679706 0.838859 0.377323
C86   C     C_R   0.053727 0.667688 0.879359 -0.074334
C87   C     C_R   0.743023 0.789336 0.066365 0.554586
C88   C     C_R   0.167423 0.747680 0.759552 -0.008447
C89   C     C_R   0.172895 0.754663 0.718263 0.382335
C90   C     C_R   0.122239 0.802097 0.700129 0.029243
C91   C     C_R   0.067130 0.843080 0.723918 -0.172529
C92   C     C_R   0.062203 0.836315 0.765322 -0.139031
C93   C     C_R   0.111757 0.787930 0.783302 0.000925
C94   C     C_R   0.181575 0.920314 0.648279 -0.125498
C95   C     C_R   0.653167 0.436688 0.129496 -0.119666
C96   C     C_R   0.223276 0.941486 0.610846 -0.126597
C97   C     C_R   0.166884 0.757565 0.590321 -0.117439
C98   C     C_R   0.021570 0.732095 0.947422 0.532809
C99   C     C_R   0.124472 0.736390 0.627604 -0.055310
C100  C     C_R   0.137484 0.818611 0.657607 0.055450
C101  C     C_R   0.221677 0.861076 0.582635 0.021412
C102  C     C_R   0.727622 0.701466 0.901196 0.014972
C103  C     C_R   0.628521 0.635912 0.878776 -0.121823
C104  C     C_R   0.618983 0.635129 0.836526 -0.110956
C105  C     C_R   0.708759 0.698668 0.816636 0.034391
C106  C     C_R   0.808550 0.756057 0.838832 -0.108523
C107  C     C_R   0.657881 0.424869 0.170180 -0.116104
C108  C     C_R   0.817503 0.758321 0.880488 -0.121481
Cr1   Cr    Cr6+3 0.424820 0.846020 0.489780 1.017586
Cr2   Cr    Cr6+3 0.657880 0.078580 0.505700 1.025980
Cr3   Cr    Cr6+3 0.417280 0.075360 0.504550 1.030340
Cr4   Cr    Cr6+3 0.903360 0.812540 0.006510 1.014808
Cr5   Cr    Cr6+3 0.914630 0.587050 0.006280 1.071805
Cr6   Cr    Cr6+3 0.673560 0.582680 0.008540 1.015833
F1    F     F_    0.090948 0.985835 0.195717 -0.643726
F2    F     F_    0.859039 0.382402 0.908175 -0.621660
F3    F     F_    0.231969 0.719556 0.696528 -0.642226
F4    F     F_    0.049656 0.594224 0.811240 -0.641121
F5    F     F_    0.699087 0.536061 0.326779 -0.644411
H1    H     H_    0.584742 0.439636 0.117161 0.134617
H2    H     H_    0.893339 0.457788 0.105709 0.131585
H3    H     H_    0.204555 0.022777 0.330304 0.122773
H4    H     H_    0.869258 0.961690 0.122231 0.140443
H5    H     H_    0.841746 0.987155 0.194642 0.142635
H6    H     H_    0.826358 0.953622 0.327199 0.118000
H7    H     H_    0.466479 0.775684 0.377997 0.128275
H8    H     H_    0.531138 0.712160 0.174172 0.116419
H9    H     H_    0.557404 0.685546 0.101810 0.126170
H10   H     H_    0.855549 0.359787 0.369206 0.114912
H11   H     H_    0.824544 0.336863 0.829570 0.161195
H12   H     H_    0.899920 0.434510 0.177048 0.111260
H13   H     H_    0.792330 0.274419 0.691990 0.124490
H14   H     H_    0.761861 0.228058 0.617766 0.131830
H15   H     H_    0.493013 0.285133 0.620897 0.128326
H16   H     H_    0.518659 0.324595 0.824330 0.125203
H17   H     H_    0.533451 0.368128 0.898352 0.144490
H18   H     H_    0.525009 0.331740 0.695126 0.104369
H19   H     H_    0.113196 0.916925 0.917939 0.138466
H20   H     H_    0.023114 0.590397 0.887616 0.195714
H21   H     H_    0.088372 0.657035 0.634137 0.152586
H22   H     H_    0.784926 0.276422 0.296113 0.120595
H23   H     H_    0.791326 0.277973 0.429539 0.133885
H24   H     H_    0.208366 0.712494 0.773172 0.178997
H25   H     H_    0.147824 0.939299 0.846885 0.123909
H26   H     H_    0.028904 0.881047 0.710504 0.116435
H27   H     H_    0.019514 0.868603 0.783198 0.111630
H28   H     H_    0.191965 0.984682 0.671114 0.107825
H29   H     H_    0.264327 0.021880 0.605448 0.130719
H30   H     H_    0.162714 0.693979 0.568609 0.128541
H31   H     H_    0.558262 0.589696 0.893996 0.129237
H32   H     H_    0.798322 0.300054 0.224517 0.126328
H33   H     H_    0.894858 0.808299 0.896910 0.140037
H34   H     H_    0.184798 0.731099 0.102691 0.144527
H35   H     H_    0.835442 0.909337 0.655289 0.102625
H36   H     H_    0.783134 0.922257 0.722383 0.107709
H37   H     H_    0.796393 0.885422 0.790338 0.110609
H38   H     H_    0.541033 0.589663 0.819928 0.114030
H39   H     H_    0.585572 0.591789 0.679002 0.103631
H40   H     H_    0.598439 0.554724 0.748277 0.104986
H41   H     H_    0.503268 0.670941 0.643707 0.125725
H42   H     H_    0.473643 0.732536 0.583091 0.140278
H43   H     H_    0.879284 0.803779 0.824275 0.105885
H44   H     H_    0.592268 0.416810 0.188108 0.114481
H45   H     H_    0.235602 0.770604 0.175976 0.123316
H46   H     H_    0.804792 0.973871 0.595326 0.129452
H47   H     H_    0.714846 0.544693 0.249511 0.136655
H48   H     H_    0.560143 0.362393 0.348497 0.153746
H49   H     H_    0.465542 0.346087 0.416677 0.234554
H50   H     H_    0.414190 0.227515 0.387227 0.218462
H51   H     H_    0.882494 0.957159 0.403732 0.234160
H52   H     H_    0.870156 0.063892 0.400081 0.225878
H53   H     H_    0.468843 0.674961 0.282728 0.236677
H54   H     H_    0.393707 0.709847 0.312268 0.217888
H55   H     H_    0.196674 0.726468 0.300614 0.111942
H56   H     H_    0.238508 0.729455 0.372509 0.123621
H57   H     H_    0.246140 0.026926 0.402374 0.134844
H58   H     H_    0.045775 0.934489 0.117358 0.145002
N1    N     N_3   0.468476 0.276201 0.412010 -0.600798
N2    N     N_3   0.831340 0.988804 0.407989 -0.599241
N3    N     N_3   0.463305 0.739481 0.296900 -0.625844
O1    O     O_R   0.318160 0.824460 0.443680 -0.522668
O2    O     O_R   0.668160 0.499860 0.053480 -0.516902
O3    O     O_R   0.689170 0.693840 0.050110 -0.494667
O4    O     O_R   0.525040 0.857250 0.449830 -0.515857
O5    O     O_R   0.803860 0.812940 0.962540 -0.502564
O6    O     O_R   0.982950 0.787950 0.964120 -0.528524
O7    O     O_R   0.007050 0.649970 0.960540 -0.485307
O8    O     O_R   0.807910 0.482370 0.965590 -0.428361
O9    O     O_R   0.643310 0.460980 0.963840 -0.540762
O10   O     O_R   0.666140 0.657800 0.967020 -0.497342
O11   O     O_3   0.830520 0.660760 0.007110 -0.277653
O12   O     O_R   0.645130 0.163230 0.552140 -0.503114
O13   O     O_R   0.684760 0.998800 0.456360 -0.472520
O14   O     O_R   0.647540 0.166310 0.470260 -0.517001
O15   O     O_R   0.500960 0.181750 0.467450 -0.466691
O16   O     O_R   0.331100 0.981120 0.457080 -0.498366
O17   O     O_R   0.315560 0.821140 0.532010 -0.514898
O18   O     O_R   0.522630 0.854180 0.531710 -0.499446
O19   O     O_R   0.682160 0.995480 0.544690 -0.515439
O20   O     O_R   0.498360 0.178430 0.555780 -0.518994
O21   O     O_R   0.328690 0.978040 0.538950 -0.502687
O22   O     O_3   0.499990 0.999990 0.500010 -0.245096
O23   O     O_R   0.828710 0.851830 0.052170 -0.512485
O24   O     O_R   0.005980 0.823990 0.047210 -0.502538
O25   O     O_R   0.031900 0.688850 0.050170 -0.509966
O26   O     O_R   0.830940 0.518420 0.048680 -0.498138

loop_
_geom_bond_atom_site_label_1
_geom_bond_atom_site_label_2
_ccdc_geom_bond_type
Cr6   O10   S    
C38   H34   S    
C73   C74   A    
Cr1   O17   S    
C25   H23   S    
C2    O9    A    
C104  H38   S    
H52   N2    S    
C8    C105  S    
Cr3   O21   S    
C15   H32   S    
C81   C82   A    
Cr1   O18   S    
C7    C8    A    
C77   C78   T    
C25   C28   A    
C66   H18   S    
C29   C36   A    
C26   C27   A    
C29   C30   A    
C22   C24   A    
Cr1   O22   S    
C72   C79   A    
C87   O3    A    
C30   C31   A    
Cr4   O6    S    
C1    C46   S    
C40   F1    S    
C65   O25   A    
C58   C60   S    
Cr6   O3    S    
Cr5   O7    S    
C55   C62   A    
C46   C52   A    
C70   H11   S    
C56   C57   A    
Cr3   O22   S    
C17   C18   A    
C18   C19   A    
C41   C42   S    
C30   H57   S    
C68   H13   S    
C3    H37   S    
C38   C45   A    
C80   C86   A    
C2    C79   S    
C103  C104  A    
C103  H31   S    
C39   H58   S    
C108  H33   S    
C63   C69   A    
C16   C17   A    
C98   O7    A    
Cr5   O25   S    
Cr2   O14   S    
C31   C33   A    
C47   O18   A    
C102  C108  A    
C19   H47   S    
C9    C10   A    
C88   H24   S    
Cr3   O16   S    
C39   C45   A    
C49   N3    S    
H53   N3    S    
C106  H43   S    
C66   C67   A    
C71   C101  S    
Cr6   O9    S    
C96   C101  A    
C47   O19   A    
C59   O12   A    
C15   C20   A    
C67   C78   S    
C42   C44   T    
C14   C83   A    
C76   O2    A    
C76   C83   S    
C90   C100  S    
C104  C105  A    
C6    H39   S    
C1    O4    A    
C76   O26   A    
C71   O17   A    
C46   C48   A    
C53   C55   A    
C13   H12   S    
C81   H19   S    
C96   H29   S    
C64   H15   S    
C9    C43   A    
C74   C75   A    
C92   H27   S    
C67   C68   A    
C17   C27   S    
C84   C85   A    
C82   H25   S    
C3    C8    A    
C97   C99   A    
C91   C92   A    
C68   C69   A    
H54   N3    S    
C25   C26   A    
Cr6   O2    S    
Cr5   O8    S    
C51   C52   A    
C60   C61   T    
C51   H6    S    
C1    O13   A    
C12   C102  S    
C37   C38   A    
C34   H55   S    
Cr3   O20   S    
C99   C100  A    
C73   H17   S    
C94   C100  A    
C59   O20   A    
C83   C95   A    
C74   H16   S    
Cr2   O13   S    
C50   C51   A    
C73   C79   A    
C13   C21   A    
C23   C28   S    
C20   C21   S    
C94   C96   A    
C9    H41   S    
C75   C77   S    
C64   C66   A    
C85   C86   A    
C21   C107  A    
C26   H10   S    
C95   C107  A    
C86   H20   S    
C47   C54   S    
C32   H35   S    
C22   H48   S    
C35   O16   A    
Cr1   O4    S    
C11   C54   A    
C48   C49   A    
C107  H44   S    
C11   C32   A    
C10   H42   S    
C82   C84   A    
C22   C27   A    
C37   H45   S    
C24   N1    S    
C56   C62   A    
C99   H21   S    
Cr4   O24   S    
C90   C91   A    
C3    C4    A    
C55   H4    S    
H50   N1    S    
C91   H26   S    
Cr4   O5    S    
C11   H46   S    
C105  C106  A    
Cr1   O1    S    
C94   H28   S    
C71   O21   A    
C72   F2    S    
C88   C93   A    
C40   C41   A    
C69   H14   S    
Cr6   O11   S    
C80   C98   S    
Cr2   O19   S    
C33   C44   S    
C24   C28   A    
C31   H3    S    
C89   F3    S    
C80   C81   A    
C53   H5    S    
C57   H8    S    
C53   C58   A    
C6    C7    A    
Cr5   O11   S    
C95   H1    S    
C35   O1    A    
C12   O10   A    
C62   C87   S    
C29   C35   S    
C59   C63   S    
C87   O23   A    
H51   N2    S    
Cr2   O22   S    
Cr5   O26   S    
C19   C20   A    
C16   H22   S    
C52   N2    S    
C85   F4    S    
C98   O6    A    
Cr4   O11   S    
C45   C65   S    
C57   C58   A    
C5    C6    A    
C65   O24   A    
C106  C108  A    
H49   N1    S    
C12   O5    A    
C23   O14   A    
Cr2   O12   S    
C92   C93   A    
C32   C43   A    
C33   C34   A    
C34   C36   A    
C84   C93   S    
C56   H9    S    
C37   C41   A    
C102  C103  A    
C10   C54   A    
C2    O8    A    
C48   H7    S    
C63   C64   A    
C39   C40   A    
C4    C5    A    
C4    H36   S    
C7    H40   S    
C88   C89   A    
C36   H56   S    
C49   C50   A    
C23   O15   A    
C70   C75   A    
C14   H2    S    
C50   C61   S    
C97   H30   S    
C5    C43   S    
C70   C72   A    
Cr4   O23   S    
C89   C90   A    
C13   C14   A    
C18   F5    S    
C97   C101  A    
C15   C16   A    
Cr3   O15   S    
