data_mof_unit_48993.cif
_audit_creation_date              2012-12-11T16:29:22-0500
_audit_creation_method            fapswitch 2.2
_symmetry_space_group_name_H-M    P1
_symmetry_Int_Tables_number       1
_space_group_crystal_system       triclinic
_cell_length_a                    6.948831
_cell_length_b                    17.236497
_cell_length_c                    18.838401
_cell_angle_alpha                 106.292055
_cell_angle_beta                  90.255185
_cell_angle_gamma                 91.015501
_cell_volume                      2165.29152432

loop_
_atom_site_label
_atom_site_type_symbol
_atom_type_description
_atom_site_fract_x
_atom_site_fract_y
_atom_site_fract_z
_atom_type_partial_charge
O1    O     O_R   0.494360 0.415680 0.413760 -0.531808
O2    O     O_R   0.818810 0.432910 0.557230 -0.527470
O3    O     O_R   0.994290 0.584320 0.586240 -0.531258
C1    C     C_R   0.650216 0.416634 0.581200 0.729790
O4    O     O_R   0.823740 0.406440 0.412520 -0.531979
O5    O     O_R   0.999250 0.557660 0.440500 -0.525688
C2    C     C_R   0.651170 0.379673 0.388116 0.701015
O6    O     O_R   0.489400 0.442340 0.559500 -0.502470
O7    O     O_3   0.662500 0.549650 0.509350 -0.367712
V1    V     V_3+5 0.935340 0.490790 0.498270 1.472640
O8    O     O_R   0.329270 0.567090 0.442770 -0.530133
C3    C     C_R   0.161136 0.584105 0.419403 0.694654
O9    O     O_R   0.324340 0.593560 0.587480 -0.538278
C4    C     C_R   0.156827 0.615942 0.615586 0.785137
V2    V     V_3+5 0.435970 0.509210 0.501730 1.470488
O10   O     O_3   0.158940 0.450350 0.490650 -0.339922
C5    C     C_R   0.098929 0.589041 0.763472 0.079530
C6    C     C_R   0.055019 0.577638 0.832997 -0.044849
C7    C     C_R   0.030733 0.643983 0.894696 0.184870
C8    C     C_R   0.052318 0.721973 0.887344 -0.195031
C9    C     C_R   0.092972 0.736418 0.818528 -0.003690
C10   C     C_R   0.113174 0.669097 0.754663 0.063827
C11   C     C_R   0.115393 0.817268 0.814007 -0.157166
C12   C     C_R   0.154081 0.832301 0.744180 0.028356
C13   C     C_R   0.174433 0.764569 0.680415 0.038670
C14   C     C_R   0.150382 0.683914 0.685003 -0.151845
C15   C     C_R   0.171366 0.912247 0.734409 -0.102959
C16   C     C_R   0.219626 0.922736 0.664775 -0.075783
C17   C     C_R   0.242872 0.855432 0.603820 -0.043083
C18   C     C_R   0.217733 0.778182 0.611532 -0.190142
H1    H     H_    0.035605 0.771407 0.936832 0.106665
H2    H     H_    0.234163 0.728464 0.562112 0.096587
C19   C     C_1   0.111730 0.863932 0.132665 -0.210388
C20   C     C_1   0.119160 0.821404 0.176270 0.029925
C21   C     C_1   0.128542 0.771242 0.228186 0.058577
C22   C     C_1   0.136576 0.728970 0.271999 0.065299
C23   C     C_1   0.145951 0.678752 0.323867 0.045968
C24   C     C_1   0.153374 0.636150 0.367407 -0.197363
C25   C     C_1   0.641934 0.364577 0.633145 -0.190573
C26   C     C_1   0.637570 0.321694 0.676463 0.032036
C27   C     C_1   0.633753 0.271012 0.727956 0.058118
C28   C     C_1   0.630841 0.228323 0.771460 0.052742
C29   C     C_1   0.627083 0.177753 0.823051 0.040665
C30   C     C_1   0.622830 0.135037 0.866514 -0.144593
C31   C     C_R   0.617876 0.413347 0.248576 -0.187221
C32   C     C_R   0.629006 0.434117 0.182490 -0.007395
C33   C     C_R   0.671030 0.375333 0.117552 -0.159551
C34   C     C_R   0.691972 0.294705 0.117364 -0.061755
C35   C     C_R   0.650798 0.270050 0.182033 0.023972
C36   C     C_R   0.632487 0.331920 0.250016 0.064023
C37   C     C_R   0.635300 0.187343 0.182092 -0.164873
C38   C     C_R   0.633286 0.167909 0.250430 0.067742
C39   C     C_R   0.614800 0.229632 0.318375 0.021466
C40   C     C_R   0.629470 0.312428 0.318269 -0.162553
C41   C     C_R   0.650932 0.086775 0.251897 -0.194536
C42   C     C_R   0.645725 0.065756 0.317979 -0.050175
C43   C     C_R   0.602838 0.124371 0.383849 -0.071999
C44   C     C_R   0.574670 0.205096 0.383228 -0.104471
H3    H     H_    0.595325 0.461662 0.298615 0.112059
H4    H     H_    0.699388 0.393340 0.067734 0.136425
H5    H     H_    0.674004 0.038765 0.201671 0.115388
O11   O     O_R   0.775690 0.057750 0.940570 -0.497266
O12   O     O_R   0.441200 0.093570 0.087490 -0.532751
O13   O     O_R   0.265840 0.942320 0.059480 -0.524600
C45   C     C_R   0.613706 0.120203 0.112127 0.695751
O14   O     O_R   0.446270 0.067110 0.942790 -0.521248
O15   O     O_R   0.270950 0.915660 0.913750 -0.534084
C46   C     C_R   0.614770 0.083217 0.918674 0.737073
O16   O     O_R   0.770580 0.084400 0.086300 -0.533188
O17   O     O_3   0.602640 0.950400 0.990690 -0.370531
V3    V     V_3+5 0.329740 0.009200 0.001730 1.489939
O18   O     O_R   0.940900 0.906360 0.912450 -0.539076
C47   C     C_R   0.108457 0.884694 0.883831 0.713116
O19   O     O_R   0.935830 0.932820 0.057160 -0.531422
C48   C     C_R   0.103961 0.915877 0.080583 0.697707
V4    V     V_3+5 0.829130 0.990680 0.998180 1.475827
O20   O     O_3   0.106100 0.049590 0.009310 -0.334469
C49   C     C_1   0.290054 0.864093 0.531622 0.322009
N1    N     N_1   0.327692 0.870959 0.473882 -0.308631
C50   C     C_1   0.611666 0.517270 0.182385 0.303992
N2    N     N_1   0.597727 0.584075 0.182374 -0.337845
C51   C     C_1   0.803738 0.246741 0.057358 0.261815
N3    N     N_1   0.900114 0.211279 0.009853 -0.310607
C52   C     C_1   0.673283 0.982194 0.316013 0.319023
N4    N     N_1   0.695346 0.915320 0.314377 -0.318815
C53   C     C_1   0.458180 0.253894 0.441694 0.269985
N5    N     N_1   0.358763 0.289953 0.487825 -0.314842
N6    N     N_3   0.135281 0.518901 0.702988 -0.661904
H6    H     H_    0.013481 0.480803 0.694071 0.230331
H7    H     H_    0.251333 0.488146 0.717051 0.230251
C54   C     C_1   0.037233 0.496812 0.841368 0.331756
N7    N     N_1   0.022911 0.432212 0.847992 -0.337231
N8    N     N_3   0.987683 0.631664 0.965465 -0.640261
H8    H     H_    0.847412 0.607929 0.962462 0.237246
H9    H     H_    0.988211 0.686678 0.006929 0.229922
C55   C     C_1   0.132569 0.985468 0.792589 0.252254
N9    N     N_1   0.102032 0.044759 0.837962 -0.305516
C56   C     C_1   0.243888 0.003261 0.655398 0.332123
N10   N     N_1   0.263223 0.067361 0.648008 -0.301529
C57   C     C_1   0.578663 0.100914 0.451586 0.340063
N11   N     N_1   0.559462 0.082236 0.505583 -0.292291

loop_
_geom_bond_atom_site_label_1
_geom_bond_atom_site_label_2
_ccdc_geom_bond_type
O14   C46   A    
C41   C42   A    
O12   C45   A    
C26   C27   S    
N8    H8    S    
C5    N6    S    
C27   C28   T    
C21   C22   T    
C12   C15   A    
O18   V4    S    
C31   C32   A    
C36   C40   A    
O19   V4    S    
C6    C54   S    
C16   C17   A    
C6    C7    A    
O5    C3    A    
V2    O10   S    
C42   C43   A    
O16   V4    S    
C20   C21   S    
C37   C45   S    
O13   V3    S    
C33   H4    S    
O8    V2    S    
C19   C48   S    
C17   C49   S    
C33   C34   A    
C34   C51   S    
C35   C37   A    
C11   C12   A    
O17   V3    S    
O15   C47   A    
C18   H2    S    
C17   C18   A    
O7    V1    S    
C7    N8    S    
C38   C41   A    
C1    O6    A    
N6    H6    S    
N8    H9    S    
O1    C2    A    
O9    C4    A    
O11   V4    S    
C15   C55   S    
C11   C47   S    
C44   C53   S    
C42   C52   S    
V4    O20   S    
O19   C48   A    
C37   C38   A    
C12   C13   A    
C54   N7    T    
O4    C2    A    
C53   N5    T    
O18   C47   A    
C13   C14   A    
C39   C40   A    
C43   C57   S    
C51   N3    T    
C4    C14   S    
O2    C1    A    
C29   C30   T    
C23   C24   T    
O14   V3    S    
C1    C25   S    
O8    C3    A    
C55   N9    T    
C5    C6    A    
C52   N4    T    
O3    C4    A    
O1    V2    S    
C34   C35   A    
N6    H7    S    
C35   C36   A    
O6    V2    S    
C9    C11   A    
O17   V4    S    
C30   C46   S    
C28   C29   S    
O2    V1    S    
V3    O20   S    
C38   C39   A    
C16   C56   S    
C13   C18   A    
C32   C33   A    
C31   H3    S    
C49   N1    T    
O12   V3    S    
C50   N2    T    
O5    V1    S    
C39   C44   A    
C5    C10   A    
O11   C46   A    
C7    C8    A    
O9    V2    S    
O7    V2    S    
O4    V1    S    
O3    V1    S    
V1    O10   S    
C32   C50   S    
C43   C44   A    
C31   C36   A    
C45   O16   A    
C41   H5    S    
C57   N11   T    
O13   C48   A    
C19   C20   T    
O15   V3    S    
C3    C24   S    
C25   C26   T    
C8    C9    A    
C22   C23   S    
C56   N10   T    
C10   C14   A    
C15   C16   A    
C2    C40   S    
C9    C10   A    
C8    H1    S    
