data_mof_unit_54178.cif
_audit_creation_date              2012-12-10T18:05:45-0500
_audit_creation_method            fapswitch 2.2
_symmetry_space_group_name_H-M    P1
_symmetry_Int_Tables_number       1
_space_group_crystal_system       triclinic
_cell_length_a                    10.921434
_cell_length_b                    10.709046
_cell_length_c                    9.6571
_cell_angle_alpha                 92.61677
_cell_angle_beta                  90.586202
_cell_angle_gamma                 93.916696
_cell_volume                      1125.56246045

loop_
_atom_site_label
_atom_site_type_symbol
_atom_type_description
_atom_site_fract_x
_atom_site_fract_y
_atom_site_fract_z
_atom_type_partial_charge
C1    C     C_R   0.500258 0.262687 0.497608 0.881963
C2    C     C_R   0.499430 0.737214 0.502246 0.854832
C3    C     C_R   0.873311 0.502570 0.493799 -0.267763
C4    C     C_R   0.128696 0.498916 0.495925 -0.228582
C5    C     C_R   0.941055 0.512421 0.618927 -0.066454
C6    C     C_R   0.067466 0.533431 0.375528 -0.122593
C7    C     C_R   0.595436 0.066946 0.432710 0.542163
C8    C     C_R   0.406724 0.932346 0.573881 0.536323
C9    C     C_R   0.592720 0.937251 0.434578 -0.348508
C10   C     C_R   0.406362 0.062496 0.564508 -0.348008
C11   C     C_R   0.500003 0.871347 0.505614 -0.147423
C12   C     C_R   0.499501 0.128424 0.494414 -0.140621
C13   C     C_R   0.443135 0.401390 0.064391 0.489121
C14   C     C_R   0.554156 0.599701 0.936657 0.483843
C15   C     C_R   0.447339 0.401961 0.917625 -0.067611
C16   C     C_R   0.554521 0.596589 0.083024 -0.073485
C17   C     C_R   0.262585 0.498696 0.499237 0.898364
C18   C     C_R   0.738120 0.500857 0.499071 0.844476
C19   C     C_R   0.200665 0.845681 0.254885 -0.126381
C20   C     C_R   0.964684 0.735594 0.935696 -0.060945
C21   C     C_R   0.136299 0.755166 0.330710 -0.170859
C22   C     C_R   0.948708 0.624636 0.853227 -0.039787
C23   C     C_R   0.127254 0.628263 0.284455 0.137678
C24   C     C_R   0.935909 0.628372 0.708877 0.133785
C25   C     C_R   0.188410 0.593758 0.162722 -0.005442
C26   C     C_R   0.938028 0.746114 0.648937 -0.144241
C27   C     C_R   0.253901 0.684645 0.087751 -0.196929
C28   C     C_R   0.953155 0.856823 0.731645 -0.138273
C29   C     C_R   0.259256 0.810435 0.133172 -0.114776
C30   C     C_R   0.966806 0.851523 0.875032 -0.065879
C31   C     C_R   0.940015 0.504515 0.366715 0.314296
C32   C     C_R   0.057666 0.468110 0.612046 0.268878
Cu1   Cu    Cu3+1 0.500000 0.500020 0.640660 1.067939
Cu2   Cu    Cu3+1 0.500000 0.499980 0.359340 1.087807
H1    H     H_    0.310908 0.880176 0.075654 0.175495
H2    H     H_    0.979173 0.937160 0.939084 0.160817
H3    H     H_    0.405683 0.324097 0.854916 0.240167
H4    H     H_    0.596135 0.673739 0.146785 0.211683
H5    H     H_    0.207272 0.942829 0.292178 0.168714
H6    H     H_    0.976289 0.732068 0.046719 0.181690
H7    H     H_    0.097551 0.784228 0.428008 0.145814
H8    H     H_    0.948574 0.535813 0.901157 0.247538
H9    H     H_    0.191974 0.496365 0.130545 0.221243
H10   H     H_    0.924561 0.752375 0.538611 0.109666
H11   H     H_    0.303362 0.657714 0.996139 0.146534
H12   H     H_    0.953661 0.946632 0.684517 0.146805
H13   H     H_    0.664323 0.888091 0.383094 0.179921
H14   H     H_    0.333724 0.113281 0.610084 0.208365
N1    N     N_R   0.500030 0.500030 0.852070 -0.266865
N2    N     N_R   0.499970 0.499970 0.147930 -0.256943
O1    O     O_R   0.499990 0.319660 0.618740 -0.609250
O2    O     O_R   0.500010 0.680340 0.381260 -0.614224
O3    O     O_R   0.499990 0.319630 0.381170 -0.469627
O4    O     O_R   0.500010 0.680370 0.618830 -0.491891
O5    O     O_R   0.319650 0.500020 0.618780 -0.557598
O6    O     O_R   0.680350 0.499980 0.381220 -0.517161
O7    O     O_R   0.319640 0.500000 0.381210 -0.564076
O8    O     O_R   0.680360 0.500000 0.618790 -0.537044
S1    S     S_3+6 0.876458 0.452604 0.201912 0.009398
O9    O     O_2   0.779420 0.347366 0.213920 -0.210413
O10   O     O_2   0.820800 0.560353 0.136952 -0.310557
O11   O     O_3   0.985485 0.399107 0.098182 -0.497392
H15   H     H_    0.013389 0.324677 0.143453 0.376964
S2    S     S_3+6 0.102293 0.365392 0.738529 0.028963
O12   O     O_2   0.990070 0.299323 0.797435 -0.236423
O13   O     O_2   0.181187 0.269886 0.673869 -0.309512
O14   O     O_3   0.181123 0.446193 0.867074 -0.505735
H16   H     H_    0.187039 0.533987 0.838905 0.315487
O15   O     O_3   0.690270 0.133182 0.368727 -0.519212
C33   C     C_3   0.791846 0.147431 0.461025 -0.227941
H17   H     H_    0.825915 0.055220 0.485486 0.136433
H18   H     H_    0.769231 0.200690 0.558109 0.153412
H19   H     H_    0.867891 0.201825 0.411011 0.213120
O16   O     O_3   0.313316 0.859875 0.635674 -0.591559
C34   C     C_3   0.263686 0.922321 0.751837 -0.237596
H20   H     H_    0.334880 0.977372 0.816862 0.210229
H21   H     H_    0.219676 0.850767 0.818051 0.177105
H22   H     H_    0.192017 0.983574 0.718345 0.180686
S3    S     S_3+6 0.362975 0.264260 0.125282 0.016473
O17   O     O_2   0.454415 0.170311 0.156500 -0.262128
O18   O     O_2   0.287264 0.289532 0.250692 -0.316557
O19   O     O_3   0.266968 0.199847 0.000123 -0.521433
H23   H     H_    0.233333 0.119745 0.036537 0.352926
S4    S     S_3+6 0.613810 0.746536 0.879554 0.027235
O20   O     O_2   0.507892 0.824685 0.852840 -0.320262
O21   O     O_2   0.693902 0.814419 0.990360 -0.291861
O22   O     O_3   0.698139 0.733628 0.737362 -0.516545
H24   H     H_    0.701352 0.818108 0.699174 0.350015

loop_
_geom_bond_atom_site_label_1
_geom_bond_atom_site_label_2
_ccdc_geom_bond_type
Cu1   O5    S    
O22   H24   S    
C13   S3    S    
Cu2   O6    S    
Cu1   O8    S    
C27   C29   A    
S4    O22   S    
C14   S4    S    
C25   H9    S    
C26   H10   S    
C20   C30   A    
C28   H12   S    
C19   H5    S    
C19   C21   A    
C24   C26   A    
C20   H6    S    
C14   N1    A    
Cu1   N1    S    
C3    C18   S    
C31   S1    S    
C34   H21   S    
C1    O3    A    
C15   H3    S    
C18   O8    A    
Cu2   O7    S    
C33   H17   S    
C17   O5    A    
C18   O6    A    
C5    C32   A    
C27   H11   S    
C15   N1    A    
C6    C31   A    
S1    O9    D    
C1    C12   S    
C2    C11   S    
C10   C12   A    
C7    C12   A    
Cu2   N2    S    
S1    O10   D    
O16   C34   S    
O14   H16   S    
S2    O14   S    
S4    O20   D    
C32   S2    S    
C4    C6    A    
C2    O4    A    
S3    O18   D    
S3    O17   D    
S2    O13   D    
C34   H20   S    
O11   H15   S    
C1    O1    A    
C33   H19   S    
C8    O16   S    
Cu1   Cu2   S    
C3    C31   A    
C9    C11   A    
C4    C32   A    
C2    O2    A    
C21   H7    S    
C4    C17   S    
C20   C22   A    
C9    H13   S    
C21   C23   A    
C10   H14   S    
C14   C16   A    
C25   C27   A    
C19   C29   A    
Cu1   O4    S    
C7    C9    A    
S1    O11   S    
Cu2   O2    S    
S4    O21   D    
C3    C5    A    
C7    O15   S    
S3    O19   S    
Cu1   O1    S    
C29   H1    S    
C26   C28   A    
C30   H2    S    
S2    O12   D    
C13   C15   A    
C22   H8    S    
C5    C24   S    
C8    C11   A    
C6    C23   S    
C28   C30   A    
C22   C24   A    
C23   C25   A    
O15   C33   S    
C16   N2    A    
C34   H22   S    
C13   N2    A    
Cu2   O3    S    
C8    C10   A    
O19   H23   S    
C17   O7    A    
C33   H18   S    
C16   H4    S    
