data_mof_unit_30325.cif
_audit_creation_date              2013-03-05T15:56:12-0500
_audit_creation_method            fapswitch 2.2
_symmetry_space_group_name_H-M    P1
_symmetry_Int_Tables_number       1
_space_group_crystal_system       triclinic
_cell_length_a                    12.410294
_cell_length_b                    13.500192
_cell_length_c                    19.367307
_cell_angle_alpha                 74.656831
_cell_angle_beta                  102.475133
_cell_angle_gamma                 117.22996
_cell_volume                      2765.28152722

loop_
_atom_site_label
_atom_site_type_symbol
_atom_site_description
_atom_site_fract_x
_atom_site_fract_y
_atom_site_fract_z
_atom_type_partial_charge
O1    O     O_R   0.972510 0.318130 0.520450 -0.583840
O2    O     O_R   0.806530 0.359650 0.492990 -0.613016
C1    C     C_R   0.853234 0.286791 0.507335 0.793093
O3    O     O_R   0.083010 0.479220 0.613590 -0.581202
O4    O     O_R   0.917030 0.520740 0.586130 -0.622556
C2    C     C_R   0.002369 0.501997 0.632067 0.756412
Cu1   Cu    Cu3+1 0.098280 0.475420 0.516260 1.004136
Cu2   Cu    Cu3+1 0.901720 0.524580 0.483740 0.988939
O5    O     O_R   0.193470 0.640350 0.507010 -0.532406
O6    O     O_R   0.027490 0.681870 0.479550 -0.542058
O7    O     O_R   0.082970 0.479260 0.413870 -0.554849
O8    O     O_R   0.916990 0.520780 0.386410 -0.535190
C3    C     C_R   0.143860 0.711254 0.498128 0.846071
C4    C     C_R   0.998112 0.499481 0.367170 0.833181
C5    C     C_R   0.120487 0.554095 0.748716 -0.199215
H1    H     H_    0.205012 0.583848 0.726164 0.145124
C6    C     C_R   0.124551 0.560335 0.820153 -0.156889
H2    H     H_    0.212333 0.593349 0.851773 0.160946
C7    C     C_R   0.016100 0.524393 0.850090 0.045283
C8    C     C_R   0.904011 0.484294 0.806902 -0.122362
H3    H     H_    0.818766 0.456657 0.828108 0.167532
C9    C     C_R   0.900184 0.477432 0.735938 -0.152465
H4    H     H_    0.812634 0.445719 0.703941 0.175770
C10   C     C_R   0.008076 0.509717 0.706905 -0.022406
N1    N     N_R   0.916124 0.511705 0.950286 -0.227312
N2    N     N_R   0.915500 0.510311 0.019003 -0.232892
C11   C     C_R   0.016832 0.523907 0.066523 0.422924
N3    N     N_R   0.119576 0.539868 0.042304 -0.234050
N4    N     N_R   0.120329 0.541620 0.973270 -0.235058
C12   C     C_R   0.018305 0.527152 0.925987 0.417415
C13   C     C_R   0.108314 0.513817 0.195619 -0.161742
H5    H     H_    0.188533 0.515157 0.181072 0.151677
C14   C     C_R   0.100602 0.505359 0.267935 -0.164402
H6    H     H_    0.176284 0.501307 0.306767 0.179581
C15   C     C_R   0.997873 0.502748 0.289801 -0.074524
C16   C     C_R   0.900686 0.507140 0.236396 -0.000223
C17   C     C_R   0.910356 0.516054 0.164125 -0.189544
H7    H     H_    0.835175 0.518576 0.124076 0.159870
C18   C     C_R   0.013031 0.519131 0.143062 0.043834
C19   C     C_R   0.257494 0.026844 0.485413 -0.185531
H8    H     H_    0.422417 0.231581 0.433220 0.134427
H9    H     H_    0.224304 0.091781 0.473755 0.125338
C20   C     C_R   0.222615 0.829852 0.506859 -0.127770
C21   C     C_R   0.810971 0.085248 0.555428 -0.286253
C22   C     C_R   0.734083 0.976298 0.587787 0.370335
C23   C     C_R   0.608143 0.940742 0.573285 -0.216691
C24   C     C_R   0.557822 0.013698 0.528611 0.050504
C25   C     C_R   0.636528 0.127759 0.501729 0.111841
C26   C     C_R   0.429918 0.977677 0.513714 0.112529
C27   C     C_R   0.382069 0.058910 0.486665 0.195386
C28   C     C_R   0.458794 0.169908 0.459421 -0.216465
C29   C     C_R   0.582121 0.200434 0.460829 -0.201463
C30   C     C_R   0.348409 0.863055 0.520530 -0.238347
C31   C     C_R   0.176798 0.911668 0.500347 0.025050
C32   C     C_R   0.765697 0.164695 0.517552 -0.153708
H10   H     H_    0.382253 0.799291 0.531737 0.212193
H11   H     H_    0.907481 0.110850 0.563660 0.183234
H12   H     H_    0.550231 0.857339 0.600130 0.181647
H13   H     H_    0.631532 0.281704 0.429067 0.181870
C33   C     C_R   0.342527 0.317840 0.611100 -0.265020
H14   H     H_    0.344119 0.254789 0.658925 0.209504
N5    N     N_R   0.246290 0.438200 0.540910 -0.245885
C34   C     C_R   0.752841 0.646192 0.400471 0.525548
C35   C     C_R   0.643266 0.653489 0.370698 -0.281107
C36   C     C_R   0.538513 0.585023 0.402966 -0.180511
C37   C     C_R   0.542512 0.516097 0.470311 0.019641
C38   C     C_R   0.649971 0.497018 0.494837 0.137717
C39   C     C_R   0.440672 0.461299 0.511704 -0.141347
C40   C     C_R   0.438212 0.370144 0.568572 -0.020239
C41   C     C_R   0.537665 0.340359 0.586968 0.295965
C42   C     C_R   0.644236 0.408997 0.553769 -0.250675
C43   C     C_R   0.345122 0.498415 0.501440 0.463176
C44   C     C_R   0.249646 0.353472 0.598294 0.097269
N6    N     N_R   0.754310 0.561190 0.459520 -0.255742
H15   H     H_    0.454891 0.587143 0.374123 0.197509
H16   H     H_    0.638934 0.713206 0.321454 0.188062
H17   H     H_    0.719539 0.387827 0.573899 0.232317
N7    N     N_R   0.783749 0.904081 0.638560 0.109726
O9    O     O_R   0.900881 0.934678 0.650241 -0.408005
O10   O     O_R   0.712374 0.807158 0.674012 -0.373588
C45   C     C_R   0.173846 0.311361 0.657802 0.158094
C46   C     C_R   0.087384 0.198133 0.669980 -0.148674
C47   C     C_R   0.027088 0.152371 0.732043 -0.085534
C48   C     C_R   0.059846 0.216831 0.785101 -0.109529
C49   C     C_R   0.154571 0.325889 0.776772 -0.134552
C50   C     C_R   0.211830 0.372930 0.713576 -0.113706
H18   H     H_    0.072946 0.144185 0.633435 0.161653
H19   H     H_    0.958415 0.065665 0.740579 0.199588
H20   H     H_    0.015050 0.180754 0.833805 0.150449
H21   H     H_    0.184523 0.373402 0.819666 0.150672
H22   H     H_    0.287245 0.456557 0.708466 0.131008
N8    N     N_R   0.532930 0.241295 0.640064 0.120813
O11   O     O_R   0.630225 0.242852 0.682604 -0.382142
O12   O     O_R   0.438605 0.144331 0.637437 -0.361625
N9    N     N_R   0.367490 0.611915 0.464244 0.117098
O13   O     O_R   0.303176 0.630872 0.404062 -0.378491
O14   O     O_R   0.464752 0.696379 0.484996 -0.424828
N10   N     N_R   0.860558 0.734493 0.368789 0.117158
O15   O     O_R   0.862837 0.834530 0.342070 -0.410983
O16   O     O_R   0.934649 0.711080 0.345345 -0.334653
C51   C     C_R   0.783860 0.496515 0.251853 0.135189
C52   C     C_R   0.699166 0.391518 0.284859 -0.135277
C53   C     C_R   0.580698 0.376028 0.287957 -0.145701
C54   C     C_R   0.546555 0.465192 0.259016 -0.111537
C55   C     C_R   0.630359 0.569839 0.226054 -0.148193
C56   C     C_R   0.748452 0.585529 0.222287 -0.075174
H23   H     H_    0.723475 0.320762 0.305697 0.114113
H24   H     H_    0.514373 0.294173 0.311416 0.136315
H25   H     H_    0.454862 0.452897 0.261532 0.129440
H26   H     H_    0.603471 0.638532 0.202844 0.143385
H27   H     H_    0.811559 0.666139 0.194887 0.155883
C57   C     C_R   0.048957 0.879700 0.511708 0.109907
C58   C     C_R   0.981367 0.936964 0.466823 -0.073788
C59   C     C_R   0.857930 0.898478 0.473747 -0.095027
C60   C     C_R   0.800902 0.802253 0.524830 -0.087856
C61   C     C_R   0.869242 0.750141 0.573264 -0.017568
C62   C     C_R   0.993533 0.790970 0.568283 -0.062933
H28   H     H_    0.021764 0.007586 0.424024 0.138919
H29   H     H_    0.805424 0.940822 0.437721 0.154924
H30   H     H_    0.704517 0.770157 0.528388 0.189437
H31   H     H_    0.825918 0.678118 0.614632 0.150874
H32   H     H_    0.045322 0.749782 0.606424 0.106821

loop_
_geom_bond_atom_site_label_1
_geom_bond_atom_site_label_2
_geom_bond_distance
_ccdc_geom_bond_type
C25   C32   1.431567 A    
C37   C39   1.433731 A    
C55   H26   1.082221 S    
C51   C52   1.403566 A    
N9    O13   1.299324 A    
C3    C20   1.478918 S    
C59   C60   1.395796 A    
Cu1   Cu2   2.717391 S    
C24   C26   1.417511 A    
C49   C50   1.399193 A    
Cu1   O7    1.939839 S    
N2    C11   1.356579 A    
C17   H7    1.084305 S    
C16   C17   1.399367 A    
C34   N10   1.446911 S    
C50   H22   1.083636 S    
O4    C2    1.302395 A    
O7    C4    1.312448 A    
N7    O10   1.301852 A    
C46   H18   1.078006 S    
C33   C44   1.393690 A    
N1    C12   1.355330 A    
C61   C62   1.396604 A    
C5    C6    1.396952 A    
C44   C45   1.472631 S    
O5    C3    1.315791 A    
C57   C58   1.407023 A    
C14   C15   1.410726 A    
C43   N9    1.434187 S    
C1    C32   1.489241 S    
C20   C30   1.397153 A    
C24   C25   1.419609 A    
C11   C18   1.476681 S    
C39   C40   1.411122 A    
C13   C14   1.395376 A    
N5    C44   1.377003 A    
C53   H24   1.081011 S    
C60   H30   1.081114 S    
C45   C50   1.405875 A    
C39   C43   1.444261 A    
C19   H9    1.083835 S    
C47   H19   1.081370 S    
C23   H12   1.079685 S    
C52   C53   1.399639 A    
O3    Cu1   1.950962 S    
Cu2   N6    2.035931 S    
C54   C55   1.396441 A    
C45   C46   1.400410 A    
C56   H27   1.083165 S    
C9    H4    1.082429 S    
C41   N8    1.440797 S    
C61   H31   1.082510 S    
C31   C57   1.491890 S    
C28   C29   1.387004 A    
C48   C49   1.395718 A    
O3    C2    1.311004 A    
C4    C15   1.486755 S    
N7    O9    1.301062 A    
C27   C28   1.386878 A    
N1    N2    1.327647 A    
C22   C23   1.395446 A    
C46   C47   1.399626 A    
C58   H28   1.082266 S    
C16   C51   1.478758 S    
O1    C1    1.325130 A    
C15   C16   1.422004 A    
C62   H32   1.082830 S    
Cu1   N5    2.047742 S    
N4    C12   1.359150 A    
C29   H13   1.071582 S    
C20   C31   1.424507 A    
C47   C48   1.395517 A    
C21   H11   1.071083 S    
Cu2   O8    1.950961 S    
C2    C10   1.464751 S    
N8    O12   1.301414 A    
C6    H2    1.082752 S    
C35   H16   1.083069 S    
N5    C43   1.383235 A    
C52   H23   1.083248 S    
C19   C27   1.398221 A    
C38   N6    1.391964 A    
C22   N7    1.441562 S    
C5    C10   1.401661 A    
C8    C9    1.391024 A    
N10   O15   1.301544 A    
N10   O16   1.293757 A    
C9    C10   1.400187 A    
C48   H20   1.082445 S    
C42   H17   1.065400 S    
C41   C42   1.397077 A    
C21   C22   1.397443 A    
C58   C59   1.399333 A    
C30   H10   1.075719 S    
C51   C56   1.405511 A    
Cu1   O5    1.964327 S    
C23   C24   1.409652 A    
N3    N4    1.332918 A    
O1    Cu1   1.970357 S    
C13   H5    1.082951 S    
O2    Cu2   1.964326 S    
C59   H29   1.082405 S    
O8    C4    1.311022 A    
O6    C3    1.303563 A    
O4    Cu2   1.939841 S    
C49   H21   1.081725 S    
N9    O14   1.300811 A    
C34   N6    1.393087 A    
C55   C56   1.397139 A    
C19   C31   1.402294 A    
C36   H15   1.076147 S    
C35   C36   1.371360 A    
C7    C8    1.405535 A    
O2    C1    1.299300 A    
C17   C18   1.399629 A    
C21   C32   1.400431 A    
C57   C62   1.409105 A    
C33   C40   1.390888 A    
C26   C30   1.397249 A    
C5    H1    1.082584 S    
N8    O11   1.301285 A    
C6    C7    1.404887 A    
C14   H6    1.082069 S    
C37   C38   1.430512 A    
C38   C42   1.399917 A    
C36   C37   1.393379 A    
C40   C41   1.414336 A    
C34   C35   1.394701 A    
C25   C29   1.417703 A    
C8    H3    1.082798 S    
Cu2   O6    1.970357 S    
C26   C27   1.409702 A    
C53   C54   1.396344 A    
C13   C18   1.399462 A    
C54   H25   1.082432 S    
C33   H14   1.083097 S    
C7    C12   1.474262 S    
H8    C28   1.084416 S    
C60   C61   1.395445 A    
C11   N3    1.358597 A    
