data_mof_unit_32962.cif
_audit_creation_date              2012-12-10T17:16:34-0500
_audit_creation_method            fapswitch 2.2
_symmetry_space_group_name_H-M    P1
_symmetry_Int_Tables_number       1
_space_group_crystal_system       triclinic
_cell_length_a                    10.199022
_cell_length_b                    10.808554
_cell_length_c                    10.499368
_cell_angle_alpha                 90.625147
_cell_angle_beta                  93.54599
_cell_angle_gamma                 82.067372
_cell_volume                      1144.14220075

loop_
_atom_site_label
_atom_site_type_symbol
_atom_type_description
_atom_site_fract_x
_atom_site_fract_y
_atom_site_fract_z
_atom_type_partial_charge
C1    C     C_R   0.446851 0.513994 0.265311 0.867762
C2    C     C_R   0.500154 0.740851 0.497717 1.017259
C3    C     C_R   0.641652 0.097426 0.308490 0.129209
C4    C     C_R   0.252177 0.930629 0.532718 0.147427
C5    C     C_R   0.758278 0.025762 0.269582 0.107928
C6    C     C_R   0.165564 0.998736 0.617781 0.118321
C7    C     C_R   0.810222 0.918243 0.337273 -0.180919
C8    C     C_R   0.211295 0.094071 0.691707 -0.181251
C9    C     C_R   0.736856 0.870901 0.428987 0.150168
C10   C     C_R   0.330210 0.136579 0.665507 0.119311
C11   C     C_R   0.606472 0.930360 0.448007 0.043161
C12   C     C_R   0.553437 0.493969 0.734632 0.860282
C13   C     C_R   0.406350 0.076341 0.568310 0.032440
C14   C     C_R   0.578495 0.055267 0.414061 -0.014373
C15   C     C_R   0.384826 0.956862 0.531998 0.045209
C16   C     C_R   0.498222 0.875621 0.492793 -0.118341
C17   C     C_R   0.494580 0.130546 0.494765 -0.190477
C18   C     C_2   0.462876 0.727090 0.866146 1.001869
C19   C     C_2   0.591446 0.690646 0.137562 0.933249
C20   C     C_2   0.864305 0.476087 0.319748 0.975894
C21   C     C_2   0.120764 0.633253 0.654489 0.933204
C22   C     C_2   0.424836 0.539117 0.128243 -0.101989
C23   C     C_2   0.576915 0.506546 0.872043 -0.136191
C24   C     C_2   0.506811 0.606881 0.070098 0.013835
C25   C     C_2   0.512135 0.606397 0.931665 -0.103065
C26   C     C_2   0.082478 0.470076 0.501687 0.108727
C27   C     C_2   0.939947 0.457615 0.536293 0.103768
C28   C     C_R   0.498859 0.261143 0.500409 0.919031
H1    H     H_    0.149874 0.141501 0.762858 0.148096
H2    H     H_    0.007044 0.906223 0.567733 0.205606
H3    H     H_    0.833668 0.701748 0.482134 0.268676
H4    H     H_    0.757086 0.785146 0.604056 0.223298
H5    H     H_    0.301725 0.309613 0.742583 0.205686
H6    H     H_    0.392209 0.200532 0.836917 0.184955
H7    H     H_    0.627853 0.727109 0.769428 0.288335
H8    H     H_    0.756904 0.773591 0.135838 0.353006
H9    H     H_    0.607367 0.324771 0.923476 0.186377
H10   H     H_    0.746881 0.390334 0.910701 0.210274
H11   H     H_    0.349814 0.383619 0.068511 0.172094
H12   H     H_    0.908040 0.871206 0.318988 0.167013
H13   H     H_    0.235310 0.509111 0.090983 0.202852
H14   H     H_    0.015172 0.391148 0.711091 0.156148
H15   H     H_    0.876361 0.493864 0.714732 0.253989
H16   H     H_    0.087570 0.303660 0.405612 0.158100
H17   H     H_    0.138423 0.420293 0.324552 0.205010
H18   H     H_    0.937732 0.586380 0.195787 0.355141
H19   H     H_    0.980711 0.721657 0.763319 0.344567
H20   H     H_    0.483862 0.230625 0.253974 0.162683
H21   H     H_    0.637475 0.272256 0.241098 0.255676
H22   H     H_    0.153968 0.789958 0.461296 0.202598
H23   H     H_    0.129809 0.923085 0.374410 0.176081
H24   H     H_    0.764095 0.071136 0.084047 0.213893
H25   H     H_    0.854332 0.152349 0.187136 0.221554
H26   H     H_    0.023939 0.944826 0.721651 0.215277
N1    N     N_2   0.157300 0.551390 0.551120 -0.173967
N2    N     N_3   0.327633 0.480032 0.054478 -0.435469
N3    N     N_3   0.922546 0.418622 0.663941 -0.408769
N4    N     N_3   0.141903 0.378915 0.414292 -0.389638
N5    N     N_2   0.842700 0.448610 0.448880 -0.173516
N6    N     N_3   0.580581 0.199574 0.229433 -0.465658
N7    N     N_3   0.200421 0.862079 0.427581 -0.422514
N8    N     N_3   0.828307 0.063879 0.166005 -0.458738
N9    N     N_3   0.031174 0.976758 0.629070 -0.448033
N10   N     N_3   0.809793 0.789717 0.522449 -0.441801
N11   N     N_3   0.376951 0.233277 0.743104 -0.443938
N12   N     N_3   0.651351 0.405163 0.943688 -0.400984
O1    O     O_R   0.568940 0.489660 0.307530 -0.605119
O2    O     O_R   0.537004 0.776839 0.776981 -0.811605
O3    O     O_2   0.552455 0.750523 0.230072 -0.659508
O4    O     O_R   0.710839 0.709125 0.086979 -0.807379
O5    O     O_2   0.827527 0.409141 0.234185 -0.655376
O6    O     O_R   0.924024 0.580445 0.290191 -0.863535
O7    O     O_2   0.206927 0.681783 0.713492 -0.567943
O8    O     O_R   0.990124 0.663134 0.687289 -0.888737
O9    O     O_R   0.431060 0.510340 0.692470 -0.580479
O10   O     O_R   0.348880 0.522640 0.340350 -0.609977
O11   O     O_R   0.651120 0.477360 0.659650 -0.617977
O12   O     O_R   0.610030 0.300280 0.483580 -0.613304
O13   O     O_R   0.389970 0.699720 0.516420 -0.582984
O14   O     O_R   0.389970 0.333270 0.516400 -0.598196
O15   O     O_R   0.610030 0.666730 0.483600 -0.637786
O16   O     O_2   0.360739 0.788923 0.898100 -0.545447
Zn1   Zn    Zn3+2 0.646940 0.477980 0.478080 0.980926
Zn2   Zn    Zn3+2 0.353060 0.522020 0.521920 0.989012

loop_
_geom_bond_atom_site_label_1
_geom_bond_atom_site_label_2
_ccdc_geom_bond_type
O1    Zn1   S    
C9    N10   S    
H23   N7    S    
O14   Zn2   S    
C26   N1    D    
O10   Zn2   S    
H5    N11   S    
C12   C23   S    
C26   C27   S    
H21   N6    S    
C8    H1    S    
C23   N12   S    
N5    Zn1   S    
O13   Zn2   S    
C11   C14   A    
O9    Zn2   S    
H26   N9    S    
O11   Zn1   S    
C18   O2    S    
C15   C16   A    
C21   O7    D    
H14   N3    S    
C11   C16   A    
C2    O13   A    
C18   O16   D    
O12   Zn1   S    
H10   N12   S    
H16   N4    S    
C7    H12   S    
C20   O5    D    
C2    O15   A    
C28   O12   A    
H18   O6    S    
C3    N6    S    
C1    C22   S    
H2    N9    S    
C12   O11   A    
C17   C28   S    
C14   C17   A    
C18   C25   S    
H6    N11   S    
O15   Zn1   S    
H8    O4    S    
H20   N6    S    
H17   N4    S    
C24   C25   S    
H4    N10   S    
C4    C6    A    
C27   N3    S    
C5    C7    A    
C22   N2    S    
C4    N7    S    
C6    N9    S    
H13   N2    S    
C26   N4    S    
H25   N8    S    
H11   N2    S    
H9    N12   S    
C20   N5    S    
C9    C11   A    
C3    C14   A    
C13   C15   A    
C22   C24   D    
C19   O3    D    
C2    C16   S    
C21   N1    S    
C10   N11   S    
C7    C9    A    
C1    O10   A    
H3    N10   S    
H19   O8    S    
C3    C5    A    
C10   C13   A    
C6    C8    A    
C13   C17   A    
C4    C15   A    
C19   C24   S    
H24   N8    S    
H7    O2    S    
C21   O8    S    
C1    O1    A    
C5    N8    S    
C23   C25   D    
C28   O14   A    
H15   N3    S    
C8    C10   A    
C12   O9    A    
H22   N7    S    
C20   O6    S    
C19   O4    S    
C27   N5    D    
N1    Zn2   S    
