data_mof_unit_41873.cif
_audit_creation_date              2012-12-10T18:44:20-0500
_audit_creation_method            fapswitch 2.2
_symmetry_space_group_name_H-M    P1
_symmetry_Int_Tables_number       1
_space_group_crystal_system       triclinic
_cell_length_a                    18.113311
_cell_length_b                    18.134305
_cell_length_c                    22.061248
_cell_angle_alpha                 114.084341
_cell_angle_beta                  114.136796
_cell_angle_gamma                 89.978086
_cell_volume                      5915.49815294

loop_
_atom_site_label
_atom_site_type_symbol
_atom_type_description
_atom_site_fract_x
_atom_site_fract_y
_atom_site_fract_z
_atom_type_partial_charge
C1    C     C_R   0.349575 0.349564 0.699386 0.517919
C2    C     C_1   0.889330 0.889672 0.778605 0.099172
C3    C     C_3   0.083927 0.017430 0.023964 0.210396
C4    C     C_3   0.919606 0.983908 0.976155 0.150573
C5    C     C_3   0.038845 0.037800 0.073632 -0.056662
C6    C     C_3   0.964229 0.963516 0.926324 -0.057268
C7    C     C_1   0.078581 0.077927 0.154704 0.114416
C8    C     C_1   0.923075 0.923167 0.845266 0.111409
C9    C     C_3   0.040245 0.505760 0.568699 0.167432
C10   C     C_3   0.959645 0.493819 0.432086 0.238828
C11   C     C_3   0.945168 0.481369 0.522307 -0.199477
C12   C     C_R   0.650222 0.650415 0.300615 0.516469
C13   C     C_3   0.054510 0.518363 0.478247 -0.165431
C14   C     C_3   0.949139 0.551891 0.500529 -0.013019
C15   C     C_3   0.050743 0.447850 0.500014 -0.007872
C16   C     C_R   0.150403 0.150342 0.300630 0.519106
C17   C     C_R   0.849655 0.849753 0.699363 0.517916
C18   C     C_3   0.043428 0.575745 0.547176 0.213392
C19   C     C_3   0.956573 0.423870 0.453496 0.239884
C20   C     C_3   0.555400 0.563596 0.024469 0.247176
C21   C     C_3   0.440400 0.435472 0.975526 0.248267
C22   C     C_3   0.554059 0.473808 0.975812 0.259691
C23   C     C_3   0.504947 0.575825 0.548080 0.237306
C24   C     C_3   0.441794 0.525329 0.024256 0.260710
C25   C     C_1   0.388531 0.389013 0.778671 0.082835
C26   C     C_1   0.609791 0.610811 0.221335 0.079560
C27   C     C_3   0.462324 0.554258 0.974867 -0.175156
C28   C     C_3   0.533504 0.444814 0.025140 -0.175453
C29   C     C_3   0.461386 0.463326 0.926393 -0.030847
C30   C     C_3   0.534499 0.535781 0.073631 -0.031747
C31   C     C_1   0.421277 0.422446 0.845364 0.069170
C32   C     C_1   0.575697 0.577032 0.154651 0.067948
C33   C     C_3   0.076647 0.985139 0.530640 0.142560
C34   C     C_3   0.495153 0.424212 0.451995 0.236938
C35   C     C_3   0.923013 0.015515 0.469689 0.200426
C36   C     C_3   0.002077 0.922258 0.460173 0.174043
C37   C     C_3   0.997627 0.078394 0.540175 0.192890
C38   C     C_3   0.947039 0.950886 0.500197 -0.017793
C39   C     C_3   0.052688 0.049743 0.500149 -0.007220
C40   C     C_R   0.391421 0.108015 0.499736 0.538267
C41   C     C_R   0.608565 0.891975 0.500255 0.538551
C42   C     C_3   0.021761 0.014405 0.570502 0.165747
C43   C     C_3   0.977926 0.986230 0.429836 0.191974
C44   C     C_3   0.522246 0.057354 0.570751 -0.159093
C45   C     C_3   0.019469 0.050527 0.974767 0.184472
C46   C     C_3   0.477695 0.942606 0.429223 -0.160648
C47   C     C_3   0.575164 0.041665 0.528601 0.264713
C48   C     C_3   0.424780 0.958303 0.471377 0.266200
C49   C     C_3   0.551114 0.948798 0.500085 0.033546
C50   C     C_3   0.448842 0.051168 0.499892 0.035065
C51   C     C_3   0.497413 0.962970 0.541663 -0.122634
C52   C     C_3   0.502536 0.036992 0.458312 -0.125222
C53   C     C_R   0.108221 0.391329 0.500115 0.581074
C54   C     C_R   0.891759 0.608601 0.500048 0.577588
C55   C     C_R   0.108774 0.107513 0.499609 0.595647
C56   C     C_3   0.983789 0.950733 0.025143 0.181614
C57   C     C_R   0.891156 0.892721 0.500560 0.597479
C58   C     C_R   0.391563 0.391440 0.499818 0.565087
C59   C     C_R   0.608461 0.608561 0.500199 0.565075
C60   C     C_3   0.425697 0.519770 0.479730 0.244691
C61   C     C_3   0.574386 0.480279 0.520348 0.245743
C62   C     C_3   0.471446 0.495381 0.430700 -0.199873
C63   C     C_3   0.528631 0.504647 0.569368 -0.199398
C64   C     C_3   0.551324 0.551786 0.500286 -0.016033
C65   C     C_3   0.448745 0.448221 0.499768 -0.016295
C66   C     C_3   0.608532 0.663310 0.005332 0.023525
C67   C     C_3   0.974658 0.070881 0.024304 0.146225
C68   C     C_3   0.686882 0.722852 0.032820 -0.346684
C69   C     C_3   0.385981 0.337109 0.995362 0.023402
C70   C     C_3   0.307163 0.277992 0.967667 -0.343377
C71   C     C_3   0.049698 0.820760 0.387993 0.013532
C72   C     C_3   0.014972 0.738458 0.318655 -0.360271
C73   C     C_3   0.949860 0.179489 0.612540 0.014741
C74   C     C_3   0.984987 0.261035 0.682665 -0.358000
C75   C     C_3   0.103685 0.081472 0.698440 0.021638
C76   C     C_3   0.090972 0.118526 0.768145 -0.373117
C77   C     C_3   0.895179 0.919708 0.302102 0.036822
C78   C     C_3   0.028689 0.930187 0.975517 0.202382
C79   C     C_3   0.906980 0.881842 0.231973 -0.380975
C80   C     C_3   0.663365 0.167602 0.591511 0.015811
C81   C     C_3   0.747341 0.210648 0.610687 -0.337017
C82   C     C_3   0.336512 0.832428 0.408674 0.017807
C83   C     C_3   0.252424 0.789538 0.389427 -0.334626
C84   C     C_3   0.489538 0.663188 0.651170 0.015367
C85   C     C_3   0.473360 0.748626 0.687839 -0.321941
C86   C     C_3   0.511476 0.337328 0.349253 0.020257
C87   C     C_3   0.531019 0.253096 0.314508 -0.329668
C88   C     C_3   0.096164 0.165240 0.990088 0.032219
C89   C     C_1   0.111194 0.110973 0.221373 0.102682
C90   C     C_3   0.081076 0.234255 0.966859 -0.368054
C91   C     C_3   0.932498 0.823010 0.008915 0.047155
C92   C     C_3   0.879094 0.788401 0.033106 -0.379742
C93   C     C_3   0.171593 0.662952 0.629920 0.008495
C94   C     C_3   0.216249 0.735651 0.632229 -0.318415
C95   C     C_3   0.834676 0.328974 0.393851 0.029257
C96   C     C_3   0.784687 0.248945 0.324968 -0.312526
H1    H     H_    0.448919 0.492887 0.374802 0.143208
H2    H     H_    0.099512 0.532850 0.460466 0.179734
H3    H     H_    0.762298 0.460952 0.993187 0.374919
H4    H     H_    0.233724 0.536633 0.007817 0.372344
H5    H     H_    0.557460 0.697952 0.001988 0.140265
H6    H     H_    0.594209 0.614370 0.948882 0.173362
H7    H     H_    0.739320 0.690154 0.037502 0.179948
H8    H     H_    0.678298 0.748742 0.993181 0.117714
H9    H     H_    0.701343 0.774169 0.088057 0.164371
H10   H     H_    0.399536 0.386867 0.051246 0.174114
H11   H     H_    0.437131 0.302492 0.000098 0.139763
H12   H     H_    0.551164 0.507025 0.625224 0.143450
H13   H     H_    0.293533 0.225843 0.913079 0.165442
H14   H     H_    0.314616 0.253229 0.007865 0.110397
H15   H     H_    0.254625 0.310636 0.961575 0.179630
H16   H     H_    0.108279 0.815402 0.428394 0.208262
H17   H     H_    0.062437 0.868896 0.372463 0.166829
H18   H     H_    0.953810 0.739501 0.278044 0.168718
H19   H     H_    0.057537 0.725892 0.292599 0.100885
H20   H     H_    0.007793 0.688193 0.333462 0.222325
H21   H     H_    0.936547 0.130706 0.627165 0.168200
H22   H     H_    0.891501 0.185746 0.572577 0.202452
H23   H     H_    0.563352 0.401161 0.046310 0.151979
H24   H     H_    0.991687 0.312089 0.668681 0.226744
H25   H     H_    0.942872 0.272727 0.709168 0.100010
H26   H     H_    0.046405 0.259566 0.722606 0.169381
H27   H     H_    0.142270 0.894838 0.611414 0.353973
H28   H     H_    0.766671 0.127840 0.403552 0.352312
H29   H     H_    0.117836 0.132484 0.686608 0.182082
H30   H     H_    0.157372 0.051006 0.710228 0.198297
H31   H     H_    0.083131 0.070005 0.784747 0.194280
H32   H     H_    0.145349 0.167174 0.814219 0.102024
H33   H     H_    0.035123 0.146214 0.757914 0.152197
H34   H     H_    0.432360 0.597820 0.953627 0.150801
H35   H     H_    0.842229 0.951220 0.290818 0.216012
H36   H     H_    0.880367 0.868975 0.314002 0.176070
H37   H     H_    0.961865 0.852675 0.241554 0.153772
H38   H     H_    0.851680 0.834228 0.186059 0.099771
H39   H     H_    0.915951 0.930182 0.215533 0.189661
H40   H     H_    0.657946 0.186569 0.644015 0.142465
H41   H     H_    0.615157 0.188517 0.554475 0.148917
H42   H     H_    0.751842 0.198845 0.558952 0.175513
H43   H     H_    0.755645 0.278141 0.643514 0.130651
H44   H     H_    0.796917 0.187560 0.644004 0.162358
H45   H     H_    0.539166 0.105100 0.628061 0.139241
H46   H     H_    0.384597 0.811607 0.445884 0.150866
H47   H     H_    0.342102 0.813249 0.356225 0.141916
H48   H     H_    0.202943 0.812468 0.355849 0.160824
H49   H     H_    0.244148 0.721997 0.356849 0.128887
H50   H     H_    0.247705 0.801662 0.441131 0.190497
H51   H     H_    0.283116 0.656599 0.449227 0.354809
H52   H     H_    0.717411 0.344012 0.551769 0.351343
H53   H     H_    0.541717 0.652832 0.694054 0.145674
H54   H     H_    0.432930 0.617249 0.628825 0.173015
H55   H     H_    0.421408 0.760469 0.646025 0.183881
H56   H     H_    0.460753 0.894850 0.371912 0.137948
H57   H     H_    0.457013 0.752969 0.732359 0.108444
H58   H     H_    0.529414 0.796096 0.712578 0.198608
H59   H     H_    0.566812 0.384848 0.371526 0.173114
H60   H     H_    0.458666 0.345573 0.305309 0.144981
H61   H     H_    0.476531 0.203939 0.290181 0.192633
H62   H     H_    0.547253 0.248890 0.269960 0.105099
H63   H     H_    0.584099 0.243738 0.357361 0.175862
H64   H     H_    0.901250 0.173265 0.956701 0.351024
H65   H     H_    0.142638 0.764538 0.982012 0.384627
H66   H     H_    0.153467 0.146240 0.987536 0.203892
H67   H     H_    0.494985 0.930943 0.574479 0.161220
H68   H     H_    0.105413 0.190229 0.048422 0.202340
H69   H     H_    0.024877 0.256052 0.970019 0.185577
H70   H     H_    0.134712 0.286661 0.004452 0.124830
H71   H     H_    0.072804 0.211976 0.909111 0.151316
H72   H     H_    0.982550 0.787632 0.009448 0.216346
H73   H     H_    0.893401 0.813413 0.951157 0.199244
H74   H     H_    0.829199 0.823531 0.034858 0.162368
H75   H     H_    0.850815 0.722685 0.993193 0.131207
H76   H     H_    0.917336 0.792657 0.089056 0.156895
H77   H     H_    0.824088 0.967026 0.045675 0.347766
H78   H     H_    0.504971 0.069025 0.425503 0.156537
H79   H     H_    0.281202 0.031976 0.016194 0.367299
H80   H     H_    0.073841 0.633147 0.712992 0.360214
H81   H     H_    0.906721 0.413325 0.235352 0.390707
H82   H     H_    0.192860 0.606842 0.602042 0.169957
H83   H     H_    0.190525 0.673544 0.687914 0.188681
H84   H     H_    0.200585 0.793605 0.663700 0.191056
H85   H     H_    0.284001 0.740186 0.660150 0.110758
H86   H     H_    0.197929 0.727152 0.574843 0.202100
H87   H     H_    0.802503 0.379713 0.387616 0.180558
H88   H     H_    0.836774 0.323663 0.443003 0.153030
H89   H     H_    0.900395 0.468137 0.540812 0.173209
H90   H     H_    0.815188 0.196845 0.328930 0.208719
H91   H     H_    0.721746 0.236828 0.319752 0.090919
H92   H     H_    0.779568 0.253532 0.274758 0.203702
O1    O     O_3   0.250010 0.250010 0.500010 -0.497976
O2    O     O_R   0.893710 0.832180 0.664370 -0.525226
O3    O     O_R   0.332200 0.393690 0.664400 -0.526124
O4    O     O_R   0.667800 0.606310 0.335600 -0.526398
O5    O     O_R   0.229300 0.167820 0.335610 -0.518968
O6    O     O_R   0.770700 0.832180 0.664390 -0.519051
O7    O     O_R   0.358130 0.123520 0.543120 -0.495956
O8    O     O_R   0.641870 0.876480 0.456880 -0.496653
O9    O     O_R   0.080390 0.314990 0.456920 -0.479573
O10   O     O_R   0.919610 0.685010 0.543080 -0.488464
O11   O     O_R   0.185040 0.123520 0.543150 -0.485650
O12   O     O_3   0.749990 0.749990 0.499990 -0.494848
O13   O     O_R   0.814960 0.876480 0.456850 -0.481872
O14   O     O_R   0.358080 0.419590 0.543080 -0.530763
O15   O     O_R   0.641920 0.580410 0.456920 -0.530598
O16   O     O_R   0.080420 0.141920 0.456950 -0.486448
O17   O     O_R   0.919580 0.858080 0.543050 -0.498796
O18   O     O_R   0.376490 0.315000 0.456880 -0.488478
O19   O     O_R   0.623510 0.685000 0.543120 -0.488069
O20   O     O_2   0.615870 0.347002 0.911364 -0.238856
O21   O     O_2   0.620498 0.465226 0.884641 -0.307982
O22   O     O_3   0.723892 0.481149 0.015063 -0.472579
O23   O     O_R   0.376520 0.141930 0.456900 -0.550863
O24   O     O_2   0.377179 0.536623 0.117275 -0.308571
O25   O     O_2   0.378771 0.652245 0.086705 -0.247966
O26   O     O_3   0.271983 0.516253 0.985809 -0.471365
O27   O     O_3   0.620732 0.630335 0.055766 -0.506185
O28   O     O_3   0.375102 0.368652 0.944159 -0.505010
O29   O     O_3   0.993388 0.836689 0.418585 -0.543784
O30   O     O_3   0.006092 0.163920 0.581827 -0.538202
O31   O     O_2   0.213265 0.950747 0.513139 -0.251898
O32   O     O_2   0.234848 0.042420 0.638614 -0.262661
O33   O     O_3   0.178125 0.886315 0.586179 -0.523324
O34   O     O_R   0.623480 0.858070 0.543100 -0.550263
O35   O     O_2   0.764898 0.958790 0.362108 -0.276165
O36   O     O_2   0.786848 0.050287 0.487913 -0.290725
O37   O     O_3   0.822493 0.114902 0.414768 -0.525146
O38   O     O_3   0.032938 0.021781 0.640127 -0.556585
O39   O     O_3   0.966726 0.978493 0.360108 -0.540091
O40   O     O_3   0.657143 0.081470 0.556963 -0.508258
O41   O     O_3   0.342773 0.918578 0.443021 -0.507251
O42   O     O_2   0.268042 0.481721 0.376467 -0.246278
O43   O     O_2   0.293964 0.552837 0.506776 -0.320553
O44   O     O_3   0.334987 0.637990 0.450745 -0.513431
O45   O     O_R   0.184990 0.419580 0.543110 -0.508679
O46   O     O_2   0.706153 0.447162 0.493356 -0.325024
O47   O     O_2   0.732051 0.518616 0.623642 -0.246132
O48   O     O_3   0.665269 0.362312 0.549685 -0.515917
O49   O     O_3   0.510446 0.658851 0.595036 -0.492296
O50   O     O_3   0.489939 0.341293 0.404977 -0.492476
O51   O     O_2   0.895840 0.156019 0.102078 -0.173654
O52   O     O_2   0.011844 0.235586 0.110900 -0.277162
O53   O     O_3   0.874101 0.182116 0.989298 -0.417910
O54   O     O_2   0.991285 0.767792 0.882543 -0.300606
O55   O     O_2   0.111536 0.850292 0.899604 -0.196518
O56   O     O_R   0.815010 0.580420 0.456890 -0.503686
O57   O     O_3   0.125508 0.815724 0.006788 -0.470300
O58   O     O_3   0.029338 0.097747 0.940073 -0.557623
O59   O     O_3   0.967473 0.906543 0.059756 -0.557578
O60   O     O_2   0.772173 0.011424 0.900412 -0.178019
O61   O     O_2   0.775689 0.872089 0.889758 -0.297978
O62   O     O_3   0.785502 0.988284 0.012681 -0.434195
O63   O     O_2   0.227927 0.127402 0.116416 -0.327284
O64   O     O_2   0.229208 0.985134 0.098800 -0.194108
O65   O     O_3   0.220117 0.017227 0.991571 -0.486177
O66   O     O_2   0.066150 0.427394 0.653235 -0.250839
O67   O     O_R   0.332220 0.270690 0.664420 -0.523848
O68   O     O_2   0.183451 0.527942 0.687383 -0.279914
O69   O     O_3   0.063575 0.582542 0.717667 -0.438421
O70   O     O_2   0.814812 0.459649 0.312164 -0.271119
O71   O     O_2   0.923750 0.567932 0.343064 -0.291688
O72   O     O_3   0.938907 0.415194 0.284810 -0.449507
O73   O     O_3   0.085409 0.658401 0.595122 -0.527897
O74   O     O_3   0.915427 0.341792 0.401482 -0.484706
O75   O     O_R   0.667780 0.729310 0.335580 -0.524553
O76   O     O_R   0.106290 0.167820 0.335630 -0.520346
S1    S     S_3+6 0.629072 0.439362 0.943429 0.042472
S2    S     S_3+6 0.193963 0.038306 0.060905 0.047571
S3    S     S_3+6 0.091398 0.509608 0.658709 0.047372
S4    S     S_3+6 0.906076 0.485676 0.340819 0.056273
S5    S     S_3+6 0.366953 0.560108 0.056789 0.037571
S6    S     S_3+6 0.179543 0.967787 0.568391 0.027066
S7    S     S_3+6 0.820234 0.033327 0.432416 0.015784
S8    S     S_3+6 0.326438 0.546670 0.452502 0.027238
S9    S     S_3+6 0.673697 0.453500 0.547678 0.024545
S10   S     S_3+6 0.939747 0.164285 0.059621 0.096643
S11   S     S_3+6 0.063969 0.837833 0.937883 0.065063
S12   S     S_3+6 0.809919 0.962107 0.941791 0.081853
Zn1   Zn    Zn3+2 0.307090 0.219220 0.438420 1.003710
Zn2   Zn    Zn3+2 0.692910 0.780780 0.561580 1.003661
Zn3   Zn    Zn3+2 0.280820 0.192930 0.561610 1.039403
Zn4   Zn    Zn3+2 0.719180 0.807070 0.438390 1.038773
Zn5   Zn    Zn3+2 0.131340 0.219220 0.438450 1.055945
Zn6   Zn    Zn3+2 0.868660 0.780780 0.561550 1.036185
Zn7   Zn    Zn3+2 0.280790 0.368660 0.561580 1.011609
Zn8   Zn    Zn3+2 0.719210 0.631340 0.438420 1.013251

loop_
_geom_bond_atom_site_label_1
_geom_bond_atom_site_label_2
_ccdc_geom_bond_type
C25   C31   T    
C81   H44   S    
C66   C68   S    
C63   C65   S    
H80   O69   S    
C26   C32   T    
C93   C94   S    
O12   Zn8   S    
C6    C45   S    
C57   O17   A    
C33   S6    S    
C27   C29   S    
C73   C74   S    
C96   H92   S    
C5    C56   S    
C46   H56   S    
C95   C96   S    
C96   H91   S    
C24   C27   S    
C34   C62   S    
C5    C67   S    
O70   S4    D    
H28   O37   S    
C93   H83   S    
C1    O67   A    
C47   C49   S    
C20   C30   S    
C15   C19   S    
O1    Zn3   S    
C40   O23   A    
C11   C19   S    
C59   C64   S    
C33   C39   S    
O46   S9    D    
C10   S4    S    
C13   C18   S    
C12   O75   A    
C33   C42   S    
C15   C53   S    
C35   C37   S    
O54   S11   D    
C38   C42   S    
C41   O8    A    
O13   Zn4   S    
C83   H48   S    
C90   H71   S    
C11   C14   S    
C40   C50   S    
C95   H88   S    
C6    C78   S    
C58   O18   A    
C92   H75   S    
C59   O19   A    
O75   Zn4   S    
C83   H50   S    
C46   C52   S    
O16   Zn5   S    
C13   H2    S    
C33   C36   S    
C56   C78   S    
C71   H17   S    
C76   H31   S    
C60   C62   S    
O48   S9    S    
C77   H35   S    
C37   C42   S    
C61   C63   S    
C66   H6    S    
O37   S7    S    
C86   H60   S    
O71   S4    D    
C70   H14   S    
C7    C89   T    
O10   Zn6   S    
O15   Zn8   S    
C95   O74   S    
O11   Zn3   S    
C47   O40   S    
C84   O49   S    
C92   H74   S    
C44   H45   S    
C49   C51   S    
O1    Zn5   S    
C45   C67   S    
C62   C64   S    
C68   H7    S    
C23   O49   S    
C51   H67   S    
C16   O5    A    
C94   H85   S    
O62   S12   S    
H64   O53   S    
O72   S4    S    
O32   S6    D    
O4    Zn8   S    
C41   O34   A    
C44   C47   S    
C82   H46   S    
C84   H53   S    
C75   H30   S    
C23   C63   S    
C16   C89   S    
C3    S2    S    
C83   H49   S    
C71   O29   S    
C4    C56   S    
C66   O27   S    
C1    C25   S    
O76   Zn5   S    
C66   H5    S    
C17   O6    A    
C23   C60   S    
C69   O28   S    
C37   O30   S    
C91   O59   S    
C12   O4    A    
C34   C65   S    
C41   C49   S    
C43   O39   S    
O14   Zn7   S    
H79   O65   S    
C62   H1    S    
C93   O73   S    
C42   O38   S    
O5    Zn1   S    
C81   H42   S    
C79   H37   S    
C56   O59   S    
C39   C55   S    
O66   S3    D    
O56   Zn8   S    
C73   H21   S    
C91   H73   S    
C52   H78   S    
O7    Zn3   S    
C4    S12   S    
C20   O27   S    
C96   H90   S    
C91   H72   S    
C35   C38   S    
O12   Zn6   S    
C84   C85   S    
C18   O73   S    
C4    C6    S    
C10   C14   S    
C35   S7    S    
C91   C92   S    
C5    C7    S    
C57   O13   A    
C86   C87   S    
C82   H47   S    
C6    C8    S    
O12   Zn4   S    
C88   H68   S    
C21   C29   S    
C3    C45   S    
C34   C61   S    
C60   S8    S    
O2    Zn6   S    
O18   Zn1   S    
C12   C26   S    
C75   H29   S    
C77   H36   S    
C54   O56   A    
O53   S10   S    
C36   O29   S    
C61   C64   S    
O21   S1    D    
C75   C76   S    
C85   H55   S    
O35   S7    D    
O1    Zn7   S    
O8    Zn4   S    
C70   H13   S    
C59   O15   A    
C38   C57   S    
C9    S3    S    
H51   O44   S    
C58   C65   S    
C50   C52   S    
C2    C17   S    
C72   H19   S    
C10   C19   S    
C93   H82   S    
H4    O26   S    
C71   H16   S    
C76   H33   S    
O44   S8    S    
C77   C79   S    
C86   H59   S    
C85   H57   S    
C80   O40   S    
C48   C50   S    
C9    C11   S    
O63   S2    D    
C58   O14   A    
C48   C51   S    
O69   S3    S    
O19   Zn2   S    
C21   O28   S    
C1    O3    A    
C44   C51   S    
O64   S2    D    
C23   C64   S    
C14   C54   S    
O68   S3    D    
C88   C90   S    
C60   C65   S    
C77   O39   S    
O22   S1    S    
O12   Zn2   S    
O17   Zn6   S    
C13   C15   S    
C90   H69   S    
O9    Zn5   S    
C76   H32   S    
C46   C49   S    
C21   C24   S    
O34   Zn2   S    
C68   H9    S    
C48   O41   S    
O55   S11   D    
O25   S5    D    
C53   O45   A    
C35   C43   S    
O6    Zn2   S    
C44   C50   S    
C21   C28   S    
C81   H43   S    
C79   H38   S    
C72   H20   S    
H77   O62   S    
C73   H22   S    
O67   Zn3   S    
C11   H89   S    
C14   C18   S    
C82   O41   S    
C75   O38   S    
C2    C8    T    
C78   S11   S    
C68   H8    S    
H3    O22   S    
C20   C22   S    
C80   C81   S    
C3    C5    S    
C28   H23   S    
C80   H40   S    
C45   O58   S    
C4    C67   S    
C39   C43   S    
C69   H10   S    
C28   C30   S    
O60   S12   D    
C47   C52   S    
C20   C27   S    
O61   S12   D    
O65   S2    S    
C74   H24   S    
C94   H84   S    
O23   Zn1   S    
C54   O10   A    
C87   H62   S    
O45   Zn7   S    
O57   S11   S    
C17   O2    A    
C53   O9    A    
C80   H41   S    
H27   O33   S    
C67   S10   S    
H65   O57   S    
C9    C15   S    
O3    Zn7   S    
C79   H39   S    
C37   C39   S    
C74   H26   S    
O36   S7    D    
C30   C32   S    
C22   S1    S    
C95   H87   S    
O1    Zn1   S    
O24   S5    D    
C92   H76   S    
C88   H66   S    
C55   O16   A    
C72   H18   S    
C36   C38   S    
C86   O50   S    
O47   S9    D    
C87   H63   S    
C73   O30   S    
O42   S8    D    
O43   S8    D    
C85   H58   S    
C69   C70   S    
C34   O50   S    
H81   O72   S    
C24   C30   S    
O31   S6    D    
C70   H15   S    
C88   O58   S    
C16   O76   A    
C46   C48   S    
C87   H61   S    
C9    C18   S    
C71   C72   S    
C74   H25   S    
O26   S5    S    
C29   C31   S    
C82   C83   S    
O51   S10   D    
C22   C29   S    
C10   C13   S    
C27   H34   S    
C61   S9    S    
C40   O7    A    
C36   C43   S    
C22   C28   S    
C94   H86   S    
H52   O48   S    
C63   H12   S    
C3    C78   S    
O52   S10   D    
C69   H11   S    
C90   H70   S    
O33   S6    S    
O20   S1    D    
C55   O11   A    
C19   O74   S    
C24   S5    S    
C84   H54   S    
