data_mof_unit_48373.cif
_audit_creation_date              2012-12-11T14:52:39-0500
_audit_creation_method            fapswitch 2.2
_symmetry_space_group_name_H-M    P1
_symmetry_Int_Tables_number       1
_space_group_crystal_system       triclinic
_cell_length_a                    19.296856
_cell_length_b                    11.194298
_cell_length_c                    18.845608
_cell_angle_alpha                 90.374723
_cell_angle_beta                  90.699578
_cell_angle_gamma                 91.488457
_cell_volume                      4069.15670579

loop_
_atom_site_label
_atom_site_type_symbol
_atom_type_description
_atom_site_fract_x
_atom_site_fract_y
_atom_site_fract_z
_atom_type_partial_charge
Br1   Br    Br    0.339495 0.852685 0.991624 -0.528370
Br2   Br    Br    0.679278 0.384955 0.393753 -0.468725
Br3   Br    Br    0.905209 0.043117 0.562963 -0.455895
Br4   Br    Br    0.179430 0.884882 0.393676 -0.468697
Br5   Br    Br    0.466422 0.551042 0.952990 -0.186184
Br6   Br    Br    0.407189 0.678183 0.112507 -0.293115
Br7   Br    Br    0.966422 0.051042 0.952990 -0.186187
Br8   Br    Br    0.907189 0.178183 0.112507 -0.293118
Br9   Br    Br    0.320268 0.393517 0.892577 -0.314466
Br10  Br    Br    0.596790 0.520793 0.067783 -0.236435
Br11  Br    Br    0.820268 0.893517 0.892577 -0.314470
Br12  Br    Br    0.667477 0.807498 0.000109 -0.606886
Br13  Br    Br    0.096790 0.020793 0.067783 -0.236436
Br14  Br    Br    0.354218 0.388916 0.067639 -0.230179
Br15  Br    Br    0.619527 0.550806 0.892000 -0.298655
Br16  Br    Br    0.854218 0.888916 0.067639 -0.230179
Br17  Br    Br    0.119527 0.050806 0.892000 -0.298677
Br18  Br    Br    0.187990 0.795698 0.105591 -0.307050
Br19  Br    Br    0.909382 0.662399 0.940619 -0.269842
Br20  Br    Br    0.687990 0.295698 0.105591 -0.307069
Br21  Br    Br    0.409382 0.162399 0.940619 -0.269838
Br22  Br    Br    0.128500 0.764775 0.938725 -0.286599
Br23  Br    Br    0.839495 0.352685 0.991624 -0.528372
Br24  Br    Br    0.891351 0.593311 0.108751 -0.342707
Br25  Br    Br    0.628500 0.264775 0.938725 -0.286590
Br26  Br    Br    0.391351 0.093312 0.108751 -0.342703
Br27  Br    Br    0.427909 0.020908 0.391288 -0.346134
Br28  Br    Br    0.438791 0.080301 0.561246 -0.317998
Br29  Br    Br    0.927878 0.520832 0.391282 -0.346199
Br30  Br    Br    0.938770 0.580274 0.561234 -0.318099
Br31  Br    Br    0.167477 0.307498 0.000109 -0.606889
Br32  Br    Br    0.111196 0.544991 0.611457 -0.417077
Br33  Br    Br    0.854736 0.806930 0.448887 -0.337544
Br34  Br    Br    0.611218 0.044942 0.611460 -0.417075
Br35  Br    Br    0.354697 0.306954 0.448906 -0.337616
Br36  Br    Br    0.405199 0.543069 0.562979 -0.455951
C1    C     C_R   0.274586 0.040702 0.854675 0.596262
C2    C     C_R   0.688843 0.550982 0.031546 0.208972
C3    C     C_3   0.031917 0.329707 0.063602 0.002540
C4    C     C_R   0.786573 0.013693 0.955811 0.185138
C5    C     C_R   0.188843 0.050982 0.031546 0.208973
C6    C     C_R   0.289770 0.500319 0.029862 0.205584
C7    C     C_R   0.697271 0.550186 0.957267 0.201494
C8    C     C_R   0.789770 0.000319 0.029861 0.205586
C9    C     C_R   0.197271 0.050186 0.957267 0.201497
C10   C     C_R   0.249212 0.573840 0.074049 0.019261
C11   C     C_R   0.761812 0.577352 0.928351 0.020952
C12   C     C_R   0.749212 0.073840 0.074049 0.019262
C13   C     C_R   0.727649 0.038466 0.145859 0.601420
C14   C     C_R   0.261812 0.077352 0.928351 0.020953
C15   C     C_R   0.214405 0.667930 0.044279 0.190092
C16   C     C_R   0.818275 0.614320 0.973729 0.214743
C17   C     C_R   0.714405 0.167930 0.044279 0.190093
C18   C     C_R   0.318275 0.114320 0.973729 0.214741
C19   C     C_R   0.206358 0.675158 0.971277 0.144894
C20   C     C_R   0.811221 0.604287 0.046937 0.205363
C21   C     C_R   0.706358 0.175158 0.971277 0.144892
C22   C     C_R   0.311221 0.104287 0.046937 0.205362
C23   C     C_R   0.247819 0.604433 0.926293 -0.031927
C24   C     C_R   0.774586 0.540702 0.854675 0.596263
C25   C     C_R   0.746275 0.585243 0.076400 0.027435
C26   C     C_R   0.747819 0.104432 0.926293 -0.031933
C27   C     C_R   0.246275 0.085243 0.076400 0.027436
C28   C     C_R   0.537548 0.750244 0.548178 0.108779
C29   C     C_R   0.541118 0.733736 0.475013 0.095452
C30   C     C_R   0.037580 0.250274 0.548191 0.108814
C31   C     C_R   0.041191 0.233803 0.475026 0.095442
C32   C     C_R   0.512216 0.820106 0.428471 -0.035960
C33   C     C_R   0.495537 0.839345 0.574965 0.035122
C34   C     C_R   0.012250 0.320122 0.428480 -0.035897
C35   C     C_R   0.227649 0.538466 0.145859 0.601427
C36   C     C_R   0.995541 0.339345 0.574968 0.035159
C37   C     C_R   0.474167 0.913755 0.455371 0.119847
C38   C     C_R   0.468934 0.927562 0.528602 0.179454
C39   C     C_R   0.974168 0.413733 0.455371 0.119802
C40   C     C_R   0.968929 0.427544 0.528600 0.179440
C41   C     C_R   0.446946 0.817482 0.862528 0.586948
C42   C     C_R   0.557721 0.818748 0.137509 0.598776
C43   C     C_R   0.946946 0.317482 0.862528 0.586950
C44   C     C_R   0.057721 0.318748 0.137509 0.598779
C45   C     C_R   0.188452 0.568033 0.548601 0.164980
C46   C     C_3   0.499454 0.712565 0.976531 0.190830
C47   C     C_R   0.783037 0.694419 0.477012 0.206288
C48   C     C_R   0.688465 0.068042 0.548598 0.164896
C49   C     C_R   0.283002 0.194429 0.477007 0.206261
C50   C     C_R   0.177915 0.574125 0.476721 0.041929
C51   C     C_R   0.774120 0.685829 0.549074 0.094329
C52   C     C_R   0.677924 0.074108 0.476719 0.041952
C53   C     C_R   0.274089 0.185787 0.549064 0.094311
C54   C     C_R   0.235648 0.573883 0.429882 0.042601
C55   C     C_R   0.748689 0.578068 0.575957 0.035057
C56   C     C_R   0.735654 0.073890 0.429876 0.042636
C57   C     C_3   0.464419 0.762792 0.042879 0.176280
C58   C     C_R   0.248752 0.077950 0.575925 0.035144
C59   C     C_R   0.302863 0.583402 0.456814 0.102236
C60   C     C_R   0.717107 0.490238 0.529999 0.058086
C61   C     C_R   0.802871 0.083428 0.456802 0.102267
C62   C     C_R   0.217288 0.990044 0.529947 0.058016
C63   C     C_R   0.313057 0.577285 0.529939 0.145254
C64   C     C_R   0.717413 0.507296 0.456983 0.107241
C65   C     C_R   0.813069 0.077335 0.529927 0.145272
C66   C     C_R   0.217506 0.007209 0.456939 0.107211
C67   C     C_R   0.254823 0.581450 0.575400 0.002852
C68   C     C_3   0.999454 0.212565 0.976531 0.190832
C69   C     C_R   0.749677 0.609786 0.430547 0.036929
C70   C     C_R   0.754835 0.081496 0.575389 0.002816
C71   C     C_R   0.249679 0.109781 0.430532 0.036969
C72   C     C_R   0.260457 0.641589 0.852618 0.586064
C73   C     C_R   0.738031 0.636032 0.148128 0.612978
C74   C     C_R   0.760457 0.141589 0.852618 0.586078
C75   C     C_R   0.238031 0.136032 0.148128 0.612986
C76   C     C_R   0.271118 0.043782 0.646218 0.562787
C77   C     C_R   0.725193 0.040993 0.355937 0.600877
C78   C     C_R   0.771102 0.543814 0.646230 0.562689
C79   C     C_3   0.964419 0.262792 0.042879 0.176280
C80   C     C_R   0.225190 0.540989 0.355940 0.600941
C81   C     C_R   0.468506 0.825149 0.646707 0.570121
C82   C     C_R   0.532952 0.820709 0.354145 0.591612
C83   C     C_R   0.968505 0.325148 0.646708 0.570111
C84   C     C_R   0.032965 0.320711 0.354150 0.591658
C85   C     C_R   0.261412 0.637288 0.644230 0.568597
C86   C     C_R   0.739593 0.641464 0.357311 0.611515
C87   C     C_R   0.761418 0.137307 0.644224 0.568492
C88   C     C_R   0.239592 0.141467 0.357307 0.611573
C89   C     C_3   0.507951 0.939595 0.023050 0.121215
C90   C     C_R   0.286573 0.513693 0.955811 0.185138
C91   C     C_3   0.540689 0.889820 0.956440 0.093665
C92   C     C_3   0.007951 0.439595 0.023050 0.121216
C93   C     C_3   0.040689 0.389820 0.956440 0.093666
C94   C     C_3   0.438212 0.871699 0.001427 0.137033
C95   C     C_3   0.568589 0.782896 0.997568 0.107563
C96   C     C_3   0.938212 0.371699 0.001427 0.137034
C97   C     C_3   0.068589 0.282896 0.997568 0.107564
C98   C     C_3   0.474552 0.822357 0.935904 -0.006118
C99   C     C_3   0.531917 0.829707 0.063602 0.002541
C100  C     C_3   0.974552 0.322357 0.935904 -0.006118
Cr1   Cr    Cr6+3 0.229630 0.835900 0.747350 1.155619
Cr2   Cr    Cr6+3 0.614200 0.677120 0.250660 1.165512
Cr3   Cr    Cr6+3 0.885800 0.177120 0.749340 1.149897
Cr4   Cr    Cr6+3 0.114200 0.177120 0.250660 1.165478
Cr5   Cr    Cr6+3 0.770370 0.835900 0.252650 1.176956
Cr6   Cr    Cr6+3 0.729630 0.335900 0.747350 1.155654
Cr7   Cr    Cr6+3 0.270370 0.335900 0.252650 1.176966
Cr8   Cr    Cr6+3 0.387410 0.989850 0.750850 1.164207
Cr9   Cr    Cr6+3 0.612590 0.989850 0.249150 1.129161
Cr10  Cr    Cr6+3 0.887410 0.489850 0.750850 1.164171
Cr11  Cr    Cr6+3 0.112590 0.489850 0.249150 1.129161
Cr12  Cr    Cr6+3 0.385800 0.677120 0.749340 1.149916
H1    H     H_    0.101591 0.660822 0.423960 0.314862
H2    H     H_    0.383485 0.687167 0.424303 0.245350
H3    H     H_    0.711892 0.310608 0.534882 0.251302
H4    H     H_    0.634129 0.377220 0.541478 0.282134
H5    H     H_    0.896081 0.039287 0.414297 0.297515
H6    H     H_    0.883491 0.187183 0.424275 0.245375
H7    H     H_    0.212395 0.810441 0.534658 0.251047
H8    H     H_    0.134569 0.876632 0.541552 0.282335
H9    H     H_    0.520529 0.124992 0.011910 0.336693
H10   H     H_    0.524762 0.078154 0.097934 0.315118
H11   H     H_    0.618543 0.005765 0.929519 0.277745
H12   H     H_    0.095897 0.507749 0.424485 0.262239
H13   H     H_    0.598118 0.903943 0.866679 0.270778
H14   H     H_    0.020529 0.624992 0.011910 0.336694
H15   H     H_    0.024762 0.578154 0.097934 0.315117
H16   H     H_    0.118543 0.505765 0.929519 0.277745
H17   H     H_    0.098118 0.403943 0.866679 0.270772
H18   H     H_    0.602274 0.734150 0.634060 0.251571
H19   H     H_    0.549259 0.612094 0.617856 0.299574
H20   H     H_    0.590355 0.572935 0.487797 0.270668
H21   H     H_    0.530574 0.574480 0.425395 0.273987
H22   H     H_    0.102262 0.234170 0.634107 0.251561
H23   H     H_    0.757462 0.795183 0.633727 0.232809
H24   H     H_    0.049272 0.112099 0.617853 0.299581
H25   H     H_    0.090581 0.073175 0.487806 0.270669
H26   H     H_    0.030783 0.074515 0.425430 0.274076
H27   H     H_    0.842721 0.770355 0.617725 0.320681
H28   H     H_    0.601552 0.160677 0.423954 0.314913
H29   H     H_    0.595945 0.007595 0.424502 0.262153
H30   H     H_    0.257355 0.295086 0.633723 0.232789
H31   H     H_    0.342633 0.270382 0.617743 0.320660
H32   H     H_    0.396074 0.539274 0.414308 0.297467
N1    N     N_3   0.107707 0.583465 0.453770 -0.521857
N2    N     N_3   0.577211 0.962090 0.903881 -0.513829
N3    N     N_3   0.035392 0.557389 0.045475 -0.542568
N4    N     N_3   0.077211 0.462090 0.903881 -0.513834
N5    N     N_3   0.579492 0.679417 0.594596 -0.620857
N6    N     N_3   0.571187 0.626533 0.447590 -0.543390
N7    N     N_3   0.079510 0.179445 0.594621 -0.620953
N8    N     N_3   0.071351 0.126685 0.447604 -0.543637
N9    N     N_3   0.794493 0.785081 0.594226 -0.549269
N10   N     N_3   0.607710 0.083342 0.453772 -0.521886
N11   N     N_3   0.294403 0.285049 0.594232 -0.549356
N12   N     N_3   0.359558 0.605840 0.409502 -0.553127
N13   N     N_3   0.686280 0.382393 0.557176 -0.530994
N14   N     N_3   0.859564 0.105850 0.409485 -0.553122
N15   N     N_3   0.186739 0.881982 0.557087 -0.531362
N16   N     N_3   0.535392 0.057389 0.045475 -0.542567
O1    O     O_R   0.214270 0.709000 0.827470 -0.455561
O2    O     O_R   0.543270 0.717630 0.330160 -0.481312
O3    O     O_R   0.956730 0.217630 0.669840 -0.486789
O4    O     O_R   0.043270 0.217630 0.330160 -0.481347
O5    O     O_R   0.320620 0.625640 0.672920 -0.466774
O6    O     O_R   0.679380 0.625640 0.327080 -0.461499
O7    O     O_R   0.820620 0.125640 0.672920 -0.466763
O8    O     O_R   0.179380 0.125640 0.327080 -0.461531
O9    O     O_3   0.334280 0.834290 0.749180 -0.345758
O10   O     O_3   0.665720 0.834290 0.250820 -0.363877
O11   O     O_3   0.834280 0.334290 0.749180 -0.345772
O12   O     O_R   0.785730 0.709000 0.172530 -0.436634
O13   O     O_3   0.165720 0.334290 0.250820 -0.363877
O14   O     O_R   0.236160 0.958490 0.823130 -0.457922
O15   O     O_R   0.763840 0.958490 0.176870 -0.459926
O16   O     O_R   0.736160 0.458490 0.823130 -0.457910
O17   O     O_R   0.263840 0.458490 0.176870 -0.459928
O18   O     O_R   0.332080 0.075470 0.831280 -0.459761
O19   O     O_R   0.667920 0.075470 0.168720 -0.464038
O20   O     O_R   0.832080 0.575470 0.831280 -0.459763
O21   O     O_R   0.167920 0.575470 0.168720 -0.464035
O22   O     O_R   0.446300 0.918110 0.826620 -0.453953
O23   O     O_R   0.714270 0.209000 0.827470 -0.455539
O24   O     O_R   0.553700 0.918110 0.173380 -0.481647
O25   O     O_R   0.946300 0.418110 0.826620 -0.453953
O26   O     O_R   0.053700 0.418110 0.173380 -0.481645
O27   O     O_R   0.457110 0.716200 0.831760 -0.456732
O28   O     O_R   0.542890 0.716200 0.168240 -0.424370
O29   O     O_R   0.957110 0.216200 0.831760 -0.456736
O30   O     O_R   0.042890 0.216200 0.168240 -0.424366
O31   O     O_R   0.320980 0.624310 0.823030 -0.461728
O32   O     O_R   0.679020 0.624310 0.176970 -0.472097
O33   O     O_R   0.820980 0.124310 0.823030 -0.461723
O34   O     O_R   0.285730 0.209000 0.172530 -0.436637
O35   O     O_R   0.179020 0.124310 0.176970 -0.472095
O36   O     O_R   0.213890 0.710430 0.665540 -0.454277
O37   O     O_R   0.786110 0.710430 0.334460 -0.453302
O38   O     O_R   0.713890 0.210430 0.665540 -0.454426
O39   O     O_R   0.286110 0.210430 0.334460 -0.453300
O40   O     O_R   0.235810 0.959820 0.673020 -0.468065
O41   O     O_R   0.764190 0.959820 0.326980 -0.463256
O42   O     O_R   0.735810 0.459820 0.673020 -0.468051
O43   O     O_R   0.264190 0.459820 0.326980 -0.463239
O44   O     O_R   0.331700 0.076900 0.669350 -0.492662
O45   O     O_R   0.445950 0.919440 0.676520 -0.451404
O46   O     O_R   0.668300 0.076900 0.330650 -0.508396
O47   O     O_R   0.831700 0.576900 0.669350 -0.492667
O48   O     O_R   0.168300 0.576900 0.330650 -0.508400
O49   O     O_R   0.554050 0.919440 0.323480 -0.485654
O50   O     O_R   0.945950 0.419440 0.676520 -0.451402
O51   O     O_R   0.054050 0.419440 0.323480 -0.485665
O52   O     O_R   0.456730 0.717630 0.669840 -0.486791

loop_
_geom_bond_atom_site_label_1
_geom_bond_atom_site_label_2
_ccdc_geom_bond_type
C47   C51   A    
C87   O7    A    
C80   O48   A    
H25   N8    S    
H30   N11   S    
Br12  C95   S    
C51   C55   A    
H18   N5    S    
C75   O35   A    
C37   C38   A    
C1    O18   A    
C63   C67   A    
C91   C98   S    
Cr6   O16   S    
C36   C40   A    
C25   C73   S    
C92   C93   S    
Br13  C5    S    
Cr2   O10   S    
C82   O49   A    
C21   C26   A    
Cr7   O13   S    
Cr1   O9    S    
C31   N8    S    
C23   C90   A    
C52   N10   S    
C43   C100  S    
Cr12  O31   S    
C80   O43   A    
Cr8   O44   S    
C64   C69   A    
C14   C18   A    
Br25  C21   S    
H4    N13   S    
C88   O8    A    
C83   O3    A    
C9    C14   A    
C83   O50   A    
Br17  C9    S    
H21   N6    S    
C19   C23   A    
Cr4   O8    S    
C45   C67   A    
Br21  C18   S    
Cr3   O3    S    
C41   O22   A    
C58   C62   A    
H24   N7    S    
H9    N16   S    
C92   C96   S    
Cr12  O52   S    
C4    C26   A    
H23   N9    S    
C6    C10   A    
Cr7   O39   S    
H13   N2    S    
Cr5   O10   S    
C72   O1    A    
C33   C81   S    
Br8   C79   S    
C32   C82   S    
C55   C60   A    
Cr9   O19   S    
C88   O39   A    
Br19  C16   S    
C41   O27   A    
C30   C36   A    
H5    N14   S    
C52   C56   A    
C34   C84   S    
C76   O44   A    
Br4   C66   S    
C70   C87   S    
C69   C86   S    
C50   N1    S    
C48   C70   A    
C3    C92   S    
C84   O51   A    
C54   C80   S    
C56   C77   S    
Br16  C8    S    
C15   C19   A    
C28   N5    S    
Br31  C97   S    
C78   O42   A    
C2    C25   A    
C42   O24   A    
Cr11  O51   S    
C29   C32   A    
C77   O41   A    
C78   O47   A    
C11   C24   S    
Br28  C38   S    
H11   N2    S    
C85   O36   A    
C81   O45   A    
C30   N7    S    
H1    N1    S    
C94   C98   S    
C92   N3    S    
Br34  C48   S    
C71   C88   S    
Cr1   O36   S    
C89   C94   S    
Cr10  O47   S    
Cr6   O11   S    
Cr9   O10   S    
Br15  C7    S    
C73   O32   A    
C56   C61   A    
C43   O25   A    
C91   C95   S    
C79   C96   S    
C12   C17   A    
Cr6   O23   S    
C62   N15   S    
H20   N6    S    
C68   C97   S    
C68   C79   S    
H15   N3    S    
Br11  C4    S    
C22   C27   A    
Cr7   O43   S    
C54   C59   A    
H8    N15   S    
H7    N15   S    
Br1   C94   S    
C50   C54   A    
Br26  C22   S    
Cr10  O25   S    
C49   C53   A    
Cr10  O11   S    
C89   N16   S    
Br32  C45   S    
C32   C37   A    
C35   O17   A    
C76   O40   A    
C44   O26   A    
C10   C15   A    
C87   O38   A    
H10   N16   S    
C47   C69   A    
Br5   C46   S    
C24   O20   A    
C48   C52   A    
C61   N14   S    
C46   C98   S    
C73   O12   A    
C39   C40   A    
Cr8   O22   S    
H16   N4    S    
C74   O33   A    
H14   N3    S    
C93   C100  S    
Br30  C40   S    
H28   N10   S    
C26   C74   S    
Cr2   O28   S    
C96   C100  S    
Br6   C57   S    
C59   N12   S    
Cr8   O45   S    
C13   O15   A    
C18   C22   A    
C53   N11   S    
Br2   C64   S    
C33   C38   A    
Cr3   O33   S    
Br14  C6    S    
Cr1   O40   S    
Cr2   O32   S    
C74   O23   A    
C24   O16   A    
C10   C35   S    
C11   C16   A    
Cr11  O26   S    
Cr3   O11   S    
Cr12  O9    S    
C93   C97   S    
Cr2   O2    S    
H26   N8    S    
C60   N13   S    
C93   N4    S    
Cr1   O1    S    
Br3   C65   S    
C3    C79   S    
Br7   C68   S    
H32   N12   S    
C42   C99   S    
C41   C98   S    
C5    C27   A    
C57   C94   S    
C82   O2    A    
C66   C71   A    
H12   N1    S    
C34   C39   A    
Cr11  O21   S    
H27   N9    S    
C89   C91   S    
Cr8   O9    S    
C3    C97   S    
C81   O52   A    
C65   C70   A    
Cr6   O42   S    
Cr5   O15   S    
C29   N6    S    
C12   C13   S    
C17   C21   A    
H29   N10   S    
C68   C100  S    
Cr10  O50   S    
H17   N4    S    
Cr4   O30   S    
Cr12  O27   S    
Cr5   O41   S    
C45   C50   A    
Br20  C17   S    
C57   C99   S    
Br33  C47   S    
C53   C58   A    
Br27  C37   S    
Br23  C96   S    
Br22  C19   S    
Br29  C39   S    
C72   O31   A    
Cr9   O49   S    
Br18  C15   S    
Br24  C20   S    
C28   C33   A    
Cr4   O13   S    
C13   O19   A    
C95   C99   S    
Br9   C90   S    
C35   O21   A    
C55   C78   S    
C51   N9    S    
Cr1   O14   S    
Br10  C2    S    
C31   C34   A    
C23   C72   S    
H3    N13   S    
Cr3   O29   S    
Cr4   O4    S    
Cr5   O12   S    
C85   O5    A    
C2    C7    A    
C62   C66   A    
C3    C44   S    
Cr8   O18   S    
C1    C14   S    
Cr2   O6    S    
C89   C99   S    
Cr9   O24   S    
Cr11  O13   S    
Cr11  O48   S    
C91   N2    S    
C60   C64   A    
C28   C29   A    
C58   C76   S    
C84   O4    A    
Cr9   O46   S    
C30   C31   A    
Br36  C63   S    
C59   C63   A    
Cr7   O34   S    
C27   C75   S    
Cr7   O17   S    
H22   N7    S    
Cr10  O20   S    
C1    O14   A    
C36   C83   S    
C6    C90   A    
H2    N12   S    
H6    N14   S    
Br35  C49   S    
C8    C12   A    
C86   O6    A    
C4    C8    A    
C86   O37   A    
H31   N11   S    
Cr4   O35   S    
Cr5   O37   S    
C77   O46   A    
Cr6   O38   S    
C46   C57   S    
C75   O34   A    
C5    C9    A    
C20   C25   A    
Cr3   O7    S    
C44   O30   A    
C46   C95   S    
C49   C71   A    
C7    C11   A    
C43   O29   A    
C61   C65   A    
C16   C20   A    
C42   O28   A    
Cr12  O5    S    
H19   N5    S    
C67   C85   S    
