data_mof_unit_27819.cif
_audit_creation_date              2012-12-10T17:04:33-0500
_audit_creation_method            fapswitch 2.2
_symmetry_space_group_name_H-M    P1
_symmetry_Int_Tables_number       1
_space_group_crystal_system       triclinic
_cell_length_a                    14.998887
_cell_length_b                    10.660968
_cell_length_c                    10.009686
_cell_angle_alpha                 89.120115
_cell_angle_beta                  89.69763
_cell_angle_gamma                 90.039557
_cell_volume                      1600.36386712

loop_
_atom_site_label
_atom_site_type_symbol
_atom_type_description
_atom_site_fract_x
_atom_site_fract_y
_atom_site_fract_z
_atom_type_partial_charge
C1    C     C_R   0.510082 0.263180 0.500860 0.933368
C2    C     C_R   0.906265 0.537317 0.613212 0.120651
C3    C     C_R   0.956631 0.399339 0.280251 0.692808
C4    C     C_R   0.049016 0.400632 0.282271 -0.347891
C5    C     C_R   0.094004 0.447995 0.392385 0.048423
C6    C     C_R   0.046681 0.492824 0.504325 0.063669
C7    C     C_R   0.092351 0.539168 0.617234 0.107275
C8    C     C_R   0.043839 0.583216 0.729236 0.150256
C9    C     C_R   0.950844 0.581956 0.724932 -0.201065
C10   C     C_R   0.186013 0.451255 0.391775 -0.215478
C11   C     C_R   0.231040 0.497681 0.501664 -0.070375
C12   C     C_R   0.326748 0.499708 0.500396 0.878675
C13   C     C_R   0.185198 0.540804 0.613567 -0.264791
C14   C     C_2   0.536784 0.934323 0.392397 0.661330
C15   C     C_2   0.498104 0.871465 0.493873 -0.524285
C16   C     C_2   0.532285 0.069165 0.390895 -0.240479
C17   C     C_2   0.543575 0.136137 0.502200 -0.076116
C18   C     C_2   0.556381 0.564287 0.923414 -0.118763
C19   C     C_2   0.559513 0.558433 0.073647 -0.028844
C20   C     C_R   0.499441 0.738054 0.498661 0.982742
C21   C     C_R   0.673315 0.498406 0.499627 0.929194
C22   C     C_R   0.814195 0.538402 0.610763 -0.300341
C23   C     C_R   0.769155 0.494559 0.499299 -0.230050
C24   C     C_R   0.815427 0.446705 0.389374 0.629294
C25   C     C_R   0.908243 0.445397 0.389713 -0.157616
C26   C     C_R   0.953762 0.491656 0.502516 -0.099655
H1    H     H_    0.777443 0.575104 0.695264 0.184883
H2    H     H_    0.466605 0.919479 0.576717 0.124157
H3    H     H_    0.506621 0.111476 0.299442 0.173727
H4    H     H_    0.604804 0.623736 0.872267 0.165839
H5    H     H_    0.458260 0.439605 0.899197 0.162560
H6    H     H_    0.613693 0.607090 0.122162 0.197736
H7    H     H_    0.446874 0.461055 0.103218 0.152385
H8    H     H_    0.085550 0.364693 0.197403 0.172992
H9    H     H_    0.222667 0.416638 0.306161 0.156369
H10   H     H_    0.223035 0.576831 0.696128 0.172733
H11   H     H_    0.912771 0.615419 0.809660 0.155848
N1    N     N_2   0.500970 0.501330 0.852150 -0.196592
N2    N     N_2   0.500990 0.501360 0.147810 -0.195314
O1    O     O_R   0.499990 0.319060 0.613040 -0.616300
O2    O     O_R   0.500010 0.319100 0.386900 -0.620760
O3    O     O_R   0.367830 0.499950 0.613080 -0.623302
O4    O     O_R   0.367860 0.499990 0.386940 -0.631636
O5    O     O_R   0.499990 0.680900 0.613100 -0.624907
O6    O     O_R   0.500010 0.680940 0.386960 -0.548604
O7    O     O_R   0.632140 0.500010 0.613060 -0.643643
O8    O     O_R   0.632170 0.500050 0.386920 -0.549605
Zn1   Zn    Zn3+2 0.499980 0.499970 0.650990 0.941149
Zn2   Zn    Zn3+2 0.500020 0.500030 0.349010 1.008617
C27   C     C_3   0.596138 0.089115 0.623657 -0.412018
C28   C     C_3   0.679009 0.169196 0.647561 -0.768716
H12   H     H_    0.719245 0.178518 0.554395 0.263560
H13   H     H_    0.660344 0.263656 0.682808 0.274784
H14   H     H_    0.720759 0.123960 0.725886 0.251685
H15   H     H_    0.552631 0.090262 0.713820 0.219781
H16   H     H_    0.620699 0.991900 0.611581 0.222960
F1    F     F_    0.769993 0.399731 0.284019 -0.599020
F2    F     F_    0.915347 0.353796 0.170728 -0.609131
C29   C     C_3   0.087827 0.631128 0.854769 -0.411451
C30   C     C_3   0.121090 0.522765 0.942660 -0.835964
H17   H     H_    0.064524 0.460233 0.970637 0.287304
H18   H     H_    0.172503 0.466996 0.890120 0.254050
H19   H     H_    0.150743 0.560292 0.035304 0.247684
H20   H     H_    0.142933 0.697040 0.829647 0.199320
H21   H     H_    0.039560 0.686202 0.914821 0.216308
F3    F     F_    0.573676 0.875928 0.285460 -0.641402

loop_
_geom_bond_atom_site_label_1
_geom_bond_atom_site_label_2
_ccdc_geom_bond_type
C17   C27   S    
C2    C22   A    
C7    C13   A    
O5    Zn1   S    
C23   C24   A    
C3    F2    S    
C10   H9    S    
C18   H4    S    
O2    Zn2   S    
H7    N2    S    
N1    Zn1   S    
C27   H15   S    
H5    N1    S    
O6    Zn2   S    
C11   C12   S    
C28   H14   S    
C9    H11   S    
C27   C28   S    
C18   N1    D    
C29   C30   S    
O8    Zn2   S    
C25   C26   A    
O3    Zn1   S    
C29   H21   S    
C11   C13   A    
C15   H2    S    
C6    C7    A    
C19   N2    D    
C30   H17   S    
C30   H19   S    
C4    C5    A    
C30   H18   S    
N2    Zn2   S    
C21   O7    A    
C12   O4    A    
C4    H8    S    
C22   H1    S    
C21   C23   S    
C8    C29   S    
C14   F3    S    
C5    C6    A    
C14   C16   S    
C7    C8    A    
C10   C11   A    
C19   H6    S    
C28   H13   S    
C5    C10   A    
C3    C4    A    
O7    Zn1   S    
C29   H20   S    
C3    C25   A    
C24   C25   A    
C13   H10   S    
C2    C26   A    
C18   C19   S    
C24   F1    S    
C20   O6    A    
C1    O2    A    
O1    Zn1   S    
C6    C26   A    
O4    Zn2   S    
C12   O3    A    
C1    O1    A    
C20   O5    A    
C16   H3    S    
C14   C15   D    
C2    C9    A    
C1    C17   S    
C15   C20   S    
C22   C23   A    
C27   H16   S    
C28   H12   S    
C16   C17   D    
C8    C9    A    
C21   O8    A    
