data_mof_unit_53042.cif
_audit_creation_date              2012-12-11T15:15:44-0500
_audit_creation_method            fapswitch 2.2
_symmetry_space_group_name_H-M    P1
_symmetry_Int_Tables_number       1
_space_group_crystal_system       triclinic
_cell_length_a                    19.022151
_cell_length_b                    18.887292
_cell_length_c                    20.394608
_cell_angle_alpha                 106.583776
_cell_angle_beta                  106.592709
_cell_angle_gamma                 111.43557
_cell_volume                      5879.49399876

loop_
_atom_site_label
_atom_site_type_symbol
_atom_type_description
_atom_site_fract_x
_atom_site_fract_y
_atom_site_fract_z
_atom_type_partial_charge
C1    C     C_R   0.087321 0.088001 0.354853 -0.160047
C2    C     C_R   0.245792 0.068287 0.540761 -0.140843
C3    C     C_R   0.161606 0.204860 0.717529 -0.130461
C4    C     C_R   0.764777 0.924170 0.508994 0.149010
C5    C     C_R   0.004773 0.766541 0.437716 -0.131868
C6    C     C_R   0.242812 0.241393 0.724874 0.012979
C7    C     C_R   0.964689 0.718511 0.468613 0.079815
C8    C     C_R   0.251919 0.995114 0.530617 0.085452
C9    C     C_R   0.000084 0.974808 0.726276 -0.085564
C10   C     C_R   0.012541 0.611462 0.445995 0.064056
C11   C     C_R   0.950801 0.633140 0.454010 0.058646
C12   C     C_R   0.756521 0.992827 0.546376 0.041651
C13   C     C_R   0.875537 0.572724 0.446978 -0.223600
C14   C     C_R   0.862267 0.491099 0.434857 -0.144600
C15   C     C_R   0.916926 0.466487 0.413125 -0.022562
C16   C     C_R   0.845913 0.781034 0.288574 -0.121200
C17   C     C_R   0.987976 0.525381 0.411795 0.142598
C18   C     C_R   0.795779 0.432876 0.442385 0.455724
C19   C     C_R   0.787751 0.353133 0.432375 0.445940
C20   C     C_R   0.847405 0.332054 0.416978 -0.156698
C21   C     C_R   0.905869 0.385389 0.399516 0.011759
C22   C     C_R   0.959919 0.361230 0.376317 0.197926
C23   C     C_R   0.769280 0.731814 0.285443 0.034247
C24   C     C_R   0.019038 0.414451 0.360375 -0.211997
C25   C     C_R   0.034473 0.496958 0.379771 -0.223897
C26   C     C_R   0.858649 0.266422 0.429000 -0.194194
C27   C     C_R   0.922506 0.251829 0.417731 0.122786
C28   C     C_R   0.945700 0.191087 0.515150 -0.122931
C29   C     C_R   0.962481 0.290134 0.379672 -0.253561
C30   C     C_R   0.403460 0.060918 0.618712 -0.194332
C31   C     C_R   0.327011 0.988713 0.564302 0.074438
C32   C     C_R   0.324337 0.910783 0.534145 -0.273900
C33   C     C_R   0.397641 0.907579 0.544126 0.196149
C34   C     C_R   0.960353 0.212508 0.458486 0.054889
C35   C     C_R   0.475301 0.982412 0.590515 -0.052727
C36   C     C_R   0.478822 0.058498 0.632406 0.036865
C37   C     C_R   0.393581 0.832776 0.500491 -0.212268
C38   C     C_R   0.465165 0.834608 0.495290 -0.202825
C39   C     C_R   0.541381 0.910251 0.536510 0.157676
C40   C     C_R   0.768202 0.774054 0.352500 -0.134689
C41   C     C_R   0.548096 0.982800 0.588433 0.029541
C42   C     C_R   0.625902 0.057753 0.632040 0.108204
C43   C     C_R   0.630810 0.130632 0.680835 -0.382912
C44   C     C_R   0.557209 0.132051 0.680714 0.520930
C45   C     C_R   0.238023 0.212532 0.652772 -0.132346
C46   C     C_R   0.609332 0.916071 0.522201 -0.278435
C47   C     C_R   0.687356 0.989406 0.565599 0.097041
C48   C     C_R   0.696307 0.059594 0.622427 -0.207621
C49   C     C_R   0.318434 0.278486 0.795468 0.082385
C50   C     C_R   0.336772 0.345152 0.862297 0.106104
C51   C     C_R   0.401523 0.366413 0.930568 -0.157621
C52   C     C_R   0.024693 0.197471 0.452219 -0.123218
C53   C     C_R   0.449063 0.324121 0.932889 0.222520
C54   C     C_R   0.433738 0.262117 0.865667 -0.177555
C55   C     C_R   0.368297 0.238754 0.797609 -0.182347
C56   C     C_R   0.930891 0.761095 0.504881 -0.155176
C57   C     C_R   0.638372 0.532314 0.104232 -0.186172
C58   C     C_R   0.695657 0.615876 0.155808 -0.147639
C59   C     C_R   0.675453 0.583660 0.258029 -0.147674
C60   C     C_R   0.618820 0.499409 0.206442 -0.163792
C61   C     C_R   0.597925 0.473450 0.128723 0.019788
C62   C     C_2   0.523217 0.354607 0.003413 -0.278175
C63   C     C_2   0.524791 0.389930 0.071382 0.465957
C64   C     C_R   0.829156 0.065042 0.566459 -0.180114
C65   C     C_R   0.712457 0.642607 0.232467 0.130624
C66   C     C_R   0.105551 0.030529 0.237417 0.006795
C67   C     C_R   0.173901 0.927705 0.477845 -0.138868
C68   C     C_R   0.159147 0.996217 0.227722 0.037249
C69   C     C_R   0.192232 0.005997 0.175062 0.470674
C70   C     C_R   0.171197 0.049394 0.133176 0.020911
C71   C     C_R   0.124984 0.089165 0.149128 -0.196678
C72   C     C_R   0.092340 0.079614 0.200498 -0.202735
C73   C     C_R   0.164227 0.020160 0.910106 -0.192681
C74   C     C_R   0.124967 0.025984 0.844645 -0.192383
C75   C     C_R   0.998197 0.898557 0.807590 -0.203503
C76   C     C_R   0.015762 0.948108 0.289747 -0.137678
C77   C     C_R   0.037010 0.891405 0.872927 0.517425
C78   C     C_R   0.016620 0.049444 0.718466 0.508871
C79   C     C_R   0.119509 0.956265 0.927546 0.019839
C80   C     C_2   0.183602 0.043856 0.064431 -0.207489
C81   C     C_2   0.151523 0.967546 0.007023 -0.175349
C82   C     C_R   0.040705 0.967307 0.794759 0.049948
C83   C     C_R   0.066047 0.021949 0.288719 0.089889
C84   C     C_3   0.105961 0.677789 0.487641 -0.458663
C85   C     C_3   0.134714 0.717896 0.574138 -0.218152
C86   C     C_3   0.225071 0.790020 0.616261 -0.905837
C87   C     C_3   0.731895 0.839329 0.512053 -0.465505
C88   C     C_3   0.738046 0.846375 0.590831 -0.228709
C89   C     C_R   0.954499 0.909618 0.653583 -0.206552
C90   C     C_3   0.725332 0.764240 0.596819 -0.914969
C91   C     C_3   0.291358 0.396568 0.862959 -0.447610
C92   C     C_3   0.349912 0.487559 0.879862 -0.250053
C93   C     C_3   0.303792 0.538795 0.878414 -0.890307
C94   C     C_3   0.186277 0.953303 0.274791 -0.377036
C95   C     C_3   0.273729 0.014715 0.341341 -0.212395
C96   C     C_3   0.310966 0.967607 0.376119 -0.880658
H1    H     H_    0.136344 0.152502 0.377289 0.102041
H2    H     H_    0.006982 0.275149 0.364567 0.110710
H3    H     H_    0.058855 0.395146 0.339963 0.128962
H4    H     H_    0.083494 0.538330 0.370410 0.127052
H5    H     H_    0.404879 0.120127 0.645478 0.162348
H6    H     H_    0.265962 0.853391 0.495164 0.119616
H7    H     H_    0.334066 0.774865 0.465429 0.126113
H8    H     H_    0.460312 0.778046 0.456732 0.130614
H9    H     H_    0.599725 0.864024 0.474743 0.133657
H10   H     H_    0.872608 0.761054 0.251436 0.093827
H11   H     H_    0.756353 0.116859 0.656158 0.126309
H12   H     H_    0.884740 0.735822 0.524661 0.087140
H13   H     H_    0.691091 0.187694 0.715480 0.146689
H14   H     H_    0.724078 0.660467 0.135299 0.115120
H15   H     H_    0.689838 0.602691 0.317678 0.113650
H16   H     H_    0.471798 0.231191 0.866043 0.148878
H17   H     H_    0.622403 0.515251 0.044526 0.117040
H18   H     H_    0.354948 0.187581 0.746673 0.138926
H19   H     H_    0.899612 0.194747 0.534761 0.103339
H20   H     H_    0.581896 0.369942 0.998571 0.100249
H21   H     H_    0.416603 0.418322 0.981788 0.141186
H22   H     H_    0.589357 0.455288 0.226889 0.133674
H23   H     H_    0.154981 0.861530 0.454884 0.088901
H24   H     H_    0.160199 0.077182 0.833516 0.149482
H25   H     H_    0.934016 0.851051 0.767467 0.151067
H26   H     H_    0.132058 0.912629 0.018489 0.154830
H27   H     H_    0.109294 0.123247 0.117891 0.145075
H28   H     H_    0.228329 0.068550 0.949404 0.157021
H29   H     H_    0.053920 0.108432 0.209614 0.141050
H30   H     H_    0.722424 0.747904 0.372204 0.090263
H31   H     H_    0.196090 0.098973 0.053111 0.155663
H32   H     H_    0.052103 0.205782 0.413764 0.097131
H33   H     H_    0.850052 0.128699 0.605951 0.115613
H34   H     H_    0.931784 0.843257 0.638562 0.135912
H35   H     H_    0.997303 0.884533 0.251787 0.093883
H36   H     H_    0.289049 0.235538 0.637786 0.102417
H37   H     H_    0.043667 0.119233 0.821334 0.316890
H38   H     H_    0.267553 0.769067 0.599851 0.263410
H39   H     H_    0.228634 0.844032 0.603232 0.268160
H40   H     H_    0.246239 0.811693 0.678519 0.253169
H41   H     H_    0.094219 0.743442 0.588523 0.205693
H42   H     H_    0.129919 0.668651 0.594865 0.198370
H43   H     H_    0.146283 0.649769 0.478379 0.187391
H44   H     H_    0.120280 0.726837 0.466878 0.183191
H45   H     H_    0.296804 0.131793 0.573921 0.093936
H46   H     H_    0.768477 0.512587 0.498395 0.306031
H47   H     H_    0.662470 0.711266 0.553042 0.266550
H48   H     H_    0.774418 0.749160 0.588897 0.250324
H49   H     H_    0.729616 0.771117 0.653955 0.257781
H50   H     H_    0.800465 0.898634 0.636034 0.209170
H51   H     H_    0.689639 0.860158 0.601796 0.209173
H52   H     H_    0.667130 0.794167 0.467008 0.171035
H53   H     H_    0.771470 0.811404 0.499699 0.199601
H54   H     H_    0.709165 0.240437 0.412752 0.310775
H55   H     H_    0.619645 0.250314 0.754595 0.319261
H56   H     H_    0.143878 0.220076 0.762845 0.180389
H57   H     H_    0.250763 0.509914 0.821361 0.261153
H58   H     H_    0.279290 0.541534 0.921902 0.262420
H59   H     H_    0.347742 0.604274 0.891137 0.249884
H60   H     H_    0.403977 0.519517 0.936805 0.195078
H61   H     H_    0.374602 0.486587 0.836513 0.204682
H62   H     H_    0.236405 0.368951 0.807763 0.199527
H63   H     H_    0.267529 0.396958 0.906831 0.200475
H64   H     H_    0.457643 0.399423 0.126416 0.310313
H65   H     H_    0.266007 0.925055 0.390189 0.256438
H66   H     H_    0.325702 0.929130 0.335403 0.266674
H67   H     H_    0.022828 0.745230 0.393337 0.086554
H68   H     H_    0.369792 0.013644 0.428897 0.256354
H69   H     H_    0.317354 0.050914 0.322063 0.226035
H70   H     H_    0.268720 0.060513 0.385639 0.189559
H71   H     H_    0.142346 0.928222 0.298200 0.166234
H72   H     H_    0.186290 0.897307 0.237568 0.227485
H73   H     H_    0.274622 0.996998 0.139005 0.329174
H74   H     H_    0.028674 0.810790 0.915547 0.307298
H75   H     H_    0.829114 0.590784 0.452764 0.130806
H76   H     H_    0.824785 0.233256 0.454728 0.127759
N1    N     N_R   0.052580 0.056040 0.395500 -0.039635
N2    N     N_R   0.890210 0.849400 0.355780 -0.037355
N3    N     N_R   0.997110 0.161140 0.539580 -0.039839
N4    N     N_R   0.841950 0.845400 0.395490 -0.042004
N5    N     N_R   0.045360 0.165140 0.499870 -0.043632
N6    N     N_R   0.877490 0.041510 0.539580 -0.050011
N7    N     N_R   0.009820 0.969030 0.355780 -0.039371
N8    N     N_R   0.158050 0.154600 0.604510 -0.041246
N9    N     N_R   0.954640 0.834860 0.500130 -0.034799
N10   N     N_R   0.122510 0.958490 0.460420 -0.040989
N11   N     N_R   0.990180 0.030970 0.644220 -0.067796
N12   N     N_R   0.947420 0.943960 0.604500 -0.066192
N13   N     N_R   0.165270 0.045500 0.500140 -0.039939
N14   N     N_R   0.109790 0.150600 0.644220 -0.039295
N15   N     N_R   0.002890 0.838860 0.460420 -0.037701
N16   N     N_R   0.834730 0.954500 0.499860 -0.061231
Ni1   Ni    Ni4+2 0.104370 0.104380 0.500010 0.209896
Ni2   Ni    Ni4+2 0.895630 0.895620 0.499990 0.198471
Ni3   Ni    Ni4+2 0.006300 0.904810 0.408930 0.202775
Ni4   Ni    Ni4+2 0.993700 0.095190 0.591070 0.245593
O1    O     O_3   0.037977 0.125503 0.773771 -0.803261
O2    O     O_3   0.739253 0.452064 0.462477 -0.699193
O3    O     O_3   0.722989 0.299442 0.441554 -0.697250
O4    O     O_3   0.560234 0.204995 0.724524 -0.772737
O5    O     O_3   0.450928 0.358429 0.079022 -0.749163
O6    O     O_3   0.244229 0.972358 0.165853 -0.775309
O7    O     O_3   0.990156 0.823522 0.883050 -0.756363

loop_
_geom_bond_atom_site_label_1
_geom_bond_atom_site_label_2
_ccdc_geom_bond_type
C66   C68   A    
C87   C88   S    
C77   O7    S    
C19   O3    S    
C22   C29   A    
C18   O2    S    
C24   H3    S    
C41   C42   A    
C14   C18   A    
C13   H75   S    
C35   C36   A    
N11   N12   A    
C3    C6    A    
N11   Ni4   S    
N9    N15   A    
C39   C41   A    
C4    C87   S    
C53   C54   A    
C7    C11   S    
C1    N1    A    
C3    H56   S    
C62   C63   D    
C29   H2    S    
C5    H67   S    
C22   C24   A    
C71   H27   S    
C93   H58   S    
C6    C45   A    
C18   C19   A    
C90   H49   S    
N8    Ni1   S    
C38   C39   A    
C12   C64   A    
C76   H35   S    
C48   H11   S    
C27   C29   A    
C56   N9    A    
N1    N7    A    
C10   C17   A    
C23   C40   A    
C46   H9    S    
C64   N6    A    
C96   H65   S    
N16   Ni2   S    
C78   N11   A    
C73   C74   A    
C10   C84   S    
C61   C63   S    
C52   N5    A    
C56   H12   S    
C91   H62   S    
C38   H8    S    
C25   H4    S    
C45   N8    A    
C33   C35   A    
C66   C83   S    
C46   C47   A    
C86   H38   S    
C66   C72   A    
C95   C96   S    
C84   H43   S    
C68   C69   A    
C59   H15   S    
C81   H26   S    
C60   H22   S    
C70   C71   A    
C4    C12   A    
N15   Ni3   S    
C90   H47   S    
C16   H10   S    
C9    C82   S    
N6    N16   A    
C76   N7    A    
C26   H76   S    
C59   C60   A    
C6    C49   S    
C75   H25   S    
C13   C14   A    
C94   C95   S    
C7    C56   A    
C74   C82   A    
C12   C47   S    
C95   H69   S    
C76   C83   A    
H74   O7    S    
N2    N4    A    
C77   C79   A    
C27   C34   S    
H46   O2    S    
C44   O4    S    
N5    Ni1   S    
C87   H52   S    
C70   C80   S    
C89   N12   A    
C93   H59   S    
C24   C25   A    
N3    N5    A    
C94   H72   S    
N3    Ni4   S    
C5    C7    A    
C57   H17   S    
C85   C86   S    
C40   N4    A    
C68   C94   S    
C89   H34   S    
C63   O5    S    
C92   H61   S    
C51   C53   A    
N10   N13   A    
H55   O4    S    
C43   C44   A    
C62   H20   S    
C37   C38   A    
C67   N10   A    
N6    Ni4   S    
N9    Ni2   S    
C50   C91   S    
C58   C65   A    
N4    Ni2   S    
C47   C48   A    
C14   C15   A    
C1    H1    S    
C73   H28   S    
C40   H30   S    
C50   C51   A    
C73   C79   A    
C54   H16   S    
C92   H60   S    
C42   C48   A    
C84   C85   S    
C57   C61   A    
C75   C77   A    
N8    N14   A    
C8    C67   A    
C39   C46   A    
C86   H40   S    
C55   H18   S    
C88   C90   S    
C16   C23   A    
C26   C27   A    
C69   O6    S    
C32   H6    S    
C36   C44   A    
C42   C43   A    
C5    N15   A    
C9    C89   A    
C95   H70   S    
C85   H41   S    
C91   C92   S    
C28   H19   S    
C79   C81   S    
C16   N2    A    
C15   C17   A    
C54   C55   A    
C58   H14   S    
C8    C31   S    
C91   H63   S    
C31   C32   A    
C2    C8    A    
C80   C81   D    
C94   H71   S    
C52   H32   S    
C37   H7    S    
C75   C82   A    
N13   Ni1   S    
H64   O5    S    
C80   H31   S    
C64   H33   S    
C1    C83   A    
C74   H24   S    
N2    Ni3   S    
C34   C52   A    
C3    N14   A    
C30   C36   A    
C72   H29   S    
C17   C25   A    
C32   C33   A    
C4    N16   A    
C19   C20   A    
C93   H57   S    
C2    N13   A    
C71   C72   A    
C49   C55   A    
C59   C65   A    
C11   C13   A    
C23   C65   S    
C57   C58   A    
C30   C31   A    
C20   C26   A    
C30   H5    S    
N1    Ni1   S    
C92   C93   S    
C51   H21   S    
C88   H51   S    
C96   H66   S    
N12   Ni2   S    
C9    C78   A    
C28   N3    A    
N14   Ni4   S    
C69   C70   A    
C35   C41   A    
C33   C37   A    
H54   O3    S    
C53   C62   S    
C10   C11   A    
C28   C34   A    
C96   H68   S    
C86   H39   S    
C15   C21   A    
N7    Ni3   S    
C20   C21   A    
C84   H44   S    
C45   H36   S    
H37   O1    S    
C49   C50   A    
C87   H53   S    
C2    H45   S    
C88   H50   S    
N10   Ni3   S    
C60   C61   A    
C43   H13   S    
C21   C22   A    
C67   H23   S    
C85   H42   S    
C78   O1    S    
C90   H48   S    
H73   O6    S    
