data_mof_unit_16128.cif
_audit_creation_date              2012-12-10T17:02:29-0500
_audit_creation_method            fapswitch 2.2
_symmetry_space_group_name_H-M    P1
_symmetry_Int_Tables_number       1
_space_group_crystal_system       triclinic
_cell_length_a                    10.727517
_cell_length_b                    11.084378
_cell_length_c                    9.901672
_cell_angle_alpha                 111.268017
_cell_angle_beta                  97.535812
_cell_angle_gamma                 92.126397
_cell_volume                      1083.14448811

loop_
_atom_site_label
_atom_site_type_symbol
_atom_type_description
_atom_site_fract_x
_atom_site_fract_y
_atom_site_fract_z
_atom_type_partial_charge
C1    C     C_R   0.492377 0.254659 0.440706 0.897104
C2    C     C_R   0.507584 0.745341 0.559289 0.899439
C3    C     C_2   0.473771 0.116328 0.409567 -0.299058
C4    C     C_2   0.526039 0.883687 0.590401 -0.296304
C5    C     C_2   0.525302 0.064585 0.504862 0.344365
C6    C     C_2   0.474658 0.935309 0.494912 0.343055
C7    C     C_2   0.492779 0.522104 0.080682 0.596016
C8    C     C_2   0.509418 0.477253 0.920001 0.566290
C9    C     C_R   0.261612 0.481637 0.497694 0.856376
C10   C     C_R   0.738850 0.516661 0.501993 0.864923
C11   C     C_R   0.132041 0.488730 0.759015 0.401420
C12   C     C_R   0.869328 0.501969 0.238482 0.263478
C13   C     C_R   0.100810 0.563822 0.895828 0.394673
C14   C     C_R   0.901174 0.423170 0.101512 0.342560
C15   C     C_R   0.007104 0.650069 0.902297 -0.342050
C16   C     C_R   0.994737 0.338536 0.098121 -0.199212
C17   C     C_R   0.934943 0.649161 0.772388 0.435794
C18   C     C_R   0.066926 0.342169 0.228833 0.380640
C19   C     C_R   0.960842 0.563789 0.635197 -0.003539
C20   C     C_R   0.040163 0.428798 0.364587 -0.006460
C21   C     C_R   0.074669 0.504583 0.630706 -0.193572
C22   C     C_R   0.926127 0.487610 0.368094 -0.131976
C23   C     C_R   0.877556 0.536439 0.502425 -0.014254
C24   C     C_R   0.123506 0.457908 0.496971 -0.021749
Cu1   Cu    Cu3+1 0.521920 0.521810 0.644910 1.093540
Cu2   Cu    Cu3+1 0.478080 0.478190 0.355090 1.092658
H1    H     H_    0.015427 0.274356 0.993006 0.215944
H2    H     H_    0.986435 0.713341 0.007817 0.191576
H3    H     H_    0.594866 0.939701 0.685408 0.179741
H4    H     H_    0.404721 0.060457 0.314729 0.181399
N1    N     N_2   0.445130 0.445420 0.137360 -0.050974
N2    N     N_2   0.554870 0.554580 0.862640 -0.068832
O1    O     O_R   0.511700 0.332340 0.577400 -0.473142
O2    O     O_R   0.488300 0.667660 0.422600 -0.475665
O3    O     O_R   0.474680 0.295500 0.332650 -0.610434
O4    O     O_R   0.525320 0.704500 0.667350 -0.607302
O5    O     O_R   0.338170 0.518410 0.622370 -0.576373
O6    O     O_R   0.661830 0.481590 0.377630 -0.574875
O7    O     O_R   0.301150 0.481570 0.377630 -0.540629
O8    O     O_R   0.698850 0.518430 0.622370 -0.540758
Cl1   Cl    Cl    0.214313 0.351250 0.744127 -0.458083
Cl2   Cl    Cl    0.793454 0.643951 0.255092 -0.529234
O9    O     O_3   0.162761 0.550999 0.020544 -0.665213
H5    H     H_    0.129408 0.610071 0.107226 0.355322
O10   O     O_3   0.845038 0.426383 0.969431 -0.667240
H6    H     H_    0.774165 0.481589 0.986032 0.365315
O11   O     O_3   0.845766 0.736639 0.776346 -0.715060
H7    H     H_    0.847567 0.796357 0.879380 0.334641
O12   O     O_3   0.157463 0.256444 0.227305 -0.713518
H8    H     H_    0.156133 0.195277 0.124970 0.331588
Cl3   Cl    Cl    0.338495 0.853523 0.364677 -0.593895
Cl4   Cl    Cl    0.661735 0.146153 0.634728 -0.551280
O13   O     O_3   0.483041 0.348424 0.831613 -0.612363
H9    H     H_    0.527184 0.298068 0.884955 0.346392
O14   O     O_3   0.524547 0.649680 0.170663 -0.616175
H10   H     H_    0.475986 0.702024 0.123368 0.357272
O15   O     O_3   0.617847 0.667385 0.954619 -0.647326
H11   H     H_    0.644702 0.711279 0.891370 0.389882
O16   O     O_3   0.377730 0.335350 0.045088 -0.610302
H12   H     H_    0.351265 0.290989 0.108098 0.385442

loop_
_geom_bond_atom_site_label_1
_geom_bond_atom_site_label_2
_ccdc_geom_bond_type
C8    O13   S    
C3    H4    S    
C19   C23   A    
O14   H10   S    
C9    C24   S    
C7    C8    S    
C10   O6    A    
C6    Cl3   S    
C17   O11   S    
C11   C21   A    
C2    C4    S    
C4    H3    S    
C7    O14   S    
C13   O9    S    
O9    H5    S    
Cu1   O5    S    
C2    O2    A    
Cu1   N2    S    
C9    O5    A    
O15   H11   S    
C3    C5    D    
C1    O1    A    
Cu2   N1    S    
C5    Cl4   S    
O13   H9    S    
C11   C13   A    
C15   H2    S    
N2    O15   S    
C16   H1    S    
C4    C6    D    
C19   C21   A    
C12   C14   A    
C11   Cl1   S    
C14   O10   S    
C18   C20   A    
C13   C15   A    
Cu1   O8    S    
C5    C6    S    
C10   C23   S    
C14   C16   A    
Cu2   O7    S    
C7    N1    D    
Cu1   O4    S    
C2    O4    A    
C8    N2    D    
C12   C22   A    
Cu2   O3    S    
O16   H12   S    
C1    O3    A    
C16   C18   A    
O12   H8    S    
C21   C24   A    
N1    O16   S    
C15   C17   A    
C20   C24   A    
C22   C23   A    
Cu2   O6    S    
C10   O8    A    
C12   Cl2   S    
C17   C19   A    
Cu1   Cu2   S    
O10   H6    S    
Cu1   O1    S    
Cu2   O2    S    
C9    O7    A    
O11   H7    S    
C18   O12   S    
C20   C22   A    
C1    C3    S    
