data_mof_unit_6689.cif
_audit_creation_date              2012-12-10T18:47:44-0500
_audit_creation_method            fapswitch 2.2
_symmetry_space_group_name_H-M    P1
_symmetry_Int_Tables_number       1
_space_group_crystal_system       triclinic
_cell_length_a                    9.898407
_cell_length_b                    10.70676
_cell_length_c                    15.346402
_cell_angle_alpha                 90.094581
_cell_angle_beta                  70.39488
_cell_angle_gamma                 90.01428
_cell_volume                      1532.12041434

loop_
_atom_site_label
_atom_site_type_symbol
_atom_type_description
_atom_site_fract_x
_atom_site_fract_y
_atom_site_fract_z
_atom_type_partial_charge
C1    C     C_R   0.500035 0.739931 0.500038 0.856603
C2    C     C_R   0.500005 0.260068 0.499882 0.863689
C3    C     C_R   0.315603 0.616955 0.103674 -0.226260
C4    C     C_R   0.651288 0.670252 0.908669 -0.237904
C5    C     C_R   0.218548 0.594596 0.058730 -0.225032
C6    C     C_R   0.750006 0.678924 0.955394 -0.228661
C7    C     C_R   0.630595 0.935987 0.477092 -0.188214
C8    C     C_R   0.369514 0.063991 0.522609 -0.184134
C9    C     C_R   0.630591 0.063971 0.476965 -0.198509
C10   C     C_R   0.369520 0.936015 0.522730 -0.194556
C11   C     C_R   0.500038 0.127530 0.499782 -0.011840
C12   C     C_R   0.500059 0.872456 0.499982 -0.009333
C13   C     C_R   0.957473 0.420808 0.443812 -0.041619
C14   C     C_R   0.042457 0.579052 0.556318 -0.073793
C15   C     C_R   0.100995 0.420942 0.443739 -0.080645
C16   C     C_R   0.898957 0.578986 0.556335 -0.084360
C17   C     C_R   0.411903 0.501744 0.675510 0.917368
C18   C     C_R   0.588122 0.504519 0.324258 0.886699
C19   C     C_R   0.360231 0.521025 0.775341 -0.164272
C20   C     C_R   0.636797 0.537903 0.225797 -0.176220
C21   C     C_R   0.171242 0.520636 0.923558 -0.329515
C22   C     C_R   0.816311 0.622334 0.088916 -0.323336
C23   C     C_R   0.217755 0.493430 0.828966 0.539180
C24   C     C_R   0.781126 0.565315 0.175948 0.543810
C25   C     C_R   0.454308 0.574006 0.815812 -0.349314
C26   C     C_R   0.532529 0.558495 0.184963 -0.341133
C27   C     C_R   0.410089 0.598140 0.910731 0.104639
C28   C     C_R   0.567283 0.610278 0.096626 0.097003
C29   C     C_R   0.265476 0.573188 0.964079 0.094946
C30   C     C_R   0.711647 0.639461 0.047262 0.107997
C31   C     C_R   0.508285 0.633097 0.956000 0.096268
C32   C     C_R   0.463087 0.622427 0.053366 0.086598
H1    H     H_    0.107859 0.586940 0.098978 0.214106
H2    H     H_    0.859209 0.706781 0.917658 0.143344
H3    H     H_    0.424266 0.528837 0.221946 0.183891
H4    H     H_    0.563638 0.591055 0.772615 0.173870
H5    H     H_    0.064774 0.492667 0.966341 0.147331
H6    H     H_    0.925568 0.649828 0.052450 0.148293
H7    H     H_    0.273532 0.627804 0.177991 0.163523
H8    H     H_    0.688940 0.693233 0.835996 0.138249
H9    H     H_    0.732236 0.887151 0.458660 0.161959
H10   H     H_    0.267864 0.112813 0.541044 0.162628
H11   H     H_    0.732237 0.112786 0.458432 0.151756
H12   H     H_    0.267869 0.887211 0.541254 0.153050
H13   H     H_    0.926779 0.357069 0.398995 0.116169
H14   H     H_    0.072951 0.642400 0.601484 0.118040
H15   H     H_    0.178422 0.357538 0.398619 0.122964
H16   H     H_    0.821461 0.642247 0.601575 0.119313
N1    N     N_R   0.142780 0.500030 0.500020 -0.073422
N2    N     N_R   0.857220 0.499970 0.499980 -0.072292
O1    O     O_R   0.385370 0.683250 0.500010 -0.629257
O2    O     O_R   0.614630 0.316750 0.499990 -0.629899
O3    O     O_R   0.614700 0.683220 0.500000 -0.624215
O4    O     O_R   0.385300 0.316780 0.500000 -0.620522
O5    O     O_R   0.319830 0.500020 0.632250 -0.570259
O6    O     O_R   0.680170 0.499980 0.367750 -0.561735
O7    O     O_R   0.549160 0.499990 0.632240 -0.628855
O8    O     O_R   0.450840 0.500010 0.367760 -0.626192
Zn1   Zn    Zn3+2 0.346870 0.500020 0.500000 0.960734
Zn2   Zn    Zn3+2 0.653130 0.499980 0.500000 0.963345
O9    O     O_3   0.887526 0.541009 0.213058 -0.607057
C33   C     C_3   0.926771 0.413906 0.197068 -0.354472
H17   H     H_    0.837571 0.350917 0.235816 0.166802
H18   H     H_    0.018185 0.395807 0.221767 0.188793
H19   H     H_    0.962831 0.390493 0.122025 0.156656
O10   O     O_3   0.132773 0.425232 0.790246 -0.593583
C34   C     C_3   0.003383 0.488940 0.801477 -0.293664
H20   H     H_    0.954424 0.448816 0.752396 0.196816
H21   H     H_    0.020877 0.590284 0.785176 0.134951
H22   H     H_    0.926080 0.474411 0.872221 0.172689

loop_
_geom_bond_atom_site_label_1
_geom_bond_atom_site_label_2
_ccdc_geom_bond_type
C21   H5    S    
C19   C23   A    
C21   C29   A    
C24   O9    S    
C2    O2    A    
O5    Zn1   S    
C27   C29   A    
C1    O1    A    
C17   O5    A    
C26   C28   A    
C31   C32   A    
N1    Zn1   S    
C13   C15   A    
C18   O6    A    
C34   H22   S    
N2    Zn2   S    
C16   H16   S    
C22   C24   A    
C28   C30   A    
O10   C34   S    
C3    H7    S    
C14   H14   S    
C34   H21   S    
C13   H13   S    
C9    C11   A    
C33   H17   S    
C1    C12   S    
C20   C26   A    
O2    Zn2   S    
C8    C11   A    
C2    C11   S    
C10   C12   A    
C23   O10   S    
C4    C6    A    
C13   N2    A    
C17   C19   S    
O3    Zn2   S    
C16   N2    A    
C5    C29   A    
O4    Zn1   S    
C15   N1    A    
C21   C23   A    
C3    C32   A    
C19   C25   A    
C14   C16   A    
C7    C12   A    
C9    H11   S    
C4    C31   A    
O1    Zn1   S    
O9    C33   S    
C25   H4    S    
C10   H12   S    
C34   H20   S    
C22   H6    S    
C6    H2    S    
C26   H3    S    
C28   C32   A    
O6    Zn2   S    
C14   N1    A    
C18   C20   S    
C8    C10   A    
C2    O4    A    
C17   O7    A    
C7    C9    A    
C1    O3    A    
C15   H15   S    
O7    Zn2   S    
C33   H18   S    
C22   C30   A    
C33   H19   S    
C6    C30   A    
O8    Zn1   S    
C27   C31   A    
C20   C24   A    
C4    H8    S    
C7    H9    S    
C8    H10   S    
C18   O8    A    
C3    C5    A    
C25   C27   A    
C5    H1    S    
