data_mof_unit_64814.cif
_audit_creation_date              2012-10-26T20:52:26-0400
_audit_creation_method            fapswitch 2.2
_symmetry_space_group_name_H-M    P1
_symmetry_Int_Tables_number       1
_space_group_crystal_system       triclinic
_cell_length_a                    16.002638
_cell_length_b                    14.764866
_cell_length_c                    10.897708
_cell_angle_alpha                 91.680611
_cell_angle_beta                  90.125202
_cell_angle_gamma                 90.157436
_cell_volume                      2573.75170397

loop_
_atom_site_label
_atom_site_type_symbol
_atom_type_description
_atom_site_fract_x
_atom_site_fract_y
_atom_site_fract_z
_atom_type_partial_charge
C1    C     C_R   0.340880 0.499841 0.500083 0.568308
C2    C     C_1   0.500125 0.197304 0.500072 0.143890
C3    C     C_R   0.499891 0.498292 0.264808 0.577322
C4    C     C_R   0.506559 0.501477 0.735371 0.562894
C5    C     C_2   0.555125 0.442732 0.935867 0.021215
C6    C     C_2   0.565468 0.462598 0.068630 0.018764
C7    C     C_2   0.523283 0.509204 0.866820 0.426729
C8    C     C_2   0.497908 0.491173 0.132821 0.452644
C9    C     C_R   0.956562 0.533212 0.412260 0.416732
C10   C     C_R   0.043247 0.533092 0.412344 0.426430
C11   C     C_R   0.912552 0.497656 0.510477 -0.020749
C12   C     C_R   0.659080 0.500046 0.499684 0.515398
C13   C     C_R   0.087199 0.496242 0.509818 -0.023212
C14   C     C_R   0.955312 0.460762 0.611424 -0.020549
C15   C     C_R   0.044302 0.458408 0.609922 -0.029814
C16   C     C_1   0.822908 0.499244 0.505387 0.017859
C17   C     C_1   0.176914 0.498148 0.505279 0.028661
C18   C     C_1   0.251872 0.499329 0.502308 0.031323
C19   C     C_1   0.747997 0.500025 0.502067 -0.000983
C20   C     C_3   0.577958 0.348701 0.886933 -0.300376
C21   C     C_3   0.659950 0.349244 0.815369 -0.438497
C22   C     C_3   0.652826 0.462230 0.124353 -0.301409
C23   C     C_R   0.529568 0.954533 0.602406 0.351870
C24   C     C_3   0.676881 0.370653 0.175692 -0.434355
C25   C     C_3   0.905463 0.424916 0.718708 -0.262262
C26   C     C_3   0.879481 0.326438 0.694487 -0.431214
C27   C     C_3   0.094036 0.415776 0.712518 -0.276861
C28   C     C_3   0.120446 0.486981 0.809457 -0.387068
C29   C     C_R   0.470894 0.949931 0.397778 0.353302
C30   C     C_R   0.500192 0.902946 0.500099 0.019209
C31   C     C_R   0.470974 0.045729 0.397971 -0.084975
C32   C     C_R   0.529540 0.050342 0.602203 -0.090612
C33   C     C_R   0.500239 0.097209 0.500087 -0.112565
C34   C     C_1   0.500089 0.802718 0.500068 0.295615
Cu1   Cu    Cu3+1 0.500000 0.589220 0.500000 1.139091
Cu2   Cu    Cu3+1 0.500000 0.410780 0.500000 0.976386
F1    F     F_    0.512092 0.593431 0.919088 -0.558754
F2    F     F_    0.421385 0.495906 0.078413 -0.586917
F3    F     F_    0.084737 0.568768 0.316340 -0.555564
F4    F     F_    0.915123 0.568575 0.315883 -0.574114
F5    F     F_    0.558376 0.912226 0.702910 -0.585073
F6    F     F_    0.442067 0.903117 0.297271 -0.577856
H1    H     H_    0.552498 0.088007 0.682216 0.154470
H2    H     H_    0.733212 0.379199 0.234652 0.168853
H3    H     H_    0.699272 0.480864 0.053700 0.176826
H4    H     H_    0.658146 0.515156 0.198656 0.160247
H5    H     H_    0.836398 0.321060 0.614560 0.161885
H6    H     H_    0.935074 0.283413 0.675843 0.167957
H7    H     H_    0.846803 0.300684 0.776205 0.144471
H8    H     H_    0.940767 0.430905 0.806139 0.161449
H9    H     H_    0.848658 0.466523 0.735431 0.151047
H10   H     H_    0.161551 0.538592 0.768293 0.177707
H11   H     H_    0.064852 0.521226 0.849910 0.180508
H12   H     H_    0.448032 0.079766 0.317941 0.166160
H13   H     H_    0.155486 0.453927 0.883863 0.181692
H14   H     H_    0.058619 0.360973 0.756520 0.156483
H15   H     H_    0.150629 0.381530 0.675134 0.155356
H16   H     H_    0.657040 0.396592 0.738493 0.169977
H17   H     H_    0.712393 0.370096 0.876829 0.143539
H18   H     H_    0.672835 0.280129 0.777304 0.154079
H19   H     H_    0.585011 0.302063 0.964213 0.156612
H20   H     H_    0.526696 0.318443 0.830699 0.183166
H21   H     H_    0.625877 0.342486 0.231809 0.183363
H22   H     H_    0.692493 0.321539 0.100419 0.151107
N1    N     N_1   0.500000 0.276710 0.500000 -0.187748
N2    N     N_1   0.500000 0.723290 0.500000 -0.156952
O1    O     O_R   0.380310 0.575320 0.500020 -0.471713
O2    O     O_R   0.619690 0.575320 0.499980 -0.486014
O3    O     O_R   0.380310 0.424640 0.499970 -0.488930
O4    O     O_R   0.619690 0.424640 0.500030 -0.523537
O5    O     O_R   0.500000 0.575320 0.321940 -0.470577
O6    O     O_R   0.500000 0.575320 0.678060 -0.439863
O7    O     O_R   0.500000 0.424640 0.321880 -0.525308
O8    O     O_R   0.500000 0.424640 0.678120 -0.546177

loop_
_geom_bond_atom_site_label_1
_geom_bond_atom_site_label_2
_ccdc_geom_bond_type
C3    O5    A    
C28   H11   S    
C31   C33   A    
C29   C30   A    
C25   H8    S    
C26   H6    S    
C29   F6    S    
C9    C11   A    
C9    C10   A    
C20   H19   S    
C15   C27   S    
Cu1   Cu2   S    
C23   F5    S    
Cu1   O1    S    
C2    N1    T    
C23   C32   A    
C12   O2    A    
C25   H9    S    
C17   C18   T    
C7    F1    S    
Cu1   O5    S    
C21   H16   S    
C29   C31   A    
C5    C20   S    
C8    F2    S    
Cu2   O3    S    
C28   H10   S    
C34   N2    T    
C1    C18   S    
Cu2   O8    S    
Cu1   O2    S    
C4    C7    S    
C3    O7    A    
C26   H5    S    
C12   C19   S    
C22   H4    S    
C28   H13   S    
Cu2   O4    S    
Cu1   O6    S    
C21   H17   S    
C24   H21   S    
C13   C15   A    
C14   C25   S    
C20   H20   S    
C5    C6    S    
C24   H2    S    
C11   C14   A    
C22   C24   S    
C11   C16   S    
Cu2   O7    S    
C30   C34   S    
C13   C17   S    
C6    C22   S    
C23   C30   A    
C31   H12   S    
C4    O6    A    
C22   H3    S    
C20   C21   S    
C2    C33   S    
C21   H18   S    
C24   H22   S    
C3    C8    S    
C27   H15   S    
C26   H7    S    
C27   C28   S    
C5    C7    D    
C12   O4    A    
Cu2   N1    S    
C6    C8    D    
Cu1   N2    S    
C1    O1    A    
C25   C26   S    
C27   H14   S    
C4    O8    A    
C32   H1    S    
C9    F4    S    
C1    O3    A    
C14   C15   A    
C32   C33   A    
C10   F3    S    
C10   C13   A    
C16   C19   T    
