data_mof_unit_18923.cif
_audit_creation_date              2013-03-05T15:45:30-0500
_audit_creation_method            fapswitch 2.2
_symmetry_space_group_name_H-M    P1
_symmetry_Int_Tables_number       1
_space_group_crystal_system       triclinic
_cell_length_a                    9.882337
_cell_length_b                    10.889043
_cell_length_c                    13.358035
_cell_angle_alpha                 94.046098
_cell_angle_beta                  82.732474
_cell_angle_gamma                 109.614622
_cell_volume                      1342.54979364

loop_
_atom_site_label
_atom_site_type_symbol
_atom_site_description
_atom_site_fract_x
_atom_site_fract_y
_atom_site_fract_z
_atom_type_partial_charge
O1    O     O_R   0.426290 0.668220 0.490680 -0.532710
O2    O     O_R   0.659360 0.703290 0.520190 -0.507663
C1    C     C_R   0.555768 0.746046 0.504575 0.872828
O3    O     O_R   0.326580 0.473880 0.629020 -0.530433
O4    O     O_R   0.559660 0.508940 0.658530 -0.567317
C2    C     C_R   0.420511 0.466569 0.687499 0.847167
Cu1   Cu    Cu3+1 0.362000 0.479240 0.482530 1.105856
Cu2   Cu    Cu3+1 0.638000 0.520760 0.517470 1.098409
O5    O     O_R   0.340640 0.296710 0.479810 -0.522923
O6    O     O_R   0.573710 0.331780 0.509320 -0.611897
O7    O     O_R   0.440340 0.491060 0.341470 -0.565294
O8    O     O_R   0.673420 0.526120 0.370980 -0.604689
C3    C     C_R   0.446358 0.254497 0.491197 0.748264
C4    C     C_R   0.577137 0.516191 0.309798 0.848282
C5    C     C_R   0.800028 0.585925 0.053018 0.288918
H1    H     H_    0.827341 0.480362 0.865777 0.248169
C6    C     C_R   0.621343 0.530667 0.200515 -0.125449
C7    C     C_R   0.221284 0.372642 0.828705 -0.054351
C8    C     C_R   0.180444 0.388674 0.931566 -0.125100
C9    C     C_R   0.284371 0.446164 0.998332 -0.048281
C10   C     C_R   0.431691 0.457334 0.966662 0.034095
C11   C     C_R   0.470460 0.434039 0.863000 0.018260
C12   C     C_R   0.542660 0.489688 0.032238 0.066296
C13   C     C_R   0.689080 0.522880 0.991232 -0.011312
C14   C     C_R   0.719854 0.481267 0.892142 -0.121835
C15   C     C_R   0.607488 0.420921 0.832939 -0.038044
C16   C     C_R   0.513005 0.478844 0.136579 -0.161031
C17   C     C_R   0.765067 0.595200 0.158626 -0.137141
C18   C     C_R   0.369724 0.420581 0.792947 -0.130351
H2    H     H_    0.405487 0.424169 0.168803 0.156681
H3    H     H_    0.066760 0.362558 0.959119 0.221705
H4    H     H_    0.634823 0.145660 0.412605 0.170497
C19   C     C_2   0.585706 0.887713 0.502537 0.095280
C20   C     C_2   0.525651 0.937604 0.436099 0.283834
C21   C     C_2   0.423836 0.114753 0.485320 0.167061
C22   C     C_2   0.534769 0.075211 0.444967 -0.264258
H5    H     H_    0.876883 0.420614 0.433032 0.104234
N1    N     N_2   0.845330 0.551960 0.543750 -0.060447
C23   C     C_2   0.925187 0.491314 0.490747 0.004362
H6    H     H_    0.093389 0.358102 0.429400 0.206435
N2    N     N_2   0.154690 0.448120 0.456210 -0.334054
C24   C     C_2   0.084536 0.525313 0.495337 0.411247
C25   C     C_2   0.877664 0.672832 0.223263 0.958863
O9    O     O_2   0.997500 0.661222 0.211719 -0.524923
O10   O     O_R   0.846976 0.760946 0.296445 -0.714546
H7    H     H_    0.931743 0.807552 0.336059 0.371930
N3    N     N_R   0.458622 0.861299 0.351924 0.142575
O11   O     O_R   0.360591 0.892158 0.312934 -0.275829
O12   O     O_R   0.516857 0.782018 0.300889 -0.349594
N4    N     N_R   0.292217 0.026041 0.532470 0.184268
O13   O     O_R   0.297838 0.956569 0.606175 -0.246807
O14   O     O_R   0.168671 0.036502 0.518507 -0.223774
N5    N     N_R   0.673313 0.969859 0.576071 0.123036
O15   O     O_R   0.675451 0.923403 0.662759 -0.267028
O16   O     O_R   0.764000 0.084574 0.552649 -0.337153
N6    N     N_R   0.161514 0.654150 0.529551 0.173333
O17   O     O_R   0.152227 0.752193 0.484072 -0.280554
O18   O     O_R   0.211505 0.673529 0.617004 -0.241911
N7    N     N_R   0.892654 0.623443 0.630841 0.286571
O19   O     O_R   0.853848 0.724739 0.658104 -0.206289
O20   O     O_R   0.944366 0.573787 0.696619 -0.298589
N8    N     N_R   0.943229 0.654138 0.007842 0.157889
O21   O     O_R   0.027138 0.590411 0.966838 -0.336067
O22   O     O_R   0.992930 0.780935 0.013112 -0.254403
C26   C     C_2   0.108839 0.294659 0.763866 0.957433
O23   O     O_2   0.142838 0.244477 0.684186 -0.506726
O24   O     O_R   0.962649 0.268685 0.798044 -0.726042
H8    H     H_    0.897161 0.203635 0.752166 0.400476
C27   C     C_2   0.234835 0.502001 0.094847 0.909755
O25   O     O_2   0.118999 0.442990 0.141703 -0.570826
O26   O     O_R   0.318645 0.624204 0.130558 -0.661130
H9    H     H_    0.274056 0.651256 0.197319 0.400703
C28   C     C_2   0.625130 0.324112 0.752411 0.911791
O27   O     O_2   0.744019 0.334037 0.708195 -0.535793
O28   O     O_R   0.505020 0.218184 0.729655 -0.733405
H10   H     H_    0.531710 0.155403 0.677739 0.369465

loop_
_geom_bond_atom_site_label_1
_geom_bond_atom_site_label_2
_geom_bond_distance
_ccdc_geom_bond_type
O1    C1    1.303743 A    
O4    Cu2   1.940282 S    
N4    O14   1.300924 A    
O28   H10   1.012784 S    
N2    C24   1.303041 D    
H6    N2    1.030886 S    
N8    O21   1.298816 A    
C11   C18   1.416539 A    
C12   C16   1.392532 A    
C28   O28   1.397984 S    
C28   O27   1.220282 D    
C8    C9    1.401221 A    
C17   C25   1.485535 S    
N8    O22   1.300871 A    
C21   C22   1.346265 D    
Cu2   O8    1.945295 S    
C25   O9    1.222211 D    
C8    H3    1.083580 S    
Cu1   O5    1.925205 S    
C15   C28   1.488188 S    
C21   N4    1.434112 S    
C10   C12   1.426234 A    
N4    O13   1.300714 A    
O26   H9    1.013355 S    
H5    C23   1.085155 S    
C7    C18   1.412917 A    
O1    Cu1   1.938609 S    
N5    O15   1.301272 A    
C9    C10   1.430342 A    
C16   H2    1.079090 S    
Cu1   O7    1.940282 S    
C25   O10   1.398639 S    
C4    C6    1.473635 S    
C5    C17   1.414106 A    
O4    C2    1.310787 A    
Cu2   N1    2.033340 S    
O3    Cu1   1.945296 S    
H4    C22   1.087388 S    
O3    C2    1.311512 A    
C5    C13   1.413603 A    
C19   C20   1.361159 D    
C5    N8    1.435277 S    
O8    C4    1.303913 A    
C3    C21   1.459922 S    
C23   C24   1.500145 S    
C20   C22   1.467784 S    
N5    O16   1.301545 A    
C19   N5    1.444206 S    
C27   O25   1.223393 D    
O7    C4    1.305647 A    
C9    C27   1.483581 S    
N7    O20   1.300678 A    
Cu1   Cu2   2.706663 S    
N6    O17   1.299484 A    
C1    C19   1.471528 S    
C12   C13   1.414458 A    
O24   H8    1.013629 S    
C6    C16   1.397067 A    
N3    O11   1.301384 A    
O10   H7    1.013966 S    
N7    O19   1.299354 A    
C2    C18   1.496230 S    
N1    C23   1.304885 D    
C13   C14   1.398522 A    
N3    O12   1.300949 A    
C26   O23   1.222734 D    
C11   C15   1.414062 A    
H1    C14   1.079045 S    
C27   O26   1.398095 S    
O5    C3    1.303227 A    
C7    C8    1.398015 A    
O2    C1    1.302311 A    
C20   N3    1.442415 S    
C24   N6    1.427126 S    
C14   C15   1.396156 A    
C10   C11   1.417751 A    
C6    C17   1.417236 A    
C7    C26   1.487361 S    
Cu2   O6    1.938611 S    
O2    Cu2   1.925203 S    
N1    N7    1.394083 S    
Cu1   N2    2.033461 S    
N6    O18   1.301745 A    
C26   O24   1.397353 S    
O6    C3    1.299221 A    
