data_mof_unit_10165.cif
_audit_creation_date              2012-12-10T16:43:26-0500
_audit_creation_method            fapswitch 2.2
_symmetry_space_group_name_H-M    P1
_symmetry_Int_Tables_number       1
_space_group_crystal_system       triclinic
_cell_length_a                    10.79184
_cell_length_b                    8.802164
_cell_length_c                    7.433928
_cell_angle_alpha                 102.287064
_cell_angle_beta                  93.170205
_cell_angle_gamma                 93.853869
_cell_volume                      686.66753357

loop_
_atom_site_label
_atom_site_type_symbol
_atom_type_description
_atom_site_fract_x
_atom_site_fract_y
_atom_site_fract_z
_atom_type_partial_charge
C1    C     C_R   0.498473 0.200962 0.454874 0.834530
C2    C     C_R   0.067027 0.541901 0.671830 0.045076
C3    C     C_R   0.124802 0.478926 0.509387 -0.110788
C4    C     C_R   0.051360 0.429995 0.343420 -0.213521
C5    C     C_R   0.925240 0.450300 0.336858 -0.190255
C6    C     C_R   0.872819 0.532728 0.492799 -0.107687
C7    C     C_2   0.514746 0.037971 0.433090 -0.251212
C8    C     C_2   0.487903 0.962269 0.568189 -0.244065
C9    C     C_R   0.261210 0.488519 0.502785 0.784686
C10   C     C_R   0.501801 0.798893 0.545172 0.844723
C11   C     C_R   0.737768 0.515907 0.498246 0.793693
C12   C     C_R   0.115607 0.539522 0.850495 0.031857
C13   C     C_R   0.076554 0.644031 0.001972 -0.194635
C14   C     C_R   0.981657 0.738798 0.976046 -0.178554
C15   C     C_R   0.914814 0.714167 0.803894 -0.002505
C16   C     C_R   0.949938 0.599481 0.654596 0.029860
Cu1   Cu    Cu3+1 0.513920 0.517380 0.684380 0.997834
Cu2   Cu    Cu3+1 0.486080 0.482620 0.315620 0.990106
H1    H     H_    0.116439 0.648690 0.140017 0.166837
N1    N     N_2   0.465100 0.456430 0.038520 -0.211964
N2    N     N_2   0.534900 0.543570 0.961480 -0.215996
O1    O     O_R   0.509050 0.286130 0.619770 -0.584440
O2    O     O_R   0.485540 0.256780 0.308360 -0.559164
O3    O     O_R   0.331410 0.514680 0.655740 -0.589391
O4    O     O_R   0.307900 0.485330 0.344330 -0.579761
O5    O     O_R   0.514460 0.743220 0.691640 -0.557506
O6    O     O_R   0.490950 0.713870 0.380230 -0.591660
O7    O     O_R   0.692100 0.514670 0.655670 -0.574260
O8    O     O_R   0.668590 0.485320 0.344260 -0.595158
H2    H     H_    0.091060 0.372182 0.219790 0.185608
H3    H     H_    0.600301 0.617143 0.049819 0.243331
C17   C     C_1   0.159575 0.395690 0.880629 0.218709
N3    N     N_1   0.189008 0.276680 0.902525 -0.296404
H4    H     H_    0.956124 0.825364 0.092014 0.157816
C18   C     C_1   0.826557 0.824490 0.776985 0.246993
N4    N     N_1   0.758077 0.915912 0.756460 -0.277665
H5    H     H_    0.868630 0.399149 0.210820 0.179274
C19   C     C_1   0.575307 0.968319 0.269132 0.318223
N5    N     N_1   0.624383 0.915701 0.138404 -0.280009
C20   C     C_1   0.436028 0.032686 0.739385 0.328938
N6    N     N_1   0.395309 0.083758 0.877940 -0.249896
H6    H     H_    0.406021 0.377296 0.947725 0.258402

loop_
_geom_bond_atom_site_label_1
_geom_bond_atom_site_label_2
_ccdc_geom_bond_type
C10   O6    A    
C14   H4    S    
N1    H6    S    
C9    O3    A    
C3    C9    S    
C5    H5    S    
C2    C16   A    
Cu2   O6    S    
Cu1   O1    S    
C2    C12   A    
C17   N3    T    
C10   O5    A    
C2    C3    A    
C9    O4    A    
C7    C8    D    
Cu2   O8    S    
C13   C14   A    
C12   C17   S    
N2    H3    S    
C19   N5    T    
Cu2   O4    S    
C11   O7    A    
Cu1   O5    S    
C15   C18   S    
C20   N6    T    
C7    C19   S    
C1    O2    A    
Cu2   N1    S    
C5    C6    A    
C4    H2    S    
Cu1   O3    S    
C13   H1    S    
C6    C16   A    
Cu2   O2    S    
C1    O1    A    
C12   C13   A    
C11   O8    A    
Cu1   Cu2   S    
C6    C11   S    
C14   C15   A    
C8    C20   S    
N1    N2    D    
C1    C7    S    
Cu1   O7    S    
C8    C10   S    
Cu1   N2    S    
C3    C4    A    
C15   C16   A    
C4    C5    A    
C18   N4    T    
