data_mof_unit_27697.cif
_audit_creation_date              2012-12-10T20:31:58-0500
_audit_creation_method            fapswitch 2.2
_symmetry_space_group_name_H-M    P1
_symmetry_Int_Tables_number       1
_space_group_crystal_system       triclinic
_cell_length_a                    10.057408
_cell_length_b                    10.673226
_cell_length_c                    15.542532
_cell_angle_alpha                 89.267388
_cell_angle_beta                  69.995263
_cell_angle_gamma                 88.438908
_cell_volume                      1567.15557756

loop_
_atom_site_label
_atom_site_type_symbol
_atom_type_description
_atom_site_fract_x
_atom_site_fract_y
_atom_site_fract_z
_atom_type_partial_charge
C1    C     C_R   0.503586 0.739385 0.490998 0.850996
C2    C     C_R   0.727192 0.490166 0.033074 0.076929
C3    C     C_R   0.582444 0.504758 0.086125 -0.054839
C4    C     C_R   0.411835 0.492845 0.674440 0.892231
C5    C     C_R   0.829068 0.492713 0.076753 0.232200
C6    C     C_R   0.783039 0.494002 0.172766 -0.344092
C7    C     C_R   0.542712 0.536854 0.178585 0.171934
C8    C     C_R   0.409469 0.941244 0.449259 0.062851
C9    C     C_R   0.518215 0.870346 0.465079 -0.137874
C10   C     C_R   0.643375 0.931281 0.460529 -0.202941
C11   C     C_R   0.643065 0.061233 0.465617 -0.243824
C12   C     C_R   0.418209 0.463481 0.910561 0.021258
C13   C     C_R   0.516994 0.128955 0.476980 -0.084317
C14   C     C_R   0.405351 0.068507 0.463456 0.071418
C15   C     C_3   0.249991 0.075289 0.515739 -0.016938
C16   C     C_R   0.503654 0.260251 0.496418 0.904001
C17   C     C_3   0.251324 0.936778 0.493199 -0.022769
C18   C     C_R   0.887775 0.519155 0.577993 0.103887
C19   C     C_R   0.967576 0.455736 0.427212 0.087405
C20   C     C_R   0.111574 0.455054 0.427516 0.102677
C21   C     C_R   0.026781 0.514213 0.579409 0.102038
C22   C     C_3   0.987782 0.608406 0.655652 -0.181333
C23   C     C_R   0.309684 0.378919 0.953865 0.078716
C24   C     C_3   0.840348 0.621609 0.646241 -0.095086
C25   C     C_R   0.588058 0.504362 0.324993 0.883932
C26   C     C_R   0.361518 0.461644 0.772244 -0.100319
C27   C     C_R   0.639253 0.512122 0.224367 -0.123108
C28   C     C_R   0.237649 0.323934 0.900647 0.112400
C29   C     C_R   0.261919 0.367025 0.809363 0.063661
C30   C     C_R   0.435754 0.509892 0.823663 -0.324939
C31   C     C_3   0.227810 0.141602 0.111067 -0.764206
C32   C     C_3   0.021641 0.612701 0.976579 -0.796856
C33   C     C_3   0.273480 0.020719 0.669495 -0.801065
C34   C     C_R   0.518126 0.489476 0.951287 0.085885
C35   C     C_3   0.204836 0.980610 0.345718 -0.837893
C36   C     C_3   0.426512 0.728580 0.256747 -0.725193
C37   C     C_3   0.822014 0.252025 0.903002 -0.830874
C38   C     C_R   0.481956 0.475664 0.045880 0.043967
C39   C     C_R   0.364093 0.404533 0.093470 -0.342458
C40   C     C_R   0.283689 0.348557 0.047523 0.199283
C41   C     C_R   0.661861 0.491426 0.897597 -0.318279
C42   C     C_R   0.762921 0.466627 0.938855 0.208682
H1    H     H_    0.736503 0.879550 0.462320 0.177709
H2    H     H_    0.692777 0.471915 0.825389 0.148873
H3    H     H_    0.108918 0.303086 0.157805 0.203924
H4    H     H_    0.136832 0.080114 0.143854 0.234888
H5    H     H_    0.292237 0.146428 0.156459 0.225054
H6    H     H_    0.293105 0.099528 0.044472 0.255807
H7    H     H_    0.038960 0.471562 0.063694 0.225303
H8    H     H_    0.137163 0.607016 0.938438 0.244449
H9    H     H_    0.999573 0.692160 0.025414 0.234589
H10   H     H_    0.967316 0.630872 0.926252 0.240691
H11   H     H_    0.111306 0.125914 0.645862 0.220974
H12   H     H_    0.736354 0.106436 0.468880 0.170165
H13   H     H_    0.273693 0.072142 0.730675 0.243944
H14   H     H_    0.384338 0.990607 0.632533 0.255406
H15   H     H_    0.207049 0.937390 0.693590 0.208286
H16   H     H_    0.071747 0.892959 0.462210 0.226229
H17   H     H_    0.167255 0.927874 0.297700 0.245090
H18   H     H_    0.319463 0.996880 0.311619 0.254017
H19   H     H_    0.145669 0.071650 0.359811 0.221538
H20   H     H_    0.969557 0.311450 0.343779 0.152789
H21   H     H_    0.997891 0.454167 0.292339 0.142360
H22   H     H_    0.202038 0.307029 0.347522 0.141576
H23   H     H_    0.191963 0.139800 0.483656 0.141149
H24   H     H_    0.220669 0.447933 0.294335 0.165612
H25   H     H_    0.338942 0.606721 0.189900 0.220585
H26   H     H_    0.351849 0.736307 0.327910 0.289288
H27   H     H_    0.534940 0.745426 0.257017 0.219336
H28   H     H_    0.400078 0.802584 0.213932 0.219656
H29   H     H_    0.017932 0.788130 0.682711 0.165157
H30   H     H_    0.164672 0.700083 0.645890 0.221689
H31   H     H_    0.896076 0.759671 0.545662 0.200477
H32   H     H_    0.800364 0.811424 0.651901 0.177330
H33   H     H_    0.922142 0.402960 0.827005 0.205523
H34   H     H_    0.221252 0.875034 0.552562 0.174386
H35   H     H_    0.907568 0.185463 0.864928 0.216719
H36   H     H_    0.735757 0.244280 0.873921 0.248207
H37   H     H_    0.782117 0.222985 0.976163 0.256938
H38   H     H_    0.047577 0.240585 0.946688 0.236413
H39   H     H_    0.187943 0.141170 0.892430 0.168037
H40   H     H_    0.126082 0.241621 0.785321 0.173650
H41   H     H_    0.136688 0.377234 0.731520 0.195055
H42   H     H_    0.984382 0.566167 0.722078 0.117383
H43   H     H_    0.751971 0.595626 0.707962 0.135460
H44   H     H_    0.860146 0.485810 0.206593 0.172883
H45   H     H_    0.513031 0.581197 0.793990 0.161963
H46   H     H_    0.347466 0.376203 0.163003 0.163698
N1    N     N_R   0.856900 0.500860 0.500610 -0.101526
N2    N     N_3   0.070435 0.720641 0.633859 -0.444184
N3    N     N_3   0.811603 0.739024 0.605112 -0.406127
N4    N     N_2   0.873115 0.379491 0.894522 -0.288133
N5    N     N_3   0.152540 0.217337 0.936660 -0.442503
N6    N     N_3   0.197247 0.309250 0.750935 -0.436972
N7    N     N_R   0.142540 0.500820 0.500610 -0.094274
N8    N     N_2   0.175807 0.265285 0.097207 -0.287628
N9    N     N_2   0.976411 0.496420 0.025643 -0.282336
N10   N     N_2   0.216220 0.100968 0.613357 -0.276006
N11   N     N_2   0.177816 0.908489 0.429640 -0.290755
N12   N     N_3   0.937984 0.405959 0.351044 -0.400375
N13   N     N_3   0.223067 0.401374 0.352861 -0.385635
N14   N     N_2   0.413391 0.605951 0.221822 -0.294814
O1    O     O_R   0.385310 0.683210 0.499990 -0.621367
O2    O     O_R   0.614650 0.683240 0.500000 -0.595035
O3    O     O_R   0.319830 0.499970 0.632240 -0.625066
O4    O     O_R   0.549170 0.500000 0.632250 -0.607382
O5    O     O_R   0.385350 0.316760 0.500000 -0.598379
O6    O     O_R   0.614690 0.316790 0.500010 -0.620499
O7    O     O_R   0.450830 0.500000 0.367750 -0.564608
O8    O     O_R   0.680170 0.500030 0.367760 -0.601027
Zn1   Zn    Zn3+2 0.346870 0.499980 0.499990 0.968310
Zn2   Zn    Zn3+2 0.653130 0.500020 0.500010 0.968914

loop_
_geom_bond_atom_site_label_1
_geom_bond_atom_site_label_2
_ccdc_geom_bond_type
C33   H13   S    
H40   N6    S    
C18   C21   A    
C41   C42   A    
C19   C20   A    
C7    C27   A    
O4    Zn2   S    
C37   H37   S    
N1    Zn2   S    
C18   C24   S    
C5    C6    A    
C35   H17   S    
C28   C29   A    
C3    C7    A    
O7    Zn1   S    
C38   C39   A    
C31   N8    S    
C15   H23   S    
H39   N5    S    
C32   N9    S    
C36   N14   S    
C33   N10   S    
C32   H10   S    
C16   O5    A    
C3    C38   A    
C8    C9    A    
C7    N14   S    
C17   H34   S    
C8    C14   A    
C9    C10   A    
C1    O1    A    
C25   O7    A    
C33   H14   S    
O3    Zn1   S    
C31   H5    S    
C21   C22   S    
H24   N13   S    
C34   C41   A    
C39   H46   S    
C40   N8    S    
C35   N11   S    
C36   H28   S    
H22   N13   S    
C1    C9    S    
H31   N3    S    
C39   C40   A    
O2    Zn2   S    
C20   N13   S    
C21   N7    A    
H41   N6    S    
C4    O4    A    
C31   H4    S    
O6    Zn2   S    
C28   N5    S    
C22   H42   S    
H32   N3    S    
C32   H9    S    
H21   N12   S    
C19   N1    A    
H30   N2    S    
C6    C27   A    
C12   C23   A    
C22   N2    S    
C35   H19   S    
C23   C28   A    
C17   N11   S    
C1    O2    A    
C32   H8    S    
C11   H12   S    
H33   N4    S    
H20   N12   S    
C25   O8    A    
C20   N7    A    
C5    N9    S    
C26   C30   A    
C31   H6    S    
C41   H2    S    
C22   C24   S    
C2    C5    A    
C15   N10   S    
C12   C34   A    
C24   N3    S    
C36   H27   S    
C24   H43   S    
C4    O3    A    
C15   C17   S    
C33   H15   S    
C37   N4    S    
C12   C30   A    
C10   H1    S    
C34   C38   A    
C18   N1    A    
O5    Zn1   S    
H16   N11   S    
C4    C26   S    
C19   N12   S    
C36   H26   S    
O1    Zn1   S    
H11   N10   S    
C25   C27   S    
C37   H36   S    
C8    C17   S    
C6    H44   S    
C2    C3    A    
C30   H45   S    
N7    Zn1   S    
C11   C13   A    
C29   N6    S    
H29   N2    S    
C37   H35   S    
C2    C42   A    
C42   N4    S    
O8    Zn2   S    
C10   C11   A    
C16   O6    A    
H7    N9    S    
C26   C29   A    
C13   C16   S    
C14   C15   S    
C35   H18   S    
H38   N5    S    
C13   C14   A    
H3    N8    S    
C23   C40   A    
H25   N14   S    
