data_mof_unit_21533.cif
_audit_creation_date              2012-12-11T15:47:02-0500
_audit_creation_method            fapswitch 2.2
_symmetry_space_group_name_H-M    P1
_symmetry_Int_Tables_number       1
_space_group_crystal_system       triclinic
_cell_length_a                    20.013715
_cell_length_b                    7.275316
_cell_length_c                    13.754369
_cell_angle_alpha                 90.000301
_cell_angle_beta                  102.653342
_cell_angle_gamma                 90.000437
_cell_volume                      1954.08047834

loop_
_atom_site_label
_atom_site_type_symbol
_atom_type_description
_atom_site_fract_x
_atom_site_fract_y
_atom_site_fract_z
_atom_type_partial_charge
O1    O     O_R   0.449560 0.506810 0.599700 -0.528390
O2    O     O_R   0.550440 0.006810 0.400300 -0.528389
O3    O     O_R   0.587960 0.180060 0.595760 -0.516112
O4    O     O_R   0.412040 0.680060 0.404240 -0.516115
C1    C     C_R   0.615448 0.344478 0.615272 0.735398
C2    C     C_R   0.384552 0.844477 0.384725 0.735387
O5    O     O_R   0.452380 0.177430 0.611700 -0.554420
O6    O     O_R   0.547620 0.677430 0.388300 -0.554425
O7    O     O_R   0.413900 0.001890 0.416350 -0.544303
O8    O     O_R   0.586100 0.501890 0.583650 -0.544303
C3    C     C_R   0.437288 0.347296 0.638861 0.732202
C4    C     C_R   0.562712 0.847296 0.361138 0.732198
O9    O     O_3   0.487530 0.337490 0.435890 -0.378487
O10   O     O_3   0.512470 0.837490 0.564110 -0.378479
V1    V     V_3+5 0.502310 0.064660 0.511890 1.472341
V2    V     V_3+5 0.497690 0.564660 0.488110 1.472329
C5    C     C_R   0.624435 0.058279 0.148645 -0.285693
C6    C     C_R   0.375565 0.558280 0.851354 -0.285709
H1    H     H_    0.720079 0.207929 0.069551 0.133754
H2    H     H_    0.279922 0.707928 0.930452 0.133753
H3    H     H_    0.608419 0.154122 0.087999 0.101473
H4    H     H_    0.391582 0.654122 0.912002 0.101464
C7    C     C_R   0.602713 0.869384 0.283674 -0.109437
C8    C     C_R   0.397286 0.369384 0.716325 -0.109430
C9    C     C_R   0.927353 0.726169 0.297863 -0.151228
C10   C     C_R   0.072646 0.226169 0.702136 -0.151225
C11   C     C_R   0.888304 0.666478 0.363758 -0.126936
C12   C     C_R   0.111694 0.166481 0.636239 -0.126932
C13   C     C_R   0.820257 0.720892 0.351376 -0.156698
C14   C     C_R   0.179740 0.220896 0.648621 -0.156697
C15   C     C_R   0.790555 0.844977 0.274937 0.093445
C16   C     C_R   0.209444 0.344983 0.725060 0.093449
C17   C     C_R   0.833446 0.921053 0.214465 0.034428
C18   C     C_R   0.166552 0.421058 0.785533 0.034419
C19   C     C_R   0.719283 0.891169 0.253784 0.073854
C20   C     C_R   0.280715 0.391174 0.746213 0.073864
C21   C     C_R   0.694065 0.017053 0.175891 0.082114
C22   C     C_R   0.305935 0.517056 0.824108 0.082119
C23   C     C_R   0.738599 0.104816 0.125807 -0.162898
C24   C     C_R   0.261402 0.604818 0.874192 -0.162946
C25   C     C_R   0.807211 0.058942 0.145221 -0.184005
C26   C     C_R   0.192789 0.558946 0.854777 -0.183985
C27   C     C_R   0.672189 0.819017 0.307314 -0.297549
C28   C     C_R   0.327809 0.319022 0.692682 -0.297553
C29   C     C_R   0.577126 0.983108 0.200411 0.415706
C30   C     C_R   0.422874 0.483105 0.799590 0.415718
C31   C     C_R   0.900418 0.850335 0.221430 -0.086451
C32   C     C_R   0.099581 0.350337 0.778569 -0.086480
H5    H     H_    0.688652 0.733294 0.372053 0.119366
H6    H     H_    0.311345 0.233302 0.627942 0.119364
H7    H     H_    0.978360 0.670338 0.304464 0.112633
H8    H     H_    0.021638 0.170336 0.695536 0.112631
H9    H     H_    0.792209 0.662022 0.402236 0.106674
H10   H     H_    0.207788 0.162027 0.597759 0.106674
H11   H     H_    0.909983 0.570145 0.422180 0.120689
H12   H     H_    0.090014 0.070147 0.577817 0.120688
H13   H     H_    0.838500 0.128733 0.102267 0.185758
H14   H     H_    0.161500 0.628738 0.897731 0.185767
C33   C     C_R   0.202832 0.985732 0.260859 -0.248901
C34   C     C_R   0.797171 0.485728 0.739137 -0.248899
H15   H     H_    0.166742 0.091394 0.270626 0.152456
H16   H     H_    0.833263 0.591391 0.729372 0.152447
C35   C     C_R   0.267567 0.984270 0.325159 -0.225981
C36   C     C_R   0.732437 0.484270 0.674835 -0.225991
H17   H     H_    0.279582 0.086999 0.383383 0.142002
H18   H     H_    0.720422 0.587002 0.616614 0.141999
C37   C     C_R   0.316017 0.850735 0.315338 -0.157056
C38   C     C_R   0.683985 0.350738 0.684655 -0.157078
C39   C     C_R   0.299513 0.720723 0.237887 0.296790
C40   C     C_R   0.700487 0.220722 0.762102 0.296833
C41   C     C_R   0.232671 0.715288 0.174297 0.333397
C42   C     C_R   0.767328 0.215279 0.825690 0.333384
C43   C     C_R   0.184273 0.853113 0.185156 -0.159083
C44   C     C_R   0.815729 0.353108 0.814839 -0.159104
O11   O     O_R   0.913920 0.203370 0.916260 -0.511518
O12   O     O_R   0.086080 0.703370 0.083740 -0.511509
O13   O     O_R   0.047620 0.535540 0.888290 -0.543012
O14   O     O_R   0.952380 0.035540 0.111710 -0.543015
C45   C     C_R   0.062979 0.367636 0.860889 0.671629
C46   C     C_R   0.937022 0.867636 0.139111 0.671595
O15   O     O_R   0.912040 0.532780 0.904220 -0.556599
O16   O     O_R   0.087960 0.032780 0.095780 -0.556608
O17   O     O_R   0.949550 0.708160 0.099720 -0.538957
O18   O     O_R   0.050450 0.208160 0.900280 -0.538950
C47   C     C_R   0.885179 0.363861 0.883415 0.734231
C48   C     C_R   0.114821 0.863863 0.116584 0.734248
O19   O     O_3   0.012480 0.375300 0.064060 -0.384064
O20   O     O_3   0.987520 0.875300 0.935940 -0.384065
V3    V     V_3+5 0.997690 0.648180 0.988110 1.410239
V4    V     V_3+5 0.002310 0.148180 0.011890 1.410229
O21   O     O_3   0.507150 0.026842 0.178336 -0.566454
C49   C     C_3   0.483556 0.094269 0.080087 0.081863
H19   H     H_    0.500339 0.003516 0.025050 0.112402
H20   H     H_    0.503042 0.235668 0.074823 0.129681
C50   C     C_3   0.405580 0.103904 0.052350 -0.777395
H21   H     H_    0.384548 0.142047 0.117920 0.240976
H22   H     H_    0.389072 0.207719 0.992675 0.192384
H23   H     H_    0.384117 0.970865 0.021643 0.191139
O22   O     O_3   0.492852 0.526828 0.821670 -0.566455
C51   C     C_3   0.516441 0.594285 0.919914 0.081865
H24   H     H_    0.499651 0.503560 0.974956 0.112403
H25   H     H_    0.496960 0.735692 0.925161 0.129688
C52   C     C_3   0.594417 0.603897 0.947663 -0.777414
H26   H     H_    0.615456 0.642029 0.882099 0.240965
H27   H     H_    0.610927 0.707706 0.007341 0.192401
H28   H     H_    0.615870 0.470852 0.978368 0.191145
O23   O     O_3   0.350193 0.601647 0.223279 -0.564631
C53   C     C_3   0.389231 0.691548 0.164067 0.074955
H29   H     H_    0.409705 0.824217 0.197911 0.169373
H30   H     H_    0.357368 0.714418 0.088237 0.114142
C54   C     C_3   0.449470 0.572288 0.154930 -0.694936
H31   H     H_    0.430419 0.459239 0.102995 0.199784
H32   H     H_    0.487057 0.654189 0.124736 0.177242
H33   H     H_    0.474979 0.514853 0.228398 0.260297
O24   O     O_3   0.649805 0.101660 0.776715 -0.564617
C55   C     C_3   0.610781 0.191565 0.835946 0.074987
H34   H     H_    0.590306 0.324232 0.802106 0.169371
H35   H     H_    0.642654 0.214435 0.911768 0.114179
C56   C     C_3   0.550544 0.072314 0.845103 -0.694974
H36   H     H_    0.569600 0.959257 0.897029 0.199805
H37   H     H_    0.512970 0.154220 0.875318 0.177247
H38   H     H_    0.525021 0.014893 0.771637 0.260281
O25   O     O_3   0.215468 0.593188 0.094249 -0.568578
C57   C     C_3   0.242595 0.414432 0.117281 0.113076
H39   H     H_    0.243922 0.375245 0.196116 0.139159
H40   H     H_    0.294156 0.403335 0.100453 0.180464
C58   C     C_3   0.199229 0.274786 0.050795 -0.706105
H41   H     H_    0.207664 0.282084 0.974310 0.203671
H42   H     H_    0.214560 0.134825 0.078038 0.179728
H43   H     H_    0.144889 0.301202 0.050625 0.265020
O26   O     O_3   0.784522 0.093166 0.905729 -0.568570
C59   C     C_3   0.757443 0.914388 0.882652 0.113058
H44   H     H_    0.756198 0.875233 0.803843 0.139049
H45   H     H_    0.705860 0.903193 0.899371 0.180550
C60   C     C_3   0.800777 0.774787 0.949206 -0.706139
H46   H     H_    0.792285 0.782128 0.025659 0.203702
H47   H     H_    0.785467 0.634808 0.921972 0.179733
H48   H     H_    0.855126 0.801212 0.949446 0.265013

loop_
_geom_bond_atom_site_label_1
_geom_bond_atom_site_label_2
_ccdc_geom_bond_type
C60   H48   S    
C14   C16   A    
C30   O22   S    
C35   H17   S    
C7    C29   A    
C11   C13   A    
C54   H31   S    
O1    C3    A    
O2    C4    A    
C26   H14   S    
C2    O7    A    
C9    H7    S    
C12   H12   S    
C50   H23   S    
C60   H46   S    
C23   C25   A    
C55   H34   S    
O5    C3    A    
C14   H10   S    
C4    C7    S    
O13   V3    S    
C36   C38   A    
C32   C45   S    
C41   O25   S    
C19   C21   A    
C5    C29   A    
C46   O17   A    
C45   O18   A    
H2    C24   S    
C11   H11   S    
O24   C55   S    
C3    C8    S    
C7    C27   A    
C53   H29   S    
C34   H16   S    
C39   C41   A    
C49   H19   S    
O11   V4    S    
O19   V4    S    
O11   C47   A    
C54   H32   S    
C50   H21   S    
C55   H35   S    
C59   H44   S    
C18   C26   A    
O23   C53   S    
C15   C17   A    
C53   C54   S    
C54   H33   S    
C19   C27   A    
C9    C31   A    
C10   C32   A    
O12   V3    S    
O15   V3    S    
C24   C26   A    
O6    V2    S    
C59   H45   S    
O18   V4    S    
C31   C46   S    
C1    C38   S    
C6    C30   A    
C51   H25   S    
O13   C45   A    
C39   O23   S    
O17   V3    S    
C35   C37   A    
C33   H15   S    
O25   C57   S    
C42   C44   A    
O21   C49   S    
C41   C43   A    
C27   H5    S    
O5    V1    S    
O16   C48   A    
C49   C50   S    
C5    H3    S    
C37   C39   A    
C16   C18   A    
O4    V2    S    
C58   H42   S    
C10   H8    S    
O22   C51   S    
O6    C4    A    
C49   H20   S    
C52   H27   S    
O1    V2    S    
C5    C21   A    
O2    V1    S    
C56   H37   S    
H1    C23   S    
C57   C58   S    
O4    C2    A    
C2    C37   S    
C17   C31   A    
C15   C19   A    
C20   C28   A    
C18   C32   A    
C58   H41   S    
O12   C48   A    
O3    V1    S    
C42   O26   S    
C57   H40   S    
C56   H38   S    
C28   H6    S    
C60   H47   S    
C33   C43   A    
C50   H22   S    
C6    H4    S    
C10   C12   A    
O3    C1    A    
C56   H36   S    
C16   C20   A    
C40   O24   S    
C9    C11   A    
C33   C35   A    
O16   V4    S    
C55   C56   S    
C34   C36   A    
C17   C25   A    
C12   C14   A    
C6    C22   A    
C58   H43   S    
C8    C30   A    
C1    O8    A    
C13   C15   A    
O8    V2    S    
C20   C22   A    
C22   C24   A    
C13   H9    S    
O14   V4    S    
C59   C60   S    
C8    C28   A    
C34   C44   A    
C51   H24   S    
C53   H30   S    
C52   H28   S    
O14   C46   A    
C51   C52   S    
C44   C47   S    
O7    V1    S    
C29   O21   S    
C43   C48   S    
C25   H13   S    
C21   C23   A    
O20   V3    S    
C38   C40   A    
O9    V2    S    
C52   H26   S    
O10   V1    S    
C40   C42   A    
O15   C47   A    
O26   C59   S    
C36   H18   S    
C57   H39   S    
