data_mof_unit_39745.cif
_audit_creation_date              2012-12-10T20:30:14-0500
_audit_creation_method            fapswitch 2.2
_symmetry_space_group_name_H-M    P1
_symmetry_Int_Tables_number       1
_space_group_crystal_system       triclinic
_cell_length_a                    9.943453
_cell_length_b                    10.72808
_cell_length_c                    13.122424
_cell_angle_alpha                 90.927535
_cell_angle_beta                  70.891951
_cell_angle_gamma                 91.941304
_cell_volume                      1321.91895582

loop_
_atom_site_label
_atom_site_type_symbol
_atom_type_description
_atom_site_fract_x
_atom_site_fract_y
_atom_site_fract_z
_atom_type_partial_charge
C1    C     C_R   0.503134 0.739202 0.498288 0.920780
C2    C     C_R   0.368518 0.510261 0.821413 -0.306998
C3    C     C_R   0.455732 0.929389 0.420335 -0.052123
C4    C     C_R   0.420672 0.500582 0.703868 1.008747
C5    C     C_R   0.516748 0.869856 0.486273 -0.067799
C6    C     C_R   0.602954 0.938853 0.533270 -0.161881
C7    C     C_R   0.601755 0.067732 0.531215 -0.202420
C8    C     C_R   0.509829 0.127000 0.486355 -0.068693
C9    C     C_R   0.453015 0.056448 0.419250 -0.042223
C10   C     C_3   0.318296 0.050573 0.391269 0.636371
C11   C     C_3   0.322431 0.908485 0.393995 0.369376
C12   C     C_R   0.429390 0.501222 0.985478 -0.062715
C13   C     C_R   0.919728 0.602992 0.532919 0.071076
C14   C     C_R   0.944793 0.408271 0.450511 -0.163453
C15   C     C_R   0.090662 0.411743 0.444988 0.283817
C16   C     C_R   0.500892 0.259879 0.495622 0.885015
C17   C     C_R   0.059607 0.601285 0.535446 0.023781
C18   C     C_3   0.023933 0.667131 0.640887 0.470182
C19   C     C_3   0.873832 0.678642 0.635029 -0.132116
C20   C     C_R   0.578846 0.499274 0.296491 0.862076
C21   C     C_R   0.728835 0.337480 0.034459 -0.118166
C22   C     C_R   0.624948 0.479128 0.181175 -0.026692
C23   C     C_R   0.439246 0.450495 0.883480 -0.095245
C24   C     C_R   0.264555 0.598066 0.869630 0.501275
C25   C     C_R   0.237294 0.631981 0.976696 0.631149
C26   C     C_R   0.321468 0.587607 0.033397 -0.362762
C27   C     C_3   0.469827 0.108259 0.202284 -0.723125
C28   C     C_3   0.223194 0.380476 0.260449 -0.742084
C29   C     C_3   0.725997 0.696417 0.821222 -0.675919
C30   C     C_3   0.369999 0.195571 0.792758 -0.706625
C31   C     C_R   0.531410 0.467242 0.033192 0.034654
C32   C     C_R   0.628890 0.372139 0.985984 -0.008564
C33   C     C_R   0.620670 0.308947 0.894468 0.498188
C34   C     C_R   0.523040 0.344492 0.844952 0.135931
C35   C     C_R   0.540128 0.526073 0.126501 -0.190042
C36   C     C_R   0.724931 0.389225 0.133237 -0.225027
F1    F     F_    0.203497 0.096258 0.473141 -0.675012
F2    F     F_    0.347955 0.850394 0.294695 -0.679394
F3    F     F_    0.094448 0.781479 0.633911 -0.613601
F4    F     F_    0.704667 0.210055 0.855061 -0.675400
F5    F     F_    0.196401 0.657630 0.811275 -0.621525
F6    F     F_    0.136279 0.716157 0.023401 -0.609579
H1    H     H_    0.791401 0.352074 0.175772 0.154837
H2    H     H_    0.663816 0.894177 0.576597 0.163653
H3    H     H_    0.250328 0.068078 0.256802 0.256154
H4    H     H_    0.458710 0.145794 0.127173 0.240978
H5    H     H_    0.518062 0.015306 0.184098 0.289759
H6    H     H_    0.541324 0.173263 0.228691 0.225662
H7    H     H_    0.139021 0.245587 0.371958 0.263066
H8    H     H_    0.132825 0.367051 0.228652 0.211463
H9    H     H_    0.315497 0.330024 0.207242 0.260210
H10   H     H_    0.251892 0.481373 0.258230 0.258987
H11   H     H_    0.784217 0.528215 0.738742 0.232783
H12   H     H_    0.667971 0.119619 0.568685 0.176630
H13   H     H_    0.632333 0.654606 0.882478 0.240708
H14   H     H_    0.696841 0.790748 0.803325 0.254932
H15   H     H_    0.814854 0.704728 0.854992 0.268136
H16   H     H_    0.588288 0.215100 0.722120 0.271561
H17   H     H_    0.367734 0.128605 0.857097 0.259018
H18   H     H_    0.360123 0.142359 0.722219 0.255437
H19   H     H_    0.277465 0.257192 0.822203 0.244287
H20   H     H_    0.233981 0.864479 0.459429 0.190173
H21   H     H_    0.904778 0.334951 0.409532 0.150803
H22   H     H_    0.032118 0.606680 0.706404 0.146637
H23   H     H_    0.847605 0.775055 0.619486 0.196427
H24   H     H_    0.803719 0.264896 0.999863 0.206345
H25   H     H_    0.473804 0.602572 0.164009 0.177077
H26   H     H_    0.299077 0.622826 0.114323 0.206887
N1    N     N_R   0.856940 0.500860 0.500710 -0.103657
N2    N     N_R   0.142580 0.500820 0.500710 -0.137207
N3    N     N_2   0.330998 0.099084 0.285048 -0.304446
N4    N     N_2   0.184667 0.333333 0.369350 -0.227842
N5    N     N_2   0.765911 0.619554 0.724920 -0.290388
N6    N     N_2   0.502393 0.268214 0.761248 -0.305887
O1    O     O_R   0.385310 0.683210 0.499990 -0.575679
O2    O     O_R   0.614650 0.683240 0.500000 -0.624423
O3    O     O_R   0.328390 0.499940 0.653610 -0.581758
O4    O     O_R   0.557730 0.499980 0.653620 -0.591429
O5    O     O_R   0.385350 0.316760 0.500000 -0.553214
O6    O     O_R   0.614690 0.316790 0.500010 -0.643072
O7    O     O_R   0.442270 0.500020 0.346380 -0.595776
O8    O     O_R   0.671610 0.500060 0.346390 -0.613627
Zn1   Zn    Zn3+2 0.346870 0.499980 0.499990 1.046106
Zn2   Zn    Zn3+2 0.653130 0.500020 0.500010 0.976452

loop_
_geom_bond_atom_site_label_1
_geom_bond_atom_site_label_2
_ccdc_geom_bond_type
C27   H6    S    
C20   O8    A    
C21   H24   S    
H3    N3    S    
O6    Zn2   S    
C11   H20   S    
C18   H22   S    
O2    Zn2   S    
C7    C8    A    
C21   C36   A    
C15   N4    S    
C12   C23   A    
C10   F1    S    
C1    C5    S    
C5    C6    A    
C30   N6    S    
C28   H9    S    
C29   N5    S    
O3    Zn1   S    
C18   C19   S    
C28   H8    S    
C8    C9    A    
H7    N4    S    
C30   H18   S    
C9    C10   S    
C10   N3    S    
C17   N2    A    
C8    C16   S    
C6    H2    S    
C20   O7    A    
C24   F5    S    
C28   N4    S    
O7    Zn1   S    
C33   C34   A    
C21   C32   A    
C33   F4    S    
C13   C19   S    
C1    O1    A    
N2    Zn1   S    
C19   N5    S    
C24   C25   A    
C29   H13   S    
C25   C26   A    
C12   C26   A    
C16   O6    A    
C11   F2    S    
C2    C4    S    
C18   F3    S    
C4    O4    A    
C22   C35   A    
C31   C32   A    
C35   H25   S    
C23   C34   A    
C30   H17   S    
C17   C18   S    
C3    C9    A    
C34   N6    S    
C27   H4    S    
C20   C22   S    
O8    Zn2   S    
C12   C31   A    
C2    C24   A    
C14   N1    A    
C31   C35   A    
C27   N3    S    
H16   N6    S    
C27   H5    S    
C15   N2    A    
C1    O2    A    
H11   N5    S    
C29   H15   S    
C3    C5    A    
C25   F6    S    
C6    C7    A    
C29   H14   S    
C22   C36   A    
C13   C17   A    
C16   O5    A    
C26   H26   S    
C32   C33   A    
C4    O3    A    
N1    Zn2   S    
O5    Zn1   S    
C28   H10   S    
O1    Zn1   S    
C13   N1    A    
C14   H21   S    
C19   H23   S    
C3    C11   S    
C10   C11   S    
O4    Zn2   S    
C30   H19   S    
C2    C23   A    
C14   C15   A    
C36   H1    S    
C7    H12   S    
