data_mof_unit_55959.cif
_audit_creation_date              2013-03-05T16:15:22-0500
_audit_creation_method            fapswitch 2.2
_symmetry_space_group_name_H-M    P1
_symmetry_Int_Tables_number       1
_space_group_crystal_system       triclinic
_cell_length_a                    27.786024
_cell_length_b                    10.606578
_cell_length_c                    9.485045
_cell_angle_alpha                 89.818046
_cell_angle_beta                  89.639795
_cell_angle_gamma                 89.373494
_cell_volume                      2795.14569105

loop_
_atom_site_label
_atom_site_type_symbol
_atom_site_description
_atom_site_fract_x
_atom_site_fract_y
_atom_site_fract_z
_atom_type_partial_charge
O1    O     O_R   0.500020 0.316850 0.620870 -0.554291
O2    O     O_R   0.499980 0.683150 0.379130 -0.559373
O3    O     O_R   0.500000 0.316860 0.379090 -0.564026
O4    O     O_R   0.500000 0.683140 0.620910 -0.558344
C1    C     C_R   0.499905 0.259803 0.499788 0.846874
C2    C     C_R   0.500458 0.740264 0.500072 0.847866
O5    O     O_R   0.430270 0.500020 0.620880 -0.527909
O6    O     O_R   0.569730 0.499980 0.379120 -0.560024
O7    O     O_R   0.430250 0.500030 0.379090 -0.596580
O8    O     O_R   0.569750 0.499970 0.620910 -0.566894
C3    C     C_R   0.407352 0.497677 0.500316 0.838440
C4    C     C_R   0.592441 0.504924 0.499231 0.838456
Cu1   Cu    Cu3+1 0.500010 0.499990 0.643150 1.034226
Cu2   Cu    Cu3+1 0.499990 0.500010 0.356850 1.006868
C5    C     C_R   0.176382 0.389293 0.503218 0.542570
C6    C     C_R   0.822187 0.638433 0.461416 0.541758
O9    O     O_2   0.202054 0.281199 0.510861 -0.537524
O10   O     O_2   0.796115 0.745955 0.471845 -0.537149
N1    N     N_R   0.200650 0.498099 0.474468 -0.458391
N2    N     N_R   0.798499 0.525712 0.460334 -0.458455
C7    C     C_R   0.177159 0.610047 0.454133 0.517367
C8    C     C_R   0.822976 0.413309 0.463655 0.517206
C9    C     C_R   0.280477 0.508230 0.354535 0.199160
C10   C     C_R   0.719149 0.476118 0.354387 0.193790
C11   C     C_R   0.330755 0.509600 0.366161 -0.248424
C12   C     C_R   0.669285 0.465816 0.372484 -0.214554
C13   C     C_R   0.324847 0.475763 0.619019 0.185857
C14   C     C_R   0.673185 0.572484 0.597625 0.133848
C15   C     C_R   0.274876 0.479608 0.607967 -0.164604
C16   C     C_R   0.723255 0.572839 0.585884 -0.141397
C17   C     C_R   0.252381 0.496349 0.477936 0.303059
C18   C     C_R   0.746674 0.524894 0.465959 0.284247
C19   C     C_R   0.100957 0.506792 0.496917 -0.083781
C20   C     C_R   0.898479 0.525497 0.472134 -0.076418
C21   C     C_R   0.125508 0.391198 0.524104 -0.082407
C22   C     C_R   0.873280 0.641642 0.460216 -0.106244
C23   C     C_R   0.098416 0.285956 0.576127 0.102319
C24   C     C_R   0.899909 0.755869 0.458488 0.115155
C25   C     C_R   0.126985 0.615520 0.458777 0.005301
C26   C     C_R   0.873224 0.410904 0.467863 0.005140
C27   C     C_R   0.353828 0.494886 0.497470 -0.114028
C28   C     C_R   0.645610 0.512602 0.493248 -0.113791
H1    H     H_    0.252876 0.466868 0.701554 0.155839
H2    H     H_    0.744307 0.614686 0.668924 0.176586
C29   C     C_R   0.973796 0.406045 0.501750 0.075757
C30   C     C_R   0.025759 0.629710 0.476198 0.073192
C31   C     C_R   0.974872 0.636682 0.489132 -0.015974
C32   C     C_R   0.023665 0.404481 0.532618 -0.004843
C33   C     C_R   0.949120 0.522950 0.486352 0.021887
C34   C     C_R   0.050143 0.513637 0.502613 0.027948
C35   C     C_R   0.948399 0.294272 0.478528 -0.209314
C36   C     C_R   0.052612 0.732430 0.426963 -0.211740
C37   C     C_R   0.898673 0.296189 0.465880 -0.159388
C38   C     C_R   0.102469 0.726842 0.422445 -0.162207
O11   O     O_2   0.798551 0.303953 0.465710 -0.536269
O12   O     O_2   0.202494 0.715744 0.428863 -0.535439
C39   C     C_R   0.047767 0.300150 0.596442 0.100338
C40   C     C_R   0.948589 0.752071 0.501947 0.155751
H3    H     H_    0.648710 0.423287 0.289335 0.197162
H4    H     H_    0.351842 0.520983 0.270608 0.180249
H5    H     H_    0.880309 0.207372 0.453472 0.187607
H6    H     H_    0.121691 0.809166 0.385878 0.182315
H7    H     H_    0.966935 0.205076 0.465201 0.131077
H8    H     H_    0.035376 0.815163 0.383167 0.139390
C41   C     C_3   0.513230 0.041243 0.370603 -0.153926
C42   C     C_3   0.487457 0.959188 0.628431 -0.144592
C43   C     C_3   0.469175 0.957987 0.403384 -0.206044
C44   C     C_3   0.531565 0.042324 0.595572 -0.195118
H9    H     H_    0.443606 0.920923 0.324558 0.190832
H10   H     H_    0.557154 0.079333 0.674373 0.195573
H11   H     H_    0.523006 0.074315 0.263573 0.215538
H12   H     H_    0.477829 0.926688 0.735684 0.213924
C45   C     C_3   0.500880 0.877176 0.500665 -0.088106
C46   C     C_3   0.499843 0.123031 0.498478 -0.091570
C47   C     C_3   0.544716 0.958522 0.468128 0.206730
C48   C     C_3   0.456006 0.041856 0.530730 0.198121
C49   C     C_3   0.514875 0.606008 0.048437 0.234554
C50   C     C_3   0.485096 0.393660 0.951741 0.256978
C51   C     C_3   0.472217 0.587605 0.950176 0.225460
C52   C     C_3   0.527608 0.412353 0.050042 0.190402
N3    N     N_3   0.500040 0.499970 0.858290 -0.211844
N4    N     N_3   0.499960 0.500030 0.141710 -0.216595
C53   C     C_3   0.542577 0.517767 0.948371 -0.151512
C54   C     C_3   0.457220 0.481589 0.052251 -0.148798
H13   H     H_    0.579135 0.524788 0.903918 0.193265
H14   H     H_    0.421095 0.465747 0.099094 0.174354
I1    I     I_    0.349863 0.429357 0.823293 -0.328399
I2    I     I_    0.644111 0.683767 0.763124 -0.311860
I3    I     I_    0.616910 0.898617 0.424429 -0.234584
I4    I     I_    0.384084 0.106935 0.569064 -0.250491
I5    I     I_    0.422852 0.730450 0.880796 -0.276990
I6    I     I_    0.578859 0.274534 0.119774 -0.333804
I7    I     I_    0.544938 0.783569 0.101796 -0.248578
I8    I     I_    0.460070 0.209642 0.900613 -0.252595
C55   C     C_3   0.121618 0.157691 0.607058 -0.348164
C56   C     C_3   0.149007 0.156104 0.746969 -0.711450
H15   H     H_    0.123996 0.168484 0.837499 0.216153
H16   H     H_    0.167988 0.064114 0.759273 0.249808
H17   H     H_    0.175886 0.232345 0.752051 0.273591
H18   H     H_    0.094402 0.081855 0.609746 0.164011
H19   H     H_    0.144900 0.126725 0.518282 0.248701
C57   C     C_3   0.878992 0.878942 0.398989 -0.322655
C58   C     C_3   0.913566 0.946446 0.298077 -0.907951
H20   H     H_    0.944193 0.988078 0.354952 0.239062
H21   H     H_    0.927492 0.879886 0.216908 0.263333
H22   H     H_    0.894165 0.024719 0.243987 0.259476
H23   H     H_    0.847158 0.860347 0.332983 0.260815
H24   H     H_    0.867835 0.943149 0.485750 0.218521
C59   C     C_3   0.741396 0.436388 0.214863 -0.381974
C60   C     C_3   0.723622 0.520083 0.093932 -0.767269
H25   H     H_    0.684293 0.509131 0.078115 0.267820
H26   H     H_    0.731407 0.620649 0.116235 0.273861
H27   H     H_    0.742379 0.492705 0.994705 0.246134
H28   H     H_    0.781195 0.442033 0.215967 0.212975
H29   H     H_    0.732041 0.336703 0.193203 0.234379
C61   C     C_3   0.258290 0.513623 0.209416 -0.394671
C62   C     C_3   0.260768 0.384441 0.139333 -0.756034
H30   H     H_    0.298722 0.351484 0.129550 0.275616
H31   H     H_    0.240116 0.314874 0.202461 0.270793
H32   H     H_    0.244937 0.390506 0.032274 0.245641
H33   H     H_    0.220119 0.544795 0.213299 0.219127
H34   H     H_    0.277692 0.583291 0.142901 0.225143
C63   C     C_3   0.021714 0.221037 0.709284 -0.404659
C64   C     C_3   0.996938 0.303231 0.821223 -0.794516
H35   H     H_    0.022790 0.371812 0.864980 0.251140
H36   H     H_    0.965561 0.355010 0.777198 0.260933
H37   H     H_    0.983661 0.242676 0.908630 0.235123
H38   H     H_    0.995687 0.154740 0.664100 0.190835
H39   H     H_    0.046793 0.160244 0.769152 0.211577
C65   C     C_3   0.967313 0.861137 0.591219 -0.406902
C66   C     C_3   0.983316 0.816910 0.737330 -0.817374
H40   H     H_    0.953882 0.764565 0.790496 0.255661
H41   H     H_    0.015763 0.755337 0.729902 0.260701
H42   H     H_    0.992406 0.899969 0.802641 0.235235
H43   H     H_    0.996810 0.913469 0.540177 0.182739
H44   H     H_    0.938494 0.932553 0.609458 0.209569

loop_
_geom_bond_atom_site_label_1
_geom_bond_atom_site_label_2
_geom_bond_distance
_ccdc_geom_bond_type
C42   C44   1.547208 S    
C63   H39   1.103010 S    
C30   C36   1.404278 A    
C13   C15   1.393250 A    
C65   H43   1.103405 S    
C66   H42   1.110837 S    
N1    C17   1.437889 S    
C32   C39   1.422723 A    
C31   C33   1.409688 A    
C44   C47   1.542388 S    
O5    C3    1.312832 A    
C19   C25   1.412845 A    
C46   C48   1.528092 S    
O1    C1    1.299848 A    
N1    C7    1.362461 A    
C54   H14   1.109422 S    
C62   H31   1.111045 S    
N2    C18   1.440767 S    
C51   C54   1.540693 S    
C50   C52   1.524517 S    
C25   C38   1.399904 A    
C29   C35   1.404958 A    
C44   C46   1.531841 S    
C56   H17   1.108121 S    
Cu1   N3    2.040618 S    
C1    C46   1.450790 S    
C61   C62   1.525493 S    
C23   C55   1.527464 S    
C49   I7    2.132275 S    
O4    Cu1   1.953346 S    
C60   H25   1.111376 S    
C4    C28   1.481216 S    
C9    C61   1.512408 S    
C24   C40   1.416626 A    
C37   H5    1.083350 S    
C42   H12   1.105278 S    
C55   C56   1.533897 S    
C41   C43   1.546617 S    
C56   H16   1.110209 S    
C14   I2    2.117764 S    
C57   H24   1.110330 S    
C43   C45   1.533241 S    
C11   H4    1.083265 S    
C12   H3    1.079757 S    
C51   I5    2.137660 S    
C6    N2    1.371178 A    
C24   C57   1.530739 S    
C32   C34   1.405924 A    
C42   C48   1.542572 S    
Cu1   Cu2   2.715570 S    
C15   H1    1.083581 S    
C45   C47   1.529634 S    
C16   H2    1.083160 S    
O2    C2    1.299180 A    
C52   C53   1.533411 S    
C5    C21   1.426087 A    
N3    C53   1.476896 S    
C36   C38   1.386327 A    
C49   C51   1.527007 S    
C61   H33   1.107934 S    
C63   C64   1.531298 S    
C35   H7    1.079604 S    
C52   N4    1.480568 S    
C36   H8    1.078407 S    
C62   H32   1.110574 S    
C11   C27   1.411803 A    
C51   N3    1.483976 S    
C59   H29   1.111635 S    
C55   H18   1.110143 S    
C38   H6    1.083491 S    
O3    C1    1.293241 A    
C19   C34   1.413696 A    
C41   H11   1.106248 S    
C42   C45   1.535689 S    
C41   C46   1.534934 S    
C43   H9    1.110393 S    
C9    C17   1.408921 A    
C52   I6    2.135995 S    
C5    N1    1.368804 A    
O7    Cu2   1.947924 S    
C10   C18   1.412380 A    
C39   C63   1.539982 S    
C13   C27   1.417445 A    
C7    C25   1.395154 A    
C29   C33   1.417908 A    
O6    C4    1.307298 A    
C8    C26   1.396954 A    
C56   H15   1.108486 S    
C57   H23   1.106727 S    
C58   H21   1.111125 S    
C6    O10   1.347953 S    
C13   I1    2.117282 S    
O7    C3    1.310913 A    
C60   H27   1.110867 S    
O3    Cu2   1.953345 S    
O8    C4    1.312809 A    
C59   H28   1.108246 S    
C64   H37   1.110813 S    
O4    C2    1.294796 A    
C53   H13   1.100562 S    
N2    C8    1.366465 A    
N4    C54   1.478977 S    
C20   C26   1.410918 A    
O1    Cu1   1.954615 S    
Cu2   N4    2.040618 S    
C66   H40   1.111040 S    
C12   C28   1.406432 A    
C2    C45   1.452377 S    
C64   H36   1.108476 S    
C61   H34   1.111821 S    
C29   C32   1.417956 A    
C5    O9    1.345664 S    
C30   C31   1.419618 A    
C20   C33   1.414370 A    
O6    Cu2   1.950592 S    
C21   C23   1.437499 A    
C65   H44   1.109380 S    
C10   C59   1.516112 S    
C10   C12   1.400473 A    
C66   H41   1.109465 S    
O8    Cu1   1.947924 S    
C7    O12   1.350272 S    
C8    O11   1.350283 S    
C50   I8    2.137318 S    
C30   C34   1.421086 A    
C41   C47   1.542426 S    
C22   C24   1.426518 A    
C65   C66   1.528884 S    
C14   C16   1.395038 A    
C15   C17   1.396163 A    
C62   H30   1.110793 S    
C6    C22   1.420413 A    
C31   C40   1.423487 A    
C16   C18   1.401098 A    
C50   N3    1.492927 S    
C63   H38   1.103670 S    
C49   N4    1.489028 S    
C40   C65   1.533233 S    
C14   C28   1.412377 A    
C19   C21   1.420207 A    
C3    C27   1.488273 S    
C58   H22   1.110870 S    
C20   C22   1.414862 A    
C9    C11   1.402304 A    
C57   C58   1.533244 S    
O2    Cu2   1.954614 S    
C60   H26   1.111910 S    
C47   I3    2.136096 S    
C50   C54   1.535947 S    
O5    Cu1   1.950592 S    
C44   H10   1.110385 S    
C26   C37   1.400716 A    
C58   H20   1.107104 S    
C49   C53   1.532978 S    
C43   C48   1.542187 S    
C35   C37   1.387562 A    
C59   C60   1.529280 S    
C23   C39   1.425678 A    
C55   H19   1.107115 S    
C48   I4    2.136525 S    
C64   H35   1.111075 S    
