data_mof_unit_62062.cif
_audit_creation_date              2012-12-10T19:17:27-0500
_audit_creation_method            fapswitch 2.2
_symmetry_space_group_name_H-M    P1
_symmetry_Int_Tables_number       1
_space_group_crystal_system       triclinic
_cell_length_a                    22.300263
_cell_length_b                    22.310491
_cell_length_c                    14.972028
_cell_angle_alpha                 89.998254
_cell_angle_beta                  90.011249
_cell_angle_gamma                 90.000192
_cell_volume                      7449.03020328

loop_
_atom_site_label
_atom_site_type_symbol
_atom_type_description
_atom_site_fract_x
_atom_site_fract_y
_atom_site_fract_z
_atom_type_partial_charge
Br1   Br    Br    0.802162 0.295430 0.304009 -0.532262
Br2   Br    Br    0.805194 0.292678 0.695763 -0.529943
Br3   Br    Br    0.826182 0.727723 0.311413 -0.534457
Br4   Br    Br    0.780957 0.683962 0.691816 -0.530254
Br5   Br    Br    0.308824 0.788817 0.304795 -0.533109
Br6   Br    Br    0.298527 0.799291 0.695980 -0.528765
Br7   Br    Br    0.329901 0.231494 0.313853 -0.535420
Br8   Br    Br    0.277131 0.180095 0.689954 -0.529418
C1    C     C_R   0.081133 0.419091 0.500016 0.902517
C2    C     C_1   0.838847 0.664685 0.500230 0.034708
C3    C     C_1   0.338877 0.835285 0.500049 0.034812
C4    C     C_1   0.338831 0.164672 0.500280 0.034647
C5    C     C_1   0.875479 0.373818 0.499981 -0.109396
C6    C     C_1   0.875468 0.626172 0.500032 -0.109687
C7    C     C_1   0.375481 0.873816 0.499997 -0.109329
C8    C     C_1   0.375461 0.126167 0.500040 -0.109762
C9    C     C_3   0.041221 0.450043 0.052181 -0.365975
C10   C     C_3   0.041221 0.450043 0.947842 -0.365748
C11   C     C_3   0.022346 0.560831 0.052172 -0.362279
C12   C     C_R   0.081134 0.580910 0.500007 0.902824
C13   C     C_3   0.022347 0.560831 0.947833 -0.365526
C14   C     C_3   0.539462 0.948637 0.052181 -0.365372
C15   C     C_3   0.539462 0.948636 0.947842 -0.365704
C16   C     C_3   0.524449 0.060012 0.052173 -0.362367
C17   C     C_3   0.524450 0.060012 0.947835 -0.365944
C18   C     C_3   0.999789 0.499991 0.089789 0.230357
C19   C     C_3   0.999789 0.499992 0.910208 0.230431
C20   C     C_3   0.499791 0.999992 0.089789 0.230722
C21   C     C_3   0.499791 0.999992 0.910209 0.230419
C22   C     C_3   0.935795 0.489100 0.947806 -0.352988
C23   C     C_R   0.581133 0.919090 0.500015 0.902473
C24   C     C_3   0.935795 0.489099 0.052152 -0.356161
C25   C     C_3   0.435457 0.991328 0.947806 -0.352346
C26   C     C_3   0.435457 0.991327 0.052152 -0.357258
C27   C     C_1   0.999811 0.499996 0.809378 0.024305
C28   C     C_1   0.999810 0.499995 0.190621 0.024747
C29   C     C_1   0.499811 0.999996 0.809378 0.024076
C30   C     C_1   0.499811 0.999996 0.190622 0.024526
C31   C     C_R   0.918958 0.419016 0.499995 0.897979
C32   C     C_R   0.918960 0.580986 0.499997 0.898462
C33   C     C_R   0.418958 0.919015 0.499996 0.898121
C34   C     C_R   0.581132 0.080911 0.500004 0.902940
C35   C     C_R   0.418960 0.080987 0.499997 0.898767
C36   C     C_3   0.802912 0.247578 0.583499 0.056649
C37   C     C_3   0.801682 0.248768 0.414899 0.056230
C38   C     C_3   0.792091 0.741659 0.594531 0.057024
C39   C     C_3   0.811033 0.760546 0.430693 0.055581
C40   C     C_3   0.300013 0.750457 0.587210 0.056700
C41   C     C_3   0.304523 0.745951 0.418857 0.056180
C42   C     C_3   0.290142 0.239729 0.595829 0.056949
C43   C     C_3   0.312403 0.261903 0.433838 0.055646
C44   C     C_3   0.254177 0.697759 0.415603 -0.002977
C45   C     C_1   0.165935 0.659842 0.500174 -0.056659
C46   C     C_3   0.249411 0.702538 0.590269 -0.003481
C47   C     C_3   0.262180 0.310175 0.429503 -0.001888
C48   C     C_3   0.239605 0.287748 0.597911 -0.004233
C49   C     C_3   0.751229 0.200687 0.411840 -0.003104
C50   C     C_3   0.752417 0.199552 0.586779 -0.003319
C51   C     C_3   0.760690 0.808689 0.426393 -0.001849
C52   C     C_3   0.741636 0.789767 0.596715 -0.004330
C53   C     C_1   0.126856 0.623829 0.500050 -0.185000
C54   C     C_1   0.126815 0.376132 0.500162 -0.185470
C55   C     C_1   0.626851 0.123834 0.500009 -0.184878
C56   C     C_1   0.165848 0.340073 0.500687 -0.057020
C57   C     C_1   0.626827 0.876142 0.500137 -0.185419
C58   C     C_3   0.794325 0.288446 0.499952 0.117997
C59   C     C_3   0.794273 0.711504 0.500630 0.118428
C60   C     C_3   0.294329 0.788440 0.500165 0.117985
C61   C     C_3   0.294248 0.211482 0.500758 0.118540
C62   C     C_3   0.213315 0.703916 0.500368 0.230388
C63   C     C_3   0.213176 0.295948 0.501578 0.230852
C64   C     C_3   0.713311 0.203920 0.499935 0.230333
C65   C     C_3   0.713215 0.795986 0.501314 0.230773
C66   C     C_3   0.182941 0.766577 0.494716 -0.519179
C67   C     C_1   0.665929 0.159848 0.499986 -0.056558
C68   C     C_3   0.184480 0.234945 0.474975 -0.519600
C69   C     C_3   0.682867 0.266656 0.501291 -0.519164
C70   C     C_3   0.684009 0.734477 0.478859 -0.519532
C71   C     C_3   0.730744 0.316475 0.501400 -0.368672
C72   C     C_3   0.731987 0.684758 0.477796 -0.368824
C73   C     C_3   0.230814 0.816401 0.494708 -0.368658
C74   C     C_3   0.232468 0.185235 0.473935 -0.368904
C75   C     C_3   0.273652 0.640808 0.619471 -0.902114
C76   C     C_3   0.279835 0.634746 0.397160 -0.901593
C77   C     C_3   0.260331 0.345483 0.645509 -0.901087
C78   C     C_1   0.665873 0.840096 0.500572 -0.056897
C79   C     C_3   0.288323 0.374186 0.430997 -0.903487
C80   C     C_3   0.777536 0.136943 0.609442 -0.902482
C81   C     C_3   0.776143 0.138410 0.386777 -0.901280
C82   C     C_3   0.763364 0.848440 0.640625 -0.901200
C83   C     C_3   0.786770 0.872703 0.423648 -0.903398
C84   C     C_1   0.838874 0.335290 0.499966 0.034788
H1    H     H_    0.847628 0.225638 0.578384 0.141523
H2    H     H_    0.217093 0.715330 0.643729 0.205770
H3    H     H_    0.239469 0.306568 0.363421 0.205681
H4    H     H_    0.202218 0.270434 0.640002 0.206083
H5    H     H_    0.719998 0.212234 0.356337 0.206571
H6    H     H_    0.721979 0.210480 0.643504 0.205723
H7    H     H_    0.736632 0.803672 0.361582 0.205845
H8    H     H_    0.705137 0.773390 0.641296 0.205971
H9    H     H_    0.724924 0.345094 0.561611 0.222261
H10   H     H_    0.724076 0.346014 0.442376 0.221671
H11   H     H_    0.719659 0.649258 0.526621 0.221301
H12   H     H_    0.846508 0.226869 0.417820 0.141433
H13   H     H_    0.732891 0.663158 0.410849 0.222082
H14   H     H_    0.222987 0.847007 0.552184 0.222240
H15   H     H_    0.226200 0.843903 0.433118 0.221702
H16   H     H_    0.219150 0.148801 0.520613 0.221303
H17   H     H_    0.234750 0.164952 0.406148 0.221925
H18   H     H_    0.151951 0.773441 0.552158 0.201864
H19   H     H_    0.155282 0.770218 0.432988 0.203708
H20   H     H_    0.148270 0.222522 0.522757 0.202384
H21   H     H_    0.163229 0.238037 0.407793 0.202307
H22   H     H_    0.653884 0.271533 0.561442 0.201897
H23   H     H_    0.836513 0.762725 0.607500 0.141897
H24   H     H_    0.653147 0.272343 0.442086 0.203799
H25   H     H_    0.648848 0.723046 0.528877 0.202381
H26   H     H_    0.661330 0.736200 0.412610 0.202504
H27   H     H_    0.087798 0.456776 0.923155 0.169600
H28   H     H_    0.087798 0.456777 0.076893 0.170221
H29   H     H_    0.068530 0.569884 0.923148 0.170699
H30   H     H_    0.068528 0.569886 0.076886 0.171070
H31   H     H_    0.586245 0.953749 0.923155 0.169806
H32   H     H_    0.586245 0.953750 0.076894 0.170190
H33   H     H_    0.570919 0.067456 0.923149 0.170721
H34   H     H_    0.854191 0.781390 0.451553 0.141333
H35   H     H_    0.570917 0.067457 0.076887 0.170964
H36   H     H_    0.993220 0.597780 0.076861 0.182174
H37   H     H_    0.993223 0.597780 0.923123 0.180011
H38   H     H_    0.025971 0.405541 0.076878 0.177251
H39   H     H_    0.025970 0.405541 0.923140 0.177799
H40   H     H_    0.496623 0.097949 0.076864 0.181710
H41   H     H_    0.496625 0.097949 0.923125 0.179144
H42   H     H_    0.522676 0.904691 0.076878 0.178029
H43   H     H_    0.522675 0.904691 0.923140 0.177878
H44   H     H_    0.918341 0.445413 0.076850 0.185837
H45   H     H_    0.344821 0.728431 0.587125 0.141546
H46   H     H_    0.918341 0.445414 0.923100 0.186249
H47   H     H_    0.904861 0.524549 0.076842 0.183699
H48   H     H_    0.904862 0.524551 0.923095 0.185425
H49   H     H_    0.416498 0.948273 0.076850 0.185688
H50   H     H_    0.416497 0.948274 0.923099 0.186431
H51   H     H_    0.405775 0.027831 0.076843 0.183115
H52   H     H_    0.405775 0.027832 0.923095 0.185395
H53   H     H_    0.314770 0.628038 0.583015 0.243665
H54   H     H_    0.285774 0.642672 0.691393 0.265263
H55   H     H_    0.239462 0.605115 0.611361 0.255549
H56   H     H_    0.349167 0.724236 0.426795 0.141378
H57   H     H_    0.318948 0.624348 0.439712 0.243383
H58   H     H_    0.245325 0.599420 0.405790 0.255263
H59   H     H_    0.295648 0.632611 0.326871 0.265316
H60   H     H_    0.305054 0.360425 0.622861 0.242735
H61   H     H_    0.227675 0.382503 0.636654 0.257191
H62   H     H_    0.264138 0.336572 0.718294 0.264750
H63   H     H_    0.321783 0.380364 0.484601 0.244506
H64   H     H_    0.311842 0.382817 0.366866 0.265551
H65   H     H_    0.252604 0.408475 0.437882 0.253839
H66   H     H_    0.817328 0.125462 0.568993 0.243733
H67   H     H_    0.334258 0.260544 0.611702 0.141860
H68   H     H_    0.792114 0.136392 0.680394 0.265304
H69   H     H_    0.743058 0.101532 0.601286 0.255192
H70   H     H_    0.816644 0.126639 0.425478 0.243298
H71   H     H_    0.741928 0.102792 0.395348 0.255628
H72   H     H_    0.789536 0.138670 0.315311 0.265277
H73   H     H_    0.807616 0.862821 0.615279 0.242723
H74   H     H_    0.730568 0.885310 0.631527 0.256998
H75   H     H_    0.768653 0.841058 0.713587 0.264786
H76   H     H_    0.821211 0.880084 0.475500 0.244563
H77   H     H_    0.809063 0.879920 0.358173 0.265556
H78   H     H_    0.355140 0.282255 0.457515 0.141334
H79   H     H_    0.751150 0.907110 0.430323 0.253972
H80   H     H_    0.224886 0.707375 0.357021 0.206379
N1    N     N_1   0.999850 0.500000 0.731150 -0.074936
N2    N     N_1   0.999850 0.500000 0.268850 -0.074796
N3    N     N_1   0.499850 0.000000 0.731150 -0.074972
N4    N     N_1   0.499850 0.000000 0.268850 -0.074859
O1    O     O_R   0.061440 0.438650 0.574260 -0.612484
O2    O     O_R   0.938580 0.438650 0.425740 -0.600274
O3    O     O_R   0.938580 0.561350 0.574260 -0.599925
O4    O     O_R   0.938580 0.561350 0.425740 -0.599007
O5    O     O_R   0.438580 0.938650 0.574260 -0.597581
O6    O     O_R   0.438580 0.938650 0.425740 -0.600349
O7    O     O_R   0.438580 0.061350 0.574260 -0.599854
O8    O     O_R   0.438580 0.061350 0.425740 -0.599487
O9    O     O_R   0.061440 0.438650 0.425740 -0.611931
O10   O     O_R   0.061440 0.561350 0.574260 -0.613616
O11   O     O_R   0.061440 0.561350 0.425740 -0.610516
O12   O     O_R   0.561440 0.938650 0.574260 -0.612708
O13   O     O_R   0.561440 0.938650 0.425740 -0.611604
O14   O     O_R   0.561440 0.061350 0.574260 -0.613662
O15   O     O_R   0.561440 0.061350 0.425740 -0.610445
O16   O     O_R   0.938580 0.438650 0.574260 -0.597637
Zn1   Zn    Zn3+2 0.000010 0.500000 0.599130 1.000727
Zn2   Zn    Zn3+2 0.000010 0.500000 0.400870 1.001685
Zn3   Zn    Zn3+2 0.500010 0.000000 0.599130 1.000669
Zn4   Zn    Zn3+2 0.500010 0.000000 0.400870 1.001606

loop_
_geom_bond_atom_site_label_1
_geom_bond_atom_site_label_2
_ccdc_geom_bond_type
C4    C61   S    
C73   H15   S    
C11   H30   S    
C18   C24   S    
C22   H46   S    
C41   C60   S    
C82   H75   S    
C51   H7    S    
C35   O8    A    
O10   Zn1   S    
C36   C58   S    
C50   H6    S    
O9    Zn2   S    
C33   O5    A    
C44   H80   S    
O4    Zn2   S    
C57   C78   T    
C26   H49   S    
Br4   C38   S    
C2    C59   S    
C28   N2    T    
C58   C71   S    
O2    Zn2   S    
C37   C49   S    
C49   C81   S    
C38   H23   S    
C14   H42   S    
C9    C18   S    
C15   C21   S    
C11   C13   S    
C42   C61   S    
C1    O9    A    
O3    Zn1   S    
C63   C68   S    
C70   C72   S    
C80   H69   S    
C75   H54   S    
C21   C25   S    
C52   C65   S    
C23   C57   S    
C56   C63   S    
C39   C59   S    
C12   C53   S    
C44   C76   S    
C11   C18   S    
C17   H33   S    
O15   Zn4   S    
C54   C56   T    
C61   C74   S    
C9    H28   S    
C75   H53   S    
C3    C7    T    
C34   O15   A    
C11   H36   S    
C4    C8    T    
O12   Zn3   S    
C36   C50   S    
C23   O12   A    
C62   C66   S    
C16   H35   S    
O7    Zn3   S    
C65   C70   S    
C71   H10   S    
C36   H1    S    
C74   H16   S    
Br3   C39   S    
C69   H24   S    
C17   H41   S    
C51   C65   S    
C81   H72   S    
C38   C52   S    
C76   H57   S    
C41   C44   S    
C13   C19   S    
C20   C26   S    
C40   C60   S    
C32   O4    A    
C82   H74   S    
C19   C22   S    
C47   C79   S    
Br5   C41   S    
C10   H39   S    
C45   C53   T    
C64   C67   S    
C45   C62   S    
N3    Zn3   S    
C46   C75   S    
C9    C10   S    
C69   C71   S    
C25   H52   S    
C17   C21   S    
C46   H2    S    
C26   H51   S    
C22   H48   S    
C83   H77   S    
C72   H11   S    
C1    C54   S    
C27   N1    T    
C74   H17   S    
C83   H76   S    
C70   H25   S    
C16   C17   S    
C7    C33   S    
C24   H47   S    
C47   H3    S    
C2    C6    T    
Br1   C37   S    
Br2   C36   S    
C66   H19   S    
C24   H44   S    
C58   C84   S    
C19   C27   S    
O8    Zn4   S    
C39   C51   S    
C72   H13   S    
C42   C48   S    
C79   H65   S    
C41   H56   S    
C40   C46   S    
C64   C69   S    
C37   H12   S    
C29   N3    T    
C32   O3    A    
C34   O14   A    
C30   N4    T    
C46   C62   S    
C20   C30   S    
C68   H20   S    
C48   C63   S    
C49   H5    S    
C25   C26   S    
C6    C32   S    
C77   H61   S    
N4    Zn4   S    
C14   H32   S    
C8    C35   S    
C13   H37   S    
Br6   C40   S    
O14   Zn3   S    
C75   H55   S    
C40   H45   S    
C18   C28   S    
O1    Zn1   S    
C80   H66   S    
C5    C84   T    
N1    Zn1   S    
C25   H50   S    
C79   H63   S    
C33   O6    A    
O6    Zn4   S    
C60   C73   S    
C66   C73   S    
C68   C74   S    
C69   H22   S    
Br8   C42   S    
C81   H70   S    
C31   O2    A    
C1    O1    A    
C3    C60   S    
C39   H34   S    
C51   C83   S    
C48   H4    S    
C73   H14   S    
C70   H26   S    
C9    H38   S    
C79   H64   S    
C31   O16   A    
C43   H78   S    
C59   C72   S    
C16   C20   S    
C52   H8    S    
C50   C80   S    
C66   H18   S    
C15   H31   S    
N2    Zn2   S    
C15   H43   S    
C42   H67   S    
C23   O13   A    
C83   H79   S    
C10   C19   S    
O16   Zn1   S    
C68   H21   S    
C77   H60   S    
Br7   C43   S    
C38   C59   S    
O11   Zn2   S    
C12   O11   A    
C22   C24   S    
C16   H40   S    
O13   Zn4   S    
C50   C64   S    
C48   C77   S    
C55   C67   T    
C34   C55   S    
C35   O7    A    
C43   C47   S    
C77   H62   S    
C80   H68   S    
C49   C64   S    
C13   H29   S    
O5    Zn3   S    
C65   C78   S    
C5    C31   S    
C44   C62   S    
C12   O10   A    
C76   H59   S    
C21   C29   S    
C37   C58   S    
C14   C15   S    
C71   H9    S    
C52   C82   S    
C14   C20   S    
C43   C61   S    
C82   H73   S    
C10   H27   S    
C81   H71   S    
C47   C63   S    
C76   H58   S    
