data_mof_unit_30630.cif
_audit_creation_date              2012-12-10T19:48:37-0500
_audit_creation_method            fapswitch 2.2
_symmetry_space_group_name_H-M    P1
_symmetry_Int_Tables_number       1
_space_group_crystal_system       triclinic
_cell_length_a                    13.099568
_cell_length_b                    14.283068
_cell_length_c                    15.038839
_cell_angle_alpha                 90.730949
_cell_angle_beta                  91.608412
_cell_angle_gamma                 70.469669
_cell_volume                      2650.84252307

loop_
_atom_site_label
_atom_site_type_symbol
_atom_type_description
_atom_site_fract_x
_atom_site_fract_y
_atom_site_fract_z
_atom_type_partial_charge
C1    C     C_R   0.497080 0.501284 0.671942 0.933979
C2    C     C_R   0.976256 0.469797 0.522100 0.069306
C3    C     C_R   0.879167 0.468535 0.479628 0.078893
C4    C     C_R   0.024335 0.538758 0.492261 0.062286
C5    C     C_R   0.979586 0.599149 0.416715 0.179320
C6    C     C_R   0.887785 0.591772 0.372679 -0.259688
C7    C     C_R   0.839212 0.526156 0.402707 -0.224205
C8    C     C_R   0.120679 0.544092 0.530922 -0.303650
C9    C     C_R   0.133400 0.656084 0.415940 -0.187510
C10   C     C_R   0.819604 0.414552 0.518187 -0.102382
C11   C     C_R   0.542196 0.428925 0.910142 0.344670
C12   C     C_R   0.703723 0.445455 0.501332 0.847552
C13   C     C_R   0.533346 0.419167 0.818719 0.359517
C14   C     C_R   0.488771 0.505237 0.767474 -0.221908
C15   C     C_R   0.433515 0.596292 0.808076 -0.321526
C16   C     C_R   0.424929 0.602974 0.900092 -0.035093
C17   C     C_R   0.481773 0.518746 0.951295 -0.143024
C18   C     C_R   0.510686 0.587392 0.097183 -0.177887
C19   C     C_R   0.518471 0.578934 0.188653 -0.224933
C20   C     C_R   0.498230 0.499680 0.230802 -0.094591
C21   C     C_R   0.468765 0.428352 0.179241 -0.035184
C22   C     C_R   0.450534 0.444431 0.088638 -0.151934
C23   C     C_R   0.501051 0.498937 0.327546 0.851011
C24   C     C_R   0.476647 0.520021 0.047451 0.156347
C25   C     C_R   0.550775 0.882077 0.564703 -0.315245
C26   C     C_R   0.555532 0.782269 0.564002 0.133276
C27   C     C_R   0.440756 0.811010 0.435782 -0.013650
C28   C     C_R   0.436330 0.911200 0.433551 -0.286926
C29   C     C_R   0.492264 0.948498 0.498782 0.164101
C30   C     C_R   0.407001 0.133634 0.465189 -0.376207
C31   C     C_R   0.410957 0.232328 0.464495 0.643953
C32   C     C_R   0.589453 0.172880 0.526250 0.039727
C33   C     C_R   0.585279 0.075491 0.527891 -0.332545
C34   C     C_R   0.296189 0.555529 0.499672 0.858282
C35   C     C_R   0.493443 0.054201 0.498639 0.066980
C36   C     C_R   0.031572 0.661688 0.382500 -0.207161
C37   C     C_R   0.179930 0.592022 0.486595 -0.031192
C38   C     C_R   0.861276 0.354807 0.592341 -0.146867
C39   C     C_R   0.963582 0.344827 0.626639 -0.168346
C40   C     C_R   0.020624 0.402252 0.592867 -0.241502
H1    H     H_    0.179255 0.694855 0.382045 0.142359
H2    H     H_    0.392170 0.660879 0.767685 0.181734
H3    H     H_    0.532805 0.645150 0.065193 0.137329
H4    H     H_    0.543115 0.633362 0.226201 0.163158
H5    H     H_    0.425609 0.391989 0.048209 0.145435
H6    H     H_    0.593172 0.907390 0.617604 0.142394
H7    H     H_    0.396815 0.783946 0.385468 0.130505
H8    H     H_    0.854373 0.635713 0.313920 0.145276
H9    H     H_    0.390775 0.958227 0.380177 0.129450
H10   H     H_    0.337640 0.118077 0.437499 0.151869
H11   H     H_    0.657891 0.014782 0.546504 0.163644
H12   H     H_    0.998023 0.708136 0.325179 0.130357
H13   H     H_    0.159477 0.500977 0.588228 0.127022
H14   H     H_    0.811749 0.320648 0.626995 0.172191
H15   H     H_    0.097833 0.393015 0.624904 0.126493
H16   H     H_    0.996127 0.296824 0.683108 0.137643
H17   H     H_    0.768845 0.521645 0.365713 0.151726
N1    N     N_R   0.500000 0.747530 0.500020 -0.106183
N2    N     N_R   0.499940 0.252470 0.500020 -0.147750
O1    O     O_R   0.499990 0.420530 0.630930 -0.588316
O2    O     O_R   0.499990 0.579480 0.630940 -0.618266
O3    O     O_R   0.653620 0.381060 0.499970 -0.616644
O4    O     O_R   0.653620 0.540010 0.499980 -0.608705
O5    O     O_R   0.500010 0.420520 0.369060 -0.588446
O6    O     O_R   0.500010 0.579470 0.369070 -0.632919
O7    O     O_R   0.346380 0.459990 0.500020 -0.581679
O8    O     O_R   0.346380 0.618940 0.500030 -0.625900
Zn1   Zn    Zn3+2 0.500000 0.393860 0.499990 0.986674
Zn2   Zn    Zn3+2 0.500000 0.606140 0.500010 0.939603
O9    O     O_3   0.566081 0.325221 0.780838 -0.585421
C41   C     C_3   0.482719 0.284242 0.793763 0.170375
H18   H     H_    0.410194 0.323476 0.751452 0.122339
H19   H     H_    0.457991 0.289194 0.864515 0.143495
C42   C     C_3   0.521312 0.174828 0.768874 -0.857632
H20   H     H_    0.598806 0.135111 0.804617 0.261426
H21   H     H_    0.459665 0.141251 0.787246 0.200892
H22   H     H_    0.532245 0.166395 0.696320 0.251076
C43   C     C_R   0.353081 0.696315 0.940382 0.155926
C44   C     C_R   0.267103 0.695107 0.993768 -0.133615
C45   C     C_R   0.199868 0.782934 0.032179 -0.143914
C46   C     C_R   0.217359 0.872653 0.017165 -0.116518
C47   C     C_R   0.301984 0.874706 0.963546 -0.140445
C48   C     C_R   0.369489 0.787018 0.925083 -0.183777
H23   H     H_    0.252048 0.626252 0.005464 0.119135
H24   H     H_    0.134080 0.781448 0.073478 0.123475
H25   H     H_    0.165252 0.940592 0.046956 0.118176
H26   H     H_    0.315444 0.944250 0.951926 0.125193
H27   H     H_    0.435158 0.789800 0.884447 0.118577
C49   C     C_R   0.468921 0.330778 0.212241 0.182909
C50   C     C_R   0.565816 0.261272 0.245222 -0.094546
C51   C     C_R   0.571169 0.163993 0.263838 -0.157344
C52   C     C_R   0.480978 0.134497 0.247451 -0.095561
C53   C     C_R   0.385293 0.202198 0.212481 -0.108615
C54   C     C_R   0.378720 0.300136 0.195669 -0.118459
H28   H     H_    0.637764 0.281971 0.254454 0.098622
H29   H     H_    0.645911 0.110689 0.289080 0.122534
H30   H     H_    0.485625 0.058891 0.260886 0.121041
H31   H     H_    0.316487 0.178446 0.197391 0.113471
H32   H     H_    0.304463 0.351309 0.167192 0.101508
C55   C     C_R   0.622565 0.717827 0.634122 0.156975
C56   C     C_R   0.582495 0.722146 0.720163 -0.133059
C57   C     C_R   0.649208 0.668392 0.789397 -0.141253
C58   C     C_R   0.757099 0.612653 0.773685 -0.136317
C59   C     C_R   0.798918 0.612137 0.689223 -0.140135
C60   C     C_R   0.732198 0.665084 0.619691 -0.122222
H33   H     H_    0.499749 0.767306 0.733239 0.111180
H34   H     H_    0.617808 0.670638 0.855448 0.130323
H35   H     H_    0.808862 0.571560 0.827371 0.119010
H36   H     H_    0.883520 0.572198 0.678272 0.151972
H37   H     H_    0.766216 0.666539 0.555167 0.146014
O10   O     O_3   0.334971 0.304985 0.414252 -0.582451
C61   C     C_3   0.227319 0.309522 0.430231 0.106655
H38   H     H_    0.180610 0.387801 0.439706 0.199703
H39   H     H_    0.217380 0.270514 0.491486 0.105459
C62   C     C_3   0.175190 0.276610 0.349262 -0.895684
H40   H     H_    0.217075 0.197409 0.333212 0.235929
H41   H     H_    0.089324 0.286608 0.363144 0.223787
H42   H     H_    0.176755 0.322918 0.290948 0.260702
C63   C     C_R   0.699826 0.178060 0.536956 0.200934
C64   C     C_R   0.756744 0.182686 0.460165 -0.116358
C65   C     C_R   0.869379 0.158593 0.463726 -0.163802
C66   C     C_R   0.926998 0.126505 0.543475 -0.095717
C67   C     C_R   0.871699 0.120812 0.620214 -0.180397
C68   C     C_R   0.758787 0.146656 0.617143 -0.183369
H43   H     H_    0.714118 0.202644 0.397073 0.117107
H44   H     H_    0.912179 0.162876 0.404221 0.126610
H45   H     H_    0.014315 0.106757 0.545964 0.129888
H46   H     H_    0.916375 0.095614 0.681951 0.138578
H47   H     H_    0.718375 0.137117 0.676207 0.160602
O11   O     O_3   0.600480 0.346543 0.959773 -0.602562
C69   C     C_3   0.707080 0.347786 0.972627 0.143661
H48   H     H_    0.707716 0.418332 0.004897 0.124801
H49   H     H_    0.748939 0.338348 0.907963 0.144461
C70   C     C_3   0.769682 0.262289 0.033227 -0.838256
H50   H     H_    0.771757 0.190503 0.002641 0.259694
H51   H     H_    0.854017 0.262057 0.043685 0.194657
H52   H     H_    0.730217 0.270671 0.098641 0.252455

loop_
_geom_bond_atom_site_label_1
_geom_bond_atom_site_label_2
_ccdc_geom_bond_type
O7    Zn1   S    
C60   H37   S    
C53   C54   A    
C34   C37   S    
C19   C20   A    
C4    C8    A    
C69   C70   S    
C34   O7    A    
C70   H52   S    
C61   H39   S    
C46   C47   A    
C50   C51   A    
C67   C68   A    
C21   C49   S    
C63   C68   A    
C19   H4    S    
C55   C60   A    
C56   C57   A    
C6    H8    S    
C30   C35   A    
C18   C24   A    
C5    C6    A    
O5    Zn1   S    
C52   C53   A    
C28   C29   A    
C3    C7    A    
C30   C31   A    
C13   O9    S    
O2    Zn2   S    
C15   C16   A    
C5    C36   A    
C66   H45   S    
C18   C19   A    
C31   N2    A    
C49   C54   A    
C61   H38   S    
C51   H29   S    
C43   C48   A    
O4    Zn2   S    
C16   C17   A    
C62   H41   S    
C42   H22   S    
C9    C36   A    
C58   H35   S    
C46   H25   S    
C36   H12   S    
C40   H15   S    
C48   H27   S    
C30   H10   S    
C21   C22   A    
C10   C12   S    
C59   C60   A    
C52   H30   S    
C6    C7    A    
C25   C29   A    
C38   C39   A    
C17   C24   S    
C42   H20   S    
C50   H28   S    
C1    O1    A    
C51   C52   A    
C41   H19   S    
C12   O4    A    
C64   H43   S    
C45   C46   A    
C70   H51   S    
C25   C26   A    
O8    Zn2   S    
C34   O8    A    
C2    C4    A    
C45   H24   S    
N2    Zn1   S    
C12   O3    A    
C28   H9    S    
C39   H16   S    
C38   H14   S    
C20   C23   S    
C62   H42   S    
C9    C37   A    
C47   H26   S    
C57   H34   S    
C26   N1    A    
C65   C66   A    
O9    C41   S    
C42   H21   S    
C23   O5    A    
C22   C24   A    
C8    C37   A    
C32   C63   S    
C69   H48   S    
C11   O11   S    
C39   C40   A    
C64   C65   A    
C27   H7    S    
C56   H33   S    
C11   C17   A    
O10   C61   S    
C43   C44   A    
C14   C15   A    
C15   H2    S    
C4    C5    A    
C69   H49   S    
C27   N1    A    
C1    O2    A    
C8    H13   S    
C41   C42   S    
C63   C64   A    
N1    Zn2   S    
C70   H50   S    
C33   H11   S    
C29   C35   S    
C9    H1    S    
O3    Zn1   S    
C10   C38   A    
C32   C33   A    
C23   O6    A    
C2    C3    A    
C49   C50   A    
C41   H18   S    
C3    C10   A    
C18   H3    S    
C11   C13   A    
C67   H46   S    
C44   H23   S    
C54   H32   S    
O6    Zn2   S    
C53   H31   S    
C55   C56   A    
C33   C35   A    
C68   H47   S    
O11   C69   S    
C16   C43   S    
C57   C58   A    
C44   C45   A    
C2    C40   A    
C65   H44   S    
C22   H5    S    
C20   C21   A    
O1    Zn1   S    
C47   C48   A    
C58   C59   A    
C31   O10   S    
C59   H36   S    
C1    C14   S    
C32   N2    A    
C66   C67   A    
C13   C14   A    
C25   H6    S    
C7    H17   S    
C61   C62   S    
C62   H40   S    
C26   C55   S    
C27   C28   A    
