data_mof_unit_63801.cif
_audit_creation_date              2012-12-11T18:34:42-0500
_audit_creation_method            fapswitch 2.2
_symmetry_space_group_name_H-M    P1
_symmetry_Int_Tables_number       1
_space_group_crystal_system       triclinic
_cell_length_a                    8.366315
_cell_length_b                    14.337871
_cell_length_c                    23.023172
_cell_angle_alpha                 93.756732
_cell_angle_beta                  89.8628
_cell_angle_gamma                 91.748193
_cell_volume                      2754.53068363

loop_
_atom_site_label
_atom_site_type_symbol
_atom_type_description
_atom_site_fract_x
_atom_site_fract_y
_atom_site_fract_z
_atom_type_partial_charge
Ba1   Ba    Ba6+2 0.846250 0.544220 0.470860 1.708724
Ba2   Ba    Ba6+2 0.343570 0.455860 0.529140 1.709129
C1    C     C_3   0.711179 0.892170 0.292904 -0.254952
C2    C     C_3   0.657188 0.800728 0.320696 0.194674
C3    C     C_3   0.499799 0.322695 0.353315 0.223085
C4    C     C_3   0.443544 0.289646 0.291684 0.014802
C5    C     C_3   0.166715 0.221517 0.692066 0.231490
C6    C     C_3   0.253476 0.169038 0.738020 0.151624
C7    C     C_3   0.605362 0.209957 0.654886 0.343374
C8    C     C_3   0.687209 0.119661 0.669022 0.149435
C9    C     C_R   0.338309 0.524533 0.331342 -0.318920
C10   C     C_R   0.181926 0.525356 0.929286 -0.098879
C11   C     C_R   0.141803 0.508934 0.868962 0.674253
C12   C     C_3   0.057392 0.733312 0.308113 0.346351
C13   C     C_R   0.868165 0.480627 0.894329 0.636500
C14   C     C_R   0.910402 0.478933 0.953674 0.000754
C15   C     C_R   0.067862 0.501801 0.971251 -0.043604
C16   C     C_R   0.330441 0.567446 0.949237 -0.071478
C17   C     C_R   0.374959 0.563620 0.008782 0.243664
C18   C     C_R   0.267272 0.524454 0.048923 -0.064587
C19   C     C_R   0.109342 0.504304 0.031265 -0.076794
C20   C     C_R   0.795548 0.458575 0.996346 0.008482
C21   C     C_R   0.835219 0.464408 0.055457 0.023168
C22   C     C_R   0.991962 0.488343 0.073786 -0.025564
C23   C     C_3   0.060519 0.755670 0.244423 -0.233233
C24   C     C_R   0.033005 0.500012 0.133671 0.619008
C25   C     C_R   0.308651 0.510367 0.107474 0.723752
C26   C     C_2   0.798744 0.446224 0.767755 0.019071
C27   C     C_3   0.734246 0.468575 0.709159 -0.023661
C28   C     C_1   0.000562 0.522237 0.684814 0.049693
C29   C     C_2   0.042436 0.531183 0.741311 -0.033509
C30   C     C_2   0.939354 0.487058 0.787821 0.160040
C31   C     C_R   0.373978 0.574453 0.233332 0.251087
C32   C     C_R   0.433023 0.567885 0.290414 0.033315
C33   C     C_R   0.195492 0.477880 0.315278 -0.010302
C34   C     C_3   0.174675 0.750936 0.601385 0.275821
C35   C     C_R   0.153079 0.468547 0.255752 -0.109146
C36   C     C_R   0.239345 0.517653 0.213227 0.182817
C37   C     C_2   0.868355 0.477597 0.666385 -0.239937
C38   C     C_R   0.698760 0.935538 0.523400 -0.043805
C39   C     C_R   0.500376 0.804000 0.503274 0.077417
C40   C     C_R   0.345167 0.776365 0.485069 -0.217108
C41   C     C_R   0.244896 0.837593 0.458736 0.043420
C42   C     C_R   0.296878 0.929897 0.453442 -0.086344
C43   C     C_R   0.448129 0.961605 0.474419 -0.014492
C44   C     C_R   0.550933 0.899469 0.500569 -0.052092
C45   C     C_3   0.188135 0.855549 0.622350 -0.169808
C46   C     C_R   0.643014 0.090976 0.492772 0.006359
C47   C     C_R   0.746441 0.029704 0.518807 -0.002800
C48   C     C_R   0.689286 0.186649 0.491667 0.014198
C49   C     C_R   0.834870 0.219669 0.515819 -0.282483
C50   C     C_R   0.938234 0.159322 0.540184 0.072056
C51   C     C_R   0.895756 0.063998 0.540760 -0.104410
C52   C     C_R   0.496767 0.055128 0.469302 0.001971
C53   C     C_3   0.933918 0.251914 0.357836 0.200169
C54   C     C_3   0.890285 0.246462 0.292860 0.072834
C55   C     C_3   0.644159 0.670459 0.647880 0.220560
C56   C     C_3   0.567896 0.699490 0.706855 -0.195519
H1    H     H_    0.727057 0.798310 0.361236 0.071017
H2    H     H_    0.222437 0.895118 0.584121 -0.145678
H3    H     H_    0.841106 0.288764 0.383533 -0.016143
H4    H     H_    0.878300 0.317516 0.277867 0.110775
H5    H     H_    0.773146 0.209037 0.285868 0.118666
H6    H     H_    0.774071 0.660210 0.652834 0.056378
H7    H     H_    0.585826 0.604285 0.629948 0.027611
H8    H     H_    0.843020 0.900605 0.295726 0.132279
H9    H     H_    0.574727 0.776744 0.714372 0.178005
H10   H     H_    0.439415 0.677470 0.706209 0.108169
H11   H     H_    0.663741 0.953344 0.318874 0.107006
H12   H     H_    0.397276 0.353047 0.377666 0.029273
H13   H     H_    0.596587 0.377193 0.351584 0.066030
H14   H     H_    0.456427 0.212987 0.283505 0.172094
H15   H     H_    0.315478 0.304039 0.286557 0.104962
H16   H     H_    0.165688 0.801624 0.235556 0.207318
H17   H     H_    0.244547 0.280249 0.679031 0.055215
H18   H     H_    0.173377 0.113908 0.755119 0.161387
H19   H     H_    0.354952 0.132559 0.717406 0.116365
H20   H     H_    0.678722 0.239886 0.620077 -0.026928
H21   H     H_    0.484325 0.192499 0.637013 0.008839
H22   H     H_    0.817537 0.126945 0.661944 0.094438
H23   H     H_    0.644496 0.062046 0.638175 0.021833
H24   H     H_    0.948394 0.692470 0.317580 0.089647
H25   H     H_    0.742695 0.449887 0.086822 0.196526
H26   H     H_    0.673163 0.439699 0.984255 0.142805
H27   H     H_    0.137152 0.581515 0.754194 0.151592
H28   H     H_    0.723074 0.402669 0.793491 0.159382
H29   H     H_    0.053031 0.422891 0.243021 0.151232
H30   H     H_    0.378092 0.525318 0.376052 0.090910
H31   H     H_    0.156867 0.686585 0.313310 -0.055454
H32   H     H_    0.858167 0.444924 0.622567 0.092785
H33   H     H_    0.306564 0.703847 0.486895 0.058159
H34   H     H_    0.221166 0.975979 0.431347 0.149095
H35   H     H_    0.977459 0.017317 0.559363 0.094437
H36   H     H_    0.868863 0.293080 0.515381 0.066753
H37   H     H_    0.777303 0.892096 0.546000 0.120631
H38   H     H_    0.417695 0.099650 0.447537 0.108571
H39   H     H_    0.067478 0.690005 0.216348 0.099545
H40   H     H_    0.950647 0.790185 0.232681 0.164321
H41   H     H_    0.295491 0.726403 0.589686 -0.058191
H42   H     H_    0.093418 0.742040 0.563178 0.034317
N1    N     N_R   0.983869 0.490905 0.850852 -0.432102
N2    N     N_R   0.192534 0.509454 0.151000 -0.429488
O1    O     O_2   0.901900 0.448470 0.362340 -0.482454
O2    O     O_3   0.624445 0.745458 0.612918 -0.610125
O3    O     O_3   0.069620 0.816302 0.344876 -0.564883
O4    O     O_2   0.287790 0.551560 0.637690 -0.491445
O5    O     O_3   0.047460 0.550640 0.566640 -0.498730
O6    O     O_3   0.544140 0.380990 0.608030 -0.499272
O7    O     O_3   0.114926 0.699788 0.646239 -0.592225
O8    O     O_3   0.640350 0.387150 0.474440 -0.482864
O9    O     O_3   0.136890 0.332750 0.580830 -0.472453
O10   O     O_2   0.266197 0.167893 0.545066 -0.492245
O11   O     O_3   0.133287 0.157242 0.644666 -0.617189
O12   O     O_3   0.142240 0.449440 0.433360 -0.460559
O13   O     O_3   0.549340 0.612930 0.525560 -0.489360
O14   O     O_2   0.396530 0.270940 0.479440 -0.454295
O15   O     O_3   0.555916 0.245651 0.380634 -0.644756
O16   O     O_2   0.406635 0.418660 0.709391 -0.428642
O17   O     O_3   0.593240 0.272840 0.704480 -0.555868
O18   O     O_2   0.249625 0.507070 0.833203 -0.511188
O19   O     O_2   0.726388 0.475162 0.882223 -0.536479
O20   O     O_2   0.926098 0.503163 0.169857 -0.526114
O21   O     O_2   0.447445 0.495643 0.119144 -0.493232
O22   O     O_3   0.645560 0.619080 0.391970 -0.457037
O23   O     O_2   0.759976 0.543658 0.291173 -0.415969
O24   O     O_3   0.083216 0.297754 0.367436 -0.664261
O25   O     O_3   0.690278 0.720367 0.283977 -0.607704
O26   O     O_2   0.793170 0.729090 0.520590 -0.459877
O27   O     O_3   0.052800 0.667320 0.419180 -0.516156
O28   O     O_2   0.909489 0.829462 0.443211 -0.496430
P1    P     P_3+3 0.074990 0.420800 0.372080 0.985844
P2    P     P_3+3 0.618830 0.715330 0.538180 1.015669
P3    P     P_3+3 0.066368 0.789009 0.418471 0.977417
P4    P     P_3+3 0.114710 0.579280 0.627920 1.015108
P5    P     P_3+3 0.119635 0.208364 0.577330 0.995068
P6    P     P_3+3 0.634003 0.613229 0.314744 1.072076
P7    P     P_3+3 0.572600 0.271881 0.455751 0.950652
P8    P     P_3+3 0.568403 0.387231 0.682945 1.042804
C57   C     C_2   0.315016 0.871446 0.668854 0.915911
O29   O     O_2   0.290704 0.844149 0.717361 -0.518799
O30   O     O_R   0.458833 0.918896 0.657945 -0.716350
H43   H     H_    0.466753 0.938739 0.616695 0.259246
C58   C     C_2   0.033732 0.895121 0.645914 0.893645
O31   O     O_2   0.031429 0.977130 0.663986 -0.593238
O32   O     O_R   0.895509 0.839052 0.649020 -0.715365
H44   H     H_    0.802949 0.874761 0.667021 0.352895
C59   C     C_2   0.937470 0.153797 0.378838 0.886467
O33   O     O_2   0.818874 0.102471 0.372366 -0.605206
O34   O     O_R   0.071418 0.119384 0.405690 -0.736711
H45   H     H_    0.165167 0.165253 0.410925 0.305523
Br1   Br    Br    0.047594 0.181320 0.244542 -0.472765
C60   C     C_2   0.649306 0.662788 0.757750 0.800182
O35   O     O_2   0.577626 0.607868 0.787582 -0.543889
O36   O     O_R   0.803787 0.695512 0.772686 -0.721934
H46   H     H_    0.842719 0.670577 0.810144 0.321764
C61   C     C_2   0.485418 0.801803 0.337949 0.803415
O37   O     O_2   0.389359 0.853403 0.317846 -0.555090
O38   O     O_R   0.439435 0.739642 0.378307 -0.808833
H47   H     H_    0.327773 0.714911 0.374057 0.266277
Br2   Br    Br    0.560272 0.350952 0.231278 -0.527068
C62   C     C_2   0.661272 0.897451 0.230301 1.014119
O39   O     O_2   0.519920 0.900537 0.217563 -0.502416
O40   O     O_R   0.777872 0.903440 0.187040 -0.709915
H48   H     H_    0.730179 0.907561 0.146881 0.356061
C63   C     C_2   0.012385 0.256976 0.716435 0.833758
O41   O     O_2   0.924561 0.296195 0.684692 -0.693877
O42   O     O_R   0.965051 0.241445 0.773468 -0.696433
H49   H     H_    0.852597 0.261808 0.782592 0.348937
Br3   Br    Br    0.330660 0.252033 0.802967 -0.383402
Br4   Br    Br    0.656564 0.082416 0.748006 -0.378905
Br5   Br    Br    0.558847 0.636279 0.039262 -0.425097
Br6   Br    Br    0.455421 0.674541 0.188809 -0.433840
C64   C     C_2   0.421529 0.631335 0.911644 1.065979
O43   O     O_2   0.349180 0.680571 0.879825 -0.551747
O44   O     O_R   0.588209 0.639057 0.914299 -0.670918
H50   H     H_    0.633983 0.690664 0.890592 0.340741

loop_
_geom_bond_atom_site_label_1
_geom_bond_atom_site_label_2
_ccdc_geom_bond_type
C53   C54   S    
C39   C40   A    
C63   O41   D    
C29   H27   S    
C8    H23   S    
C57   O30   S    
O12   P1    S    
Ba1   Ba2   S    
O40   H48   S    
Ba1   O26   S    
Ba1   P2    S    
C62   O39   D    
C48   P7    S    
C5    C6    S    
C64   O43   D    
C50   C51   A    
C38   C44   A    
C27   P8    S    
Ba2   P4    S    
C21   H25   S    
C55   H6    S    
C26   C27   S    
C1    H11   S    
C22   C24   A    
C23   H16   S    
O5    P4    S    
Ba1   O27   S    
C28   C29   D    
C13   C14   A    
C45   C58   S    
Ba2   O5    S    
C6    H18   S    
C34   C45   S    
C16   C17   A    
C7    H21   S    
C41   P3    S    
C59   O33   D    
C45   H2    S    
Ba2   O14   S    
C9    C33   A    
C12   O3    S    
Ba2   O8    S    
C17   C18   A    
C40   C41   A    
C14   C15   A    
C28   P4    S    
C10   C15   A    
C21   C22   A    
C7    C8    S    
Ba1   O1    S    
C37   H32   S    
C52   H38   S    
C42   H34   S    
C46   C48   A    
C5    C63   S    
C63   O42   S    
C40   H33   S    
O26   P2    D    
C62   O40   S    
C56   C60   S    
O32   H44   S    
O13   P2    S    
C64   O44   S    
Ba2   O9    S    
C25   O21   D    
O22   P6    S    
C51   H35   S    
C49   C50   A    
C26   C30   D    
O25   P6    S    
C34   H42   S    
C55   H7    S    
O42   H49   S    
C8    H22   S    
C5    H17   S    
C43   C44   A    
Ba2   O4    S    
C15   C19   A    
C3    O15   S    
C20   H26   S    
O38   H47   S    
C46   C52   A    
C41   C42   A    
C12   H31   S    
C35   C36   A    
Ba1   O8    S    
Ba2   O13   S    
C56   H9    S    
C53   C59   S    
C29   C30   S    
C53   O24   S    
C32   P6    S    
C9    H30   S    
C39   C44   A    
C27   C37   S    
C48   C49   A    
C54   H5    S    
C4    H14   S    
C13   N1    Am   
C54   Br1   S    
O36   H46   S    
O11   P5    S    
Ba1   O5    S    
O27   P3    S    
O23   P6    D    
C23   H39   S    
C46   C47   A    
C2    C61   S    
C60   O36   S    
C43   C52   A    
O30   H43   S    
C26   H28   S    
C6    H19   S    
C7    O17   S    
C54   H4    S    
C24   O20   D    
O28   P3    D    
C45   C57   S    
Ba1   O12   S    
C12   H24   S    
O10   P5    D    
C11   N1    Am   
C1    C2    S    
C33   P1    S    
C11   O18   D    
C6    Br3   S    
C33   C35   A    
C4    H15   S    
O3    P3    S    
O14   P7    D    
C56   H10   S    
C58   O32   S    
C55   O2    S    
C61   O37   D    
C14   C20   A    
C13   O19   D    
C2    O25   S    
C59   O34   S    
O7    P4    S    
C20   C21   A    
O17   P8    S    
C35   H29   S    
C9    C32   A    
O15   P7    S    
C42   C43   A    
C17   Br5   S    
Ba1   P1    S    
C3    H12   S    
C39   P2    S    
C4    Br2   S    
C57   O29   D    
C18   C25   A    
C8    Br4   S    
Ba1   O13   S    
C25   N2    Am   
C31   C36   A    
C5    O11   S    
C61   O38   S    
C58   O31   D    
Ba1   O22   S    
C3    H13   S    
O44   H50   S    
O34   H45   S    
C24   N2    Am   
O6    P8    S    
Ba2   O12   S    
O9    P5    S    
C55   C56   S    
C3    C4    S    
O24   P1    S    
C47   C51   A    
C53   H3    S    
C2    H1    S    
Ba2   O6    S    
C31   C32   A    
C28   C37   D    
C34   H41   S    
C7    H20   S    
O8    P7    S    
C12   C23   S    
C1    C62   S    
C49   H36   S    
C1    H8    S    
C16   C64   S    
C23   H40   S    
O4    P4    D    
C18   C19   A    
C36   N2    S    
O2    P2    S    
C19   C22   A    
C10   C16   A    
C34   O7    S    
C50   P5    S    
C30   N1    S    
C60   O35   D    
C38   H37   S    
C10   C11   A    
O16   P8    D    
C31   Br6   S    
O1    P1    D    
C38   C47   A    
