data_mof_unit_30835.cif
_audit_creation_date              2013-03-05T16:42:51-0500
_audit_creation_method            fapswitch 2.2
_symmetry_space_group_name_H-M    P1
_symmetry_Int_Tables_number       1
_space_group_crystal_system       triclinic
_cell_length_a                    9.887538
_cell_length_b                    10.699273
_cell_length_c                    13.596848
_cell_angle_alpha                 90.491748
_cell_angle_beta                  82.478207
_cell_angle_gamma                 89.627148
_cell_volume                      1425.93129929

loop_
_atom_site_label
_atom_site_type_symbol
_atom_site_description
_atom_site_fract_x
_atom_site_fract_y
_atom_site_fract_z
_atom_type_partial_charge
O1    O     O_R   0.385310 0.683210 0.499990 -0.609914
O2    O     O_R   0.614650 0.683240 0.500000 -0.632997
C1    C     C_R   0.499850 0.739720 0.500147 0.874228
O3    O     O_R   0.368820 0.499950 0.640340 -0.582659
O4    O     O_R   0.598170 0.499990 0.640350 -0.623000
C2    C     C_R   0.475079 0.500089 0.685827 0.920555
Zn1   Zn    Zn3+2 0.346870 0.499980 0.499990 0.999106
Zn2   Zn    Zn3+2 0.653130 0.500020 0.500010 0.955087
O5    O     O_R   0.385350 0.316760 0.500000 -0.593598
O6    O     O_R   0.614690 0.316790 0.500010 -0.625247
O7    O     O_R   0.401830 0.500010 0.359650 -0.624610
O8    O     O_R   0.631180 0.500050 0.359660 -0.609528
C3    C     C_R   0.500119 0.260246 0.500494 0.888254
C4    C     C_R   0.524877 0.500374 0.314198 0.884852
C5    C     C_1   0.544237 0.502069 0.210151 -0.186647
C6    C     C_2   0.558908 0.504231 0.018153 -0.171599
C7    C     C_2   0.440678 0.504344 0.982025 -0.142537
C8    C     C_1   0.443587 0.502766 0.877997 0.058201
C9    C     C_1   0.556014 0.503360 0.122139 -0.003703
C10   C     C_1   0.455523 0.501333 0.789942 -0.117414
H1    H     H_    0.343358 0.504697 0.029708 0.161237
H2    H     H_    0.656245 0.503543 0.970496 0.160834
C11   C     C_R   0.397665 0.935936 0.458381 -0.024356
C12   C     C_R   0.502864 0.871419 0.494666 -0.052328
C13   C     C_R   0.615633 0.935185 0.522001 -0.217502
H3    H     H_    0.700475 0.886414 0.547870 0.172769
C14   C     C_R   0.614620 0.063698 0.523545 -0.199021
H4    H     H_    0.697822 0.111842 0.551505 0.170284
C15   C     C_R   0.502139 0.128280 0.496106 -0.022456
C16   C     C_R   0.396785 0.063890 0.459408 -0.019751
C17   C     C_3   0.244335 0.069559 0.487261 0.102746
C18   C     C_3   0.246431 0.926894 0.487677 -0.238002
H5    H     H_    0.191213 0.112110 0.428226 0.099744
H6    H     H_    0.221490 0.885358 0.562348 0.248738
C19   C     C_R   0.916479 0.574991 0.564551 0.168338
N1    N     N_R   0.857130 0.500860 0.500650 -0.118156
C20   C     C_R   0.942735 0.433266 0.430866 0.015402
C21   C     C_R   0.086106 0.433942 0.431298 -0.092877
H7    H     H_    0.151725 0.377779 0.377936 0.142852
N2    N     N_R   0.142770 0.500820 0.500650 -0.119441
C22   C     C_R   0.059256 0.576116 0.563932 0.151729
C23   C     C_3   0.044387 0.571586 0.674633 0.095280
C24   C     C_3   0.890555 0.569023 0.674985 -0.543259
H8    H     H_    0.087586 0.484942 0.703370 0.159698
H9    H     H_    0.844936 0.478722 0.701540 0.206743
H10   H     H_    0.835036 0.653147 0.708038 0.235256
N3    N     N_R   0.091577 0.686234 0.718288 0.233855
O9    O     O_R   0.177129 0.679222 0.783006 -0.380561
O10   O     O_R   0.045341 0.795246 0.696127 -0.398449
N4    N     N_R   0.201678 0.123827 0.585874 0.243219
O11   O     O_R   0.103968 0.206715 0.597626 -0.416938
O12   O     O_R   0.258429 0.088934 0.662476 -0.351986
C25   C     C_R   0.166580 0.867687 0.411818 0.119765
C26   C     C_R   0.230290 0.802768 0.327345 -0.073053
C27   C     C_R   0.151797 0.745873 0.261452 -0.136995
C28   C     C_R   0.009579 0.752500 0.279164 -0.116629
C29   C     C_R   0.945420 0.814722 0.363380 -0.157335
C30   C     C_R   0.023327 0.872261 0.429335 -0.157431
H11   H     H_    0.340225 0.795160 0.312104 0.120579
H12   H     H_    0.201360 0.696492 0.196608 0.137681
H13   H     H_    0.949020 0.709590 0.227566 0.128617
H14   H     H_    0.835213 0.818507 0.377348 0.145896
H15   H     H_    0.972044 0.920018 0.494464 0.158727
C31   C     C_R   0.889770 0.351481 0.357664 0.164285
C32   C     C_R   0.878475 0.395201 0.262068 -0.130141
C33   C     C_R   0.836902 0.314620 0.190432 -0.136119
C34   C     C_R   0.809383 0.189456 0.213230 -0.107501
C35   C     C_R   0.826218 0.144187 0.306980 -0.152277
C36   C     C_R   0.868708 0.224431 0.378441 -0.133226
H16   H     H_    0.900733 0.491551 0.243350 0.119657
H17   H     H_    0.826303 0.349154 0.117225 0.143910
H18   H     H_    0.776859 0.127205 0.157866 0.143004
H19   H     H_    0.807313 0.046822 0.323971 0.144593
H20   H     H_    0.886362 0.187728 0.449609 0.143526

loop_
_geom_bond_atom_site_label_1
_geom_bond_atom_site_label_2
_geom_bond_distance
_ccdc_geom_bond_type
O4    Zn2   1.914418 S    
N4    O12   1.302310 A    
Zn1   N2    2.016853 S    
C17   H5    1.114006 S    
C5    C9    1.187270 T    
C25   C26   1.410555 A    
C15   C16   1.395795 A    
C28   H13   1.081454 S    
C25   C30   1.405678 A    
C14   C15   1.398785 A    
C19   C24   1.491824 S    
C22   C23   1.494312 S    
C8    C10   1.187568 T    
C33   H17   1.082317 S    
C16   C17   1.506044 S    
Zn2   O8    1.948645 S    
C31   C32   1.403051 A    
C20   C31   1.469040 S    
C27   C28   1.396479 A    
C7    C8    1.410929 S    
C1    C12   1.411987 S    
C31   C36   1.402093 A    
C32   C33   1.398578 A    
C36   H20   1.082086 S    
N3    O10   1.302040 A    
C13   H3    1.083712 S    
O1    Zn1   1.999358 S    
C27   H12   1.082664 S    
C11   C18   1.500213 S    
C34   C35   1.397235 A    
Zn1   O7    1.914418 S    
C24   H9    1.111890 S    
C29   C30   1.397911 A    
O4    C2    1.290946 A    
C23   H8    1.113214 S    
C2    C10   1.403412 S    
O3    Zn1   1.948646 S    
C3    C15   1.412595 S    
N2    C22   1.365516 A    
C21   N2    1.359057 A    
C20   C21   1.418436 A    
O8    C4    1.287225 A    
N4    O11   1.300535 A    
O2    C1    1.282214 A    
C26   H11   1.081988 S    
C6    C9    1.410545 S    
C21   H7    1.082903 S    
C19   C22   1.410768 A    
O7    C4    1.290503 A    
C7    H1    1.087590 S    
C12   C13   1.400318 A    
C24   H10   1.111522 S    
C13   C14   1.374927 A    
C23   C24   1.520831 S    
C11   C12   1.390213 A    
C32   H16   1.081070 S    
C11   C16   1.368923 A    
C18   C25   1.515588 S    
C14   H4    1.081972 S    
C23   N3    1.463613 S    
C33   C34   1.397597 A    
C28   C29   1.395715 A    
O3    C2    1.287045 A    
C34   H18   1.082248 S    
Zn2   N1    2.018295 S    
C30   H15   1.083377 S    
Zn1   O5    1.994474 S    
O5    C3    1.283167 A    
C26   C27   1.398007 A    
N1    C20   1.381937 A    
N3    O9    1.300262 A    
C6    H2    1.087538 S    
C17   N4    1.465679 S    
C29   H14   1.081769 S    
C35   H19   1.081147 S    
C4    C5    1.402843 S    
O6    C3    1.287002 A    
Zn2   O6    1.999358 S    
O2    Zn2   1.994474 S    
C17   C18   1.526491 S    
C6    C7    1.325972 D    
C35   C36   1.398188 A    
O1    C1    1.287511 A    
C19   N1    1.362371 A    
C18   H6    1.110296 S    
