data_mof_unit_59019.cif
_audit_creation_date              2012-10-26T18:30:22-0400
_audit_creation_method            fapswitch 2.2
_symmetry_space_group_name_H-M    P1
_symmetry_Int_Tables_number       1
_space_group_crystal_system       triclinic
_cell_length_a                    10.633144
_cell_length_b                    12.882559
_cell_length_c                    11.981762
_cell_angle_alpha                 97.596892
_cell_angle_beta                  94.262268
_cell_angle_gamma                 93.407264
_cell_volume                      1618.39427584

loop_
_atom_site_label
_atom_site_type_symbol
_atom_type_description
_atom_site_fract_x
_atom_site_fract_y
_atom_site_fract_z
_atom_type_partial_charge
C1    C     C_R   0.494639 0.300409 0.480465 0.532501
C2    C     C_R   0.591196 0.604165 0.855601 0.159550
C3    C     C_R   0.520209 0.562182 0.152090 0.149025
C4    C     C_R   0.479792 0.437817 0.847910 0.149019
C5    C     C_R   0.526688 0.545903 0.031742 -0.016081
C6    C     C_R   0.473314 0.454097 0.968258 -0.016080
C7    C     C_R   0.260129 0.499069 0.499889 0.542122
C8    C     C_R   0.739871 0.500931 0.500111 0.542125
C9    C     C_3   0.045757 0.479697 0.598928 0.153887
C10   C     C_3   0.954242 0.520302 0.401073 0.153884
C11   C     C_3   0.951397 0.404595 0.518633 -0.122559
C12   C     C_R   0.505361 0.699591 0.519535 0.532501
C13   C     C_3   0.048602 0.595404 0.481368 -0.122567
C14   C     C_3   0.876729 0.500665 0.499644 0.031501
C15   C     C_3   0.123270 0.499335 0.500357 0.031494
C16   C     C_3   0.970290 0.575259 0.582103 -0.142027
C17   C     C_3   0.029710 0.424740 0.417899 -0.142034
C18   C     C_R   0.518530 0.812323 0.527809 -0.013703
C19   C     C_R   0.481470 0.187677 0.472190 -0.013702
C20   C     C_R   0.366471 0.022482 0.394397 0.018795
C21   C     C_R   0.633530 0.977518 0.605601 0.018795
C22   C     C_R   0.383977 0.131669 0.401142 -0.116071
C23   C     C_R   0.563067 0.137694 0.539280 -0.148675
C24   C     C_R   0.616025 0.868331 0.598855 -0.116075
C25   C     C_3   0.013406 0.411578 0.776460 -0.323474
C26   C     C_3   0.986578 0.588463 0.223560 -0.323486
C27   C     C_3   0.259795 0.960482 0.316067 -0.277917
C28   C     C_3   0.176122 0.024006 0.245034 -0.454231
C29   C     C_3   0.740206 0.039518 0.683930 -0.277916
C30   C     C_3   0.823882 0.975993 0.754961 -0.454231
C31   C     C_3   0.470010 0.323378 0.794630 -0.217788
C32   C     C_3   0.339222 0.286469 0.735493 -0.388730
C33   C     C_3   0.529990 0.676621 0.205370 -0.217786
C34   C     C_R   0.436933 0.862306 0.460719 -0.148674
C35   C     C_3   0.660778 0.713531 0.264507 -0.388731
C36   C     C_3   0.678769 0.681978 0.808285 -0.243427
C37   C     C_3   0.813118 0.694542 0.867042 -0.487229
C38   C     C_3   0.321217 0.318031 0.191712 -0.243425
C39   C     C_3   0.186861 0.305501 0.132969 -0.487202
C40   C     C_R   0.549689 0.029087 0.536712 0.030280
C41   C     C_R   0.450312 0.970913 0.463287 0.030280
C42   C     C_R   0.412021 0.380829 0.026331 -0.152812
C43   C     C_R   0.587979 0.619171 0.973669 -0.152813
C44   C     C_R   0.408800 0.395837 0.144399 0.159556
Cu1   Cu    Cu3+1 0.509400 0.507730 0.615930 0.901945
Cu2   Cu    Cu3+1 0.490600 0.492270 0.384070 0.901954
H1    H     H_    0.909226 0.327452 0.534249 0.097729
H2    H     H_    0.639677 0.687708 0.020119 0.105946
H3    H     H_    0.154975 0.522445 0.751115 0.266366
H4    H     H_    0.062914 0.403947 0.859632 0.130774
H5    H     H_    0.978588 0.331793 0.735047 0.147584
H6    H     H_    0.932044 0.460516 0.790178 0.148587
H7    H     H_    0.845055 0.477536 0.248871 0.266352
H8    H     H_    0.937085 0.596054 0.140371 0.130771
H9    H     H_    0.067999 0.539582 0.209880 0.148597
H10   H     H_    0.021311 0.668271 0.264971 0.147573
H11   H     H_    0.126265 0.081329 0.300283 0.143532
H12   H     H_    0.090774 0.672546 0.465752 0.097730
H13   H     H_    0.233417 0.065203 0.188311 0.148438
H14   H     H_    0.103623 0.970003 0.191595 0.134393
H15   H     H_    0.301976 0.901421 0.256366 0.134580
H16   H     H_    0.197062 0.918177 0.367914 0.136066
H17   H     H_    0.766589 0.934796 0.811685 0.148441
H18   H     H_    0.873739 0.918671 0.699710 0.143532
H19   H     H_    0.896382 0.029996 0.808399 0.134395
H20   H     H_    0.802937 0.081824 0.632083 0.136068
H21   H     H_    0.698025 0.098577 0.743632 0.134580
H22   H     H_    0.267008 0.287336 0.797748 0.125356
H23   H     H_    0.944239 0.635285 0.649962 0.100843
H24   H     H_    0.309168 0.337009 0.672347 0.219183
H25   H     H_    0.341185 0.204904 0.692315 0.128962
H26   H     H_    0.551698 0.305884 0.746012 0.166172
H27   H     H_    0.490643 0.269965 0.857997 0.085573
H28   H     H_    0.690833 0.662992 0.327653 0.219186
H29   H     H_    0.732992 0.712666 0.202252 0.125353
H30   H     H_    0.658814 0.795096 0.307686 0.128960
H31   H     H_    0.509356 0.730034 0.142003 0.085571
H32   H     H_    0.448302 0.694115 0.253988 0.166172
H33   H     H_    0.816441 0.740767 0.952254 0.135754
H34   H     H_    0.055760 0.364713 0.350040 0.100843
H35   H     H_    0.849719 0.616640 0.874198 0.152623
H36   H     H_    0.876749 0.738028 0.817126 0.125785
H37   H     H_    0.692440 0.658133 0.719649 0.210655
H38   H     H_    0.637652 0.759600 0.816965 0.124954
H39   H     H_    0.150270 0.383416 0.125860 0.152634
H40   H     H_    0.183520 0.259309 0.047737 0.135753
H41   H     H_    0.123232 0.261995 0.182870 0.125780
H42   H     H_    0.362311 0.240398 0.183012 0.124931
H43   H     H_    0.307562 0.341864 0.280354 0.210655
H44   H     H_    0.362835 0.814673 0.407360 0.097380
H45   H     H_    0.637165 0.185327 0.592641 0.097379
H46   H     H_    0.679809 0.824964 0.645880 0.106225
H47   H     H_    0.320195 0.175035 0.354116 0.106224
H48   H     H_    0.360322 0.312291 0.979882 0.105937
N1    N     N_R   0.523540 0.519360 0.790140 -0.221202
N2    N     N_R   0.476460 0.480640 0.209860 -0.221200
N3    N     N_2   0.100210 0.459112 0.707568 -0.510756
N4    N     N_2   0.899789 0.540883 0.292432 -0.510740
O1    O     O_R   0.506670 0.354460 0.582000 -0.519183
O2    O     O_R   0.493330 0.645540 0.418000 -0.519184
O3    O     O_R   0.490800 0.341410 0.386200 -0.518723
O4    O     O_R   0.509200 0.658590 0.613800 -0.518725
O5    O     O_R   0.324790 0.506500 0.597880 -0.491781
O6    O     O_R   0.675210 0.493500 0.402120 -0.491764
O7    O     O_R   0.308910 0.493440 0.402080 -0.526692
O8    O     O_R   0.691090 0.506560 0.597920 -0.526694

loop_
_geom_bond_atom_site_label_1
_geom_bond_atom_site_label_2
_ccdc_geom_bond_type
C35   H28   S    
C30   H18   S    
C11   H1    S    
C39   H41   S    
C26   H9    S    
C1    O1    A    
C25   H5    S    
C20   C41   A    
Cu1   Cu2   S    
C12   O4    A    
C37   H33   S    
C38   H43   S    
C35   H29   S    
C18   C24   A    
C36   C37   S    
C9    C16   S    
C38   C39   S    
C11   C14   S    
C33   H32   S    
C31   H27   S    
C3    C33   S    
C36   H37   S    
C23   C40   A    
Cu2   O7    S    
C24   H46   S    
C10   N4    S    
C25   H4    S    
Cu1   O5    S    
C29   H21   S    
C9    N3    S    
C7    O7    A    
C31   H26   S    
C3    N2    A    
C27   H15   S    
C43   H2    S    
C32   H22   S    
C7    C15   S    
C5    C43   A    
C7    O5    A    
C30   H17   S    
C37   H35   S    
C34   C41   A    
C42   C44   A    
C26   H8    S    
C32   H25   S    
C28   H14   S    
Cu2   O3    S    
C35   H30   S    
C1    C19   S    
C4    C31   S    
C19   C22   A    
C4    C6    A    
Cu1   O1    S    
C32   H24   S    
C13   H12   S    
C28   H11   S    
C21   C29   S    
C17   H34   S    
C38   H42   S    
C19   C23   A    
C34   H44   S    
C38   C44   S    
C29   C30   S    
C44   N2    A    
C27   H16   S    
C4    N1    A    
C18   C34   A    
C31   C32   S    
C2    C43   A    
C8    O6    A    
C26   H10   S    
C26   N4    S    
C25   N3    S    
C40   C41   A    
C20   C22   A    
C13   C15   S    
C10   C14   S    
C22   H47   S    
C14   C16   S    
C37   H36   S    
C21   C24   A    
C39   H39   S    
Cu1   N1    S    
C1    O3    A    
Cu1   O8    S    
C28   H13   S    
C2    C36   S    
C15   C17   S    
Cu2   O2    S    
C11   C17   S    
C8    C14   S    
C42   H48   S    
C16   H23   S    
C3    C5    A    
C10   C13   S    
C8    O8    A    
C20   C27   S    
H7    N4    S    
C9    C15   S    
C25   H6    S    
C33   H31   S    
C5    C6    A    
C21   C40   A    
Cu2   O6    S    
C36   H38   S    
C9    C11   S    
C33   C35   S    
C23   H45   S    
C12   O2    A    
C30   H19   S    
Cu1   O4    S    
H3    N3    S    
C29   H20   S    
Cu2   N2    S    
C6    C42   A    
C13   C16   S    
C12   C18   S    
C27   C28   S    
C10   C17   S    
C39   H40   S    
C2    N1    A    
