data_mof_unit_20757.cif
_audit_creation_date              2012-12-10T17:37:48-0500
_audit_creation_method            fapswitch 2.2
_symmetry_space_group_name_H-M    P1
_symmetry_Int_Tables_number       1
_space_group_crystal_system       triclinic
_cell_length_a                    12.322941
_cell_length_b                    13.201819
_cell_length_c                    17.343045
_cell_angle_alpha                 104.914295
_cell_angle_beta                  74.679349
_cell_angle_gamma                 116.651209
_cell_volume                      2400.3104997

loop_
_atom_site_label
_atom_site_type_symbol
_atom_type_description
_atom_site_fract_x
_atom_site_fract_y
_atom_site_fract_z
_atom_type_partial_charge
C1    C     C_R   0.144519 0.713575 0.507345 0.775560
C2    C     C_R   0.890810 0.530103 0.796764 -0.197136
C3    C     C_R   0.919099 0.486821 0.156292 -0.143527
C4    C     C_R   0.917325 0.493426 0.237662 -0.180788
C5    C     C_R   0.111681 0.473403 0.203584 -0.199556
C6    C     C_R   0.113452 0.466972 0.121991 -0.167422
C7    C     C_R   0.018614 0.476036 0.098176 0.188762
C8    C     C_2   0.979651 0.532827 0.987919 -0.229843
C9    C     C_2   0.025624 0.473925 0.012291 -0.226859
C10   C     C_R   0.014178 0.487972 0.261970 -0.029177
C11   C     C_R   0.733546 0.977293 0.390107 -0.185543
C12   C     C_R   0.988734 0.505263 0.652208 0.782718
C13   C     C_R   0.774534 0.165046 0.470986 -0.051738
C14   C     C_R   0.179224 0.915456 0.562437 -0.189891
C15   C     C_R   0.256720 0.030433 0.579350 -0.145854
C16   C     C_R   0.382570 0.067738 0.550425 -0.127822
C17   C     C_R   0.433419 0.990577 0.500545 0.092767
C18   C     C_R   0.351872 0.876004 0.475855 0.076978
C19   C     C_R   0.562324 0.023554 0.473669 0.092894
C20   C     C_R   0.606567 0.945715 0.417075 0.163508
C21   C     C_R   0.523642 0.838317 0.386471 -0.234269
C22   C     C_R   0.398177 0.804533 0.414402 -0.188771
C23   C     C_R   0.855926 0.286379 0.487951 0.812182
C24   C     C_R   0.648997 0.131515 0.501763 -0.194008
C25   C     C_R   0.817281 0.086905 0.416545 -0.191279
C26   C     C_R   0.225814 0.836657 0.512704 -0.102522
C27   C     C_R   0.633357 0.662509 0.635332 -0.303501
C28   C     C_R   0.246659 0.350087 0.391415 -0.008551
C29   C     C_R   0.335716 0.306550 0.373645 -0.271463
C30   C     C_R   0.432229 0.354505 0.417576 0.358981
C31   C     C_R   0.445494 0.454892 0.477055 -0.096346
C32   C     C_R   0.346102 0.491110 0.496421 0.243025
C33   C     C_R   0.547688 0.518163 0.520997 -0.017174
C34   C     C_R   0.011530 0.495107 0.347810 0.793473
C35   C     C_R   0.539377 0.603572 0.588607 0.174740
C36   C     C_R   0.438755 0.632012 0.608504 -0.290385
C37   C     C_R   0.346395 0.579409 0.562214 -0.166319
C38   C     C_R   0.660828 0.505550 0.499666 0.062042
C39   C     C_R   0.737486 0.639236 0.614279 0.060013
C40   C     C_R   0.987288 0.513998 0.738097 -0.027286
C41   C     C_R   0.084685 0.509148 0.762171 -0.211409
C42   C     C_R   0.084414 0.517782 0.843570 -0.148339
C43   C     C_R   0.985763 0.529819 0.902003 0.192715
C44   C     C_R   0.890452 0.538404 0.878406 -0.170320
Cu1   Cu    Cu3+1 0.900140 0.524980 0.518800 0.951685
Cu2   Cu    Cu3+1 0.099860 0.475020 0.481200 0.927806
H1    H     H_    0.161581 0.499262 0.718280 0.159626
H2    H     H_    0.190037 0.457246 0.077575 0.124194
H3    H     H_    0.914481 0.112005 0.391919 0.150106
H4    H     H_    0.555864 0.779983 0.340620 0.142712
H5    H     H_    0.767760 0.918299 0.346790 0.134303
H6    H     H_    0.621565 0.192529 0.547079 0.147743
H7    H     H_    0.082893 0.887727 0.590171 0.153316
H8    H     H_    0.436731 0.158047 0.566798 0.153247
H9    H     H_    0.219565 0.090611 0.617352 0.143387
H10   H     H_    0.338265 0.722705 0.385388 0.174194
H11   H     H_    0.809593 0.683130 0.650690 0.122886
H12   H     H_    0.839689 0.502145 0.281358 0.160230
H13   H     H_    0.432594 0.698075 0.659553 0.150782
H14   H     H_    0.626333 0.726389 0.687776 0.137418
H15   H     H_    0.683055 0.454769 0.444025 0.189155
H16   H     H_    0.170396 0.309169 0.358515 0.146160
H17   H     H_    0.325800 0.230984 0.327935 0.182529
H18   H     H_    0.275248 0.609705 0.581458 0.205624
H19   H     H_    0.186887 0.467864 0.220877 0.151600
H20   H     H_    0.072522 0.424973 0.968501 0.145710
H21   H     H_    0.814506 0.549057 0.923045 0.123976
H22   H     H_    0.842003 0.489081 0.139153 0.127295
H23   H     H_    0.815308 0.535379 0.779661 0.151260
H24   H     H_    0.932710 0.581724 0.031737 0.145039
H25   H     H_    0.161888 0.515864 0.860453 0.125027
N1    N     N_R   0.749710 0.562810 0.547300 -0.194801
N2    N     N_R   0.249640 0.437820 0.453210 -0.201197
O1    O     O_R   0.025490 0.682370 0.523640 -0.578764
O2    O     O_R   0.194150 0.640180 0.491890 -0.605858
O3    O     O_R   0.905900 0.523560 0.631310 -0.590687
O4    O     O_R   0.074570 0.481370 0.599560 -0.599898
O5    O     O_R   0.805850 0.359820 0.508110 -0.563401
O6    O     O_R   0.974510 0.317630 0.476360 -0.587343
O7    O     O_R   0.925430 0.518630 0.400440 -0.588131
O8    O     O_R   0.094100 0.476440 0.368690 -0.598927
Cl1   Cl    Cl    0.514124 0.268859 0.404012 -0.691266

loop_
_geom_bond_atom_site_label_1
_geom_bond_atom_site_label_2
_ccdc_geom_bond_type
C24   H6    S    
C29   H17   S    
C30   Cl1   S    
C41   C42   A    
C19   C20   A    
C18   C26   A    
C8    C43   S    
C36   H13   S    
Cu1   Cu2   S    
C6    H2    S    
Cu1   O3    S    
C1    O1    A    
C28   C29   A    
C3    C7    A    
C27   H14   S    
Cu2   O6    S    
C11   C25   A    
C15   C16   A    
C39   H11   S    
C13   C23   S    
C9    H20   S    
C21   H4    S    
C17   C19   A    
C3    H22   S    
C27   C39   A    
C16   C17   A    
C39   N1    A    
C31   C33   A    
Cu1   O5    S    
C34   O8    A    
C2    H23   S    
C38   H15   S    
C34   O7    A    
C21   C22   A    
Cu1   N1    S    
C13   C25   A    
C28   N2    A    
Cu2   O2    S    
C25   H3    S    
C38   N1    A    
C11   C20   A    
C1    O2    A    
C5    H19   S    
C2    C44   A    
C32   N2    A    
C8    C9    D    
C22   H10   S    
C27   C35   A    
C13   C24   A    
Cu1   O1    S    
C35   C36   A    
C15   H9    S    
C12   C40   S    
C43   C44   A    
C29   C30   A    
Cu2   O8    S    
C31   C32   A    
C30   C31   A    
C12   O4    A    
C17   C18   A    
C41   H1    S    
C10   C34   S    
C32   C37   A    
C14   C26   A    
C40   C41   A    
C12   O3    A    
C1    C26   S    
C42   C43   A    
C4    C10   A    
C3    C4    A    
C37   H18   S    
C7    C9    S    
C36   C37   A    
C18   C22   A    
Cu2   O4    S    
C6    C7    A    
C8    H24   S    
C33   C38   A    
C19   C24   A    
C5    C10   A    
C5    C6    A    
C42   H25   S    
C33   C35   A    
Cu1   O7    S    
C23   O5    A    
C16   H8    S    
C11   H5    S    
C2    C40   A    
C14   H7    S    
C20   C21   A    
C4    H12   S    
C14   C15   A    
C44   H21   S    
C23   O6    A    
Cu2   N2    S    
C28   H16   S    
