data_mof_unit_64336.cif
_audit_creation_date              2013-03-05T16:38:53-0500
_audit_creation_method            fapswitch 2.2
_symmetry_space_group_name_H-M    P1
_symmetry_Int_Tables_number       1
_space_group_crystal_system       triclinic
_cell_length_a                    19.147234
_cell_length_b                    18.610392
_cell_length_c                    23.124554
_cell_angle_alpha                 90.601516
_cell_angle_beta                  91.466579
_cell_angle_gamma                 90.566847
_cell_volume                      8236.56761415

loop_
_atom_site_label
_atom_site_type_symbol
_atom_site_description
_atom_site_fract_x
_atom_site_fract_y
_atom_site_fract_z
_atom_type_partial_charge
O1    O     O_R   0.398180 0.560840 0.499980 -0.575855
O2    O     O_R   0.601820 0.439160 0.500020 -0.524201
O3    O     O_R   0.601820 0.560840 0.500020 -0.576368
O4    O     O_R   0.398180 0.439160 0.499980 -0.528799
C1    C     C_R   0.365497 0.499660 0.502139 0.924323
C2    C     C_R   0.633915 0.500177 0.494671 0.941129
O5    O     O_R   0.499980 0.560830 0.416150 -0.554659
O6    O     O_R   0.500020 0.439170 0.583850 -0.596798
O7    O     O_R   0.500020 0.560830 0.583850 -0.558073
O8    O     O_R   0.499980 0.439170 0.416150 -0.602984
C3    C     C_R   0.501140 0.500042 0.388872 0.896626
C4    C     C_R   0.494943 0.500254 0.610921 0.899357
Zn1   Zn    Zn3+2 0.500000 0.581210 0.500000 1.009992
Zn2   Zn    Zn3+2 0.500000 0.418790 0.500000 1.025799
C5    C     C_R   0.494095 0.518845 0.867397 0.576255
C6    C     C_R   0.419115 0.527636 0.121352 0.583997
N1    N     N_R   0.428980 0.501793 0.845593 -0.310593
N2    N     N_R   0.484908 0.516796 0.143249 -0.307652
C7    C     C_R   0.373443 0.493785 0.880740 0.604016
C8    C     C_R   0.540122 0.506392 0.108206 0.561878
C9    C     C_R   0.381506 0.507116 0.940892 -0.088034
C10   C     C_R   0.531813 0.514397 0.047884 -0.071721
C11   C     C_R   0.450589 0.513836 0.964256 -0.121314
C12   C     C_R   0.462563 0.516419 0.024540 -0.112855
C13   C     C_R   0.507826 0.517767 0.927168 -0.165994
C14   C     C_R   0.405241 0.519802 0.061669 -0.194588
C15   C     C_R   0.323868 0.511754 0.978312 0.088619
C16   C     C_R   0.589450 0.518886 0.010459 0.064867
C17   C     C_R   0.336066 0.514791 0.038636 0.525708
C18   C     C_R   0.577025 0.519527 0.950189 0.490195
O9    O     O_2   0.545470 0.535335 0.830711 -0.532532
O10   O     O_2   0.367585 0.544531 0.157677 -0.530726
O11   O     O_2   0.312179 0.469882 0.857803 -0.603404
O12   O     O_2   0.601612 0.485668 0.131891 -0.607658
C19   C     C_R   0.531008 0.563686 0.236306 0.469596
C20   C     C_R   0.396498 0.542270 0.748465 0.465629
C21   C     C_R   0.541335 0.555664 0.296478 0.019023
C22   C     C_R   0.422909 0.550031 0.692433 -0.020581
C23   C     C_R   0.502897 0.501569 0.325344 -0.289326
C24   C     C_R   0.471904 0.499249 0.671595 -0.273827
C25   C     C_R   0.460908 0.452481 0.292763 0.405693
C26   C     C_R   0.490767 0.440296 0.706576 0.430921
C27   C     C_R   0.464656 0.450757 0.232626 0.076450
C28   C     C_R   0.461836 0.432154 0.761072 0.059521
C29   C     C_R   0.494896 0.509606 0.204502 0.106638
C30   C     C_R   0.422454 0.488089 0.784436 0.083135
C31   C     C_R   0.734344 0.437832 0.450669 0.326545
C32   C     C_R   0.248653 0.556612 0.487650 0.258355
C33   C     C_R   0.256218 0.432876 0.520717 0.319925
C34   C     C_R   0.751726 0.559415 0.488951 0.254046
C35   C     C_R   0.806280 0.430251 0.445410 0.295423
C36   C     C_R   0.176606 0.546820 0.476024 0.323898
C37   C     C_R   0.185578 0.421734 0.507322 0.311093
C38   C     C_R   0.824609 0.550860 0.486243 0.332470
C39   C     C_R   0.850771 0.485695 0.465212 -0.174302
C40   C     C_R   0.146160 0.479169 0.486096 -0.175920
C41   C     C_R   0.707765 0.499114 0.479158 -0.399081
C42   C     C_R   0.289241 0.497083 0.503797 -0.409822
C43   C     C_R   0.957153 0.463916 0.524388 0.136789
C44   C     C_R   0.038993 0.466523 0.424488 0.149541
C45   C     C_R   0.030030 0.469147 0.530641 0.180835
C46   C     C_R   0.966114 0.474061 0.418586 0.178521
C47   C     C_R   0.070420 0.470850 0.480343 0.171303
C48   C     C_R   0.925847 0.473400 0.468979 0.154516
C49   C     C_R   0.519931 0.726064 0.549476 0.333798
C50   C     C_R   0.438331 0.272442 0.495354 0.417894
C51   C     C_R   0.482922 0.726908 0.451098 0.359356
C52   C     C_R   0.561439 0.273243 0.505148 0.335783
C53   C     C_R   0.511804 0.801415 0.553365 0.265938
C54   C     C_R   0.436851 0.196864 0.504777 0.256462
C55   C     C_R   0.492102 0.802666 0.450074 0.257449
C56   C     C_R   0.562013 0.197420 0.498834 0.252557
C57   C     C_R   0.501493 0.841600 0.502499 -0.106134
C58   C     C_R   0.499247 0.158021 0.502081 -0.084876
N3    N     N_R   0.500000 0.689440 0.500000 -0.190193
N4    N     N_R   0.500000 0.310560 0.500000 -0.201676
C59   C     C_R   0.448996 0.960650 0.471341 0.311991
C60   C     C_R   0.544469 0.039483 0.540698 0.323135
C61   C     C_R   0.549917 0.963950 0.536863 0.313750
C62   C     C_R   0.453687 0.036146 0.465753 0.321605
C63   C     C_R   0.499024 0.076907 0.502767 -0.112805
C64   C     C_R   0.500215 0.922933 0.503747 -0.140250
C65   C     C_3   0.249510 0.518423 0.954969 -0.749377
H1    H     H_    0.247205 0.559915 0.920874 0.239687
H2    H     H_    0.230261 0.466066 0.937235 0.256326
H3    H     H_    0.212640 0.535865 0.988431 0.254031
C66   C     C_3   0.664195 0.526412 0.033436 -0.785068
H4    H     H_    0.668027 0.568540 0.067611 0.249277
H5    H     H_    0.682458 0.474264 0.050721 0.255951
H6    H     H_    0.701245 0.543121 0.999924 0.250196
O13   O     O_3   0.542771 0.688345 0.597207 -0.576094
C67   C     C_3   0.614149 0.703315 0.609085 0.172488
H7    H     H_    0.620188 0.755057 0.633197 0.181151
H8    H     H_    0.645005 0.705671 0.569079 0.169665
C68   C     C_3   0.644332 0.643821 0.646487 -0.805496
H9    H     H_    0.640914 0.591651 0.622747 0.251714
H10   H     H_    0.700064 0.655854 0.657434 0.195928
H11   H     H_    0.614909 0.639490 0.687110 0.262698
O14   O     O_3   0.378385 0.307830 0.478133 -0.555258
C69   C     C_3   0.349143 0.278845 0.425665 0.127648
H12   H     H_    0.310582 0.318177 0.409257 0.144667
H13   H     H_    0.318837 0.228917 0.433465 0.180894
C70   C     C_3   0.402583 0.265750 0.378181 -0.856388
H14   H     H_    0.443394 0.308287 0.379482 0.302573
H15   H     H_    0.429088 0.213875 0.385121 0.230237
H16   H     H_    0.376102 0.263863 0.334942 0.239634
O15   O     O_3   0.461433 0.689817 0.401642 -0.562563
C71   C     C_3   0.393445 0.711319 0.384268 0.208616
H17   H     H_    0.396704 0.757132 0.354021 0.189134
H18   H     H_    0.360504 0.726851 0.421364 0.140229
C72   C     C_3   0.356682 0.649312 0.352716 -0.819633
H19   H     H_    0.350520 0.603810 0.382861 0.259431
H20   H     H_    0.304145 0.666223 0.337000 0.197814
H21   H     H_    0.387687 0.631950 0.315186 0.264625
O16   O     O_3   0.624106 0.309427 0.513151 -0.520080
C73   C     C_3   0.647874 0.300341 0.570903 0.162883
H22   H     H_    0.660583 0.243174 0.579440 0.176427
H23   H     H_    0.607780 0.318642 0.601644 0.162361
C74   C     C_3   0.714338 0.344461 0.581896 -0.849324
H24   H     H_    0.703346 0.402677 0.578730 0.242283
H25   H     H_    0.736476 0.333333 0.625607 0.206817
H26   H     H_    0.753924 0.329868 0.550027 0.239808
O17   O     O_3   0.515670 0.834848 0.606990 -0.538860
C75   C     C_3   0.448136 0.835540 0.629955 0.126153
H27   H     H_    0.427210 0.779931 0.634690 0.144063
H28   H     H_    0.411683 0.866934 0.601973 0.112524
C76   C     C_3   0.451636 0.870802 0.689542 -0.797512
H29   H     H_    0.470819 0.927058 0.686269 0.238717
H30   H     H_    0.398802 0.871067 0.708254 0.200247
H31   H     H_    0.487544 0.840526 0.718605 0.268407
O18   O     O_3   0.374407 0.159926 0.510894 -0.559551
C77   C     C_3   0.344097 0.180441 0.563399 0.088840
H32   H     H_    0.324350 0.236186 0.560780 0.208848
H33   H     H_    0.382112 0.176256 0.600541 0.119725
C78   C     C_3   0.282434 0.130878 0.574517 -0.850682
H34   H     H_    0.300494 0.074532 0.578212 0.244185
H35   H     H_    0.257433 0.147000 0.615401 0.213400
H36   H     H_    0.243310 0.134282 0.538369 0.260548
O19   O     O_3   0.489720 0.838027 0.397788 -0.552806
C79   C     C_3   0.556714 0.835992 0.373874 0.107912
H37   H     H_    0.575932 0.779906 0.370113 0.147610
H38   H     H_    0.594492 0.868619 0.400774 0.118475
C80   C     C_3   0.553264 0.867203 0.313404 -0.817494
H39   H     H_    0.536771 0.924151 0.315337 0.237260
H40   H     H_    0.605564 0.864617 0.293854 0.200857
H41   H     H_    0.515352 0.835948 0.285761 0.271132
O20   O     O_3   0.624637 0.161821 0.493457 -0.546740
C81   C     C_3   0.647191 0.169031 0.436193 0.124439
H42   H     H_    0.660624 0.225972 0.427003 0.196906
H43   H     H_    0.606383 0.149395 0.404392 0.106892
C82   C     C_3   0.712481 0.124502 0.428459 -0.848027
H44   H     H_    0.700408 0.066814 0.435510 0.240611
H45   H     H_    0.731757 0.131131 0.383927 0.207678
H46   H     H_    0.754035 0.142462 0.459914 0.261662
O21   O     O_3   0.396184 0.923830 0.441411 -0.537432
C83   C     C_3   0.335199 0.925719 0.474312 0.136455
H47   H     H_    0.321409 0.981683 0.487013 0.174134
H48   H     H_    0.342195 0.892883 0.513918 0.104382
C84   C     C_3   0.274515 0.894517 0.438166 -0.835347
H49   H     H_    0.286807 0.839273 0.423299 0.240506
H50   H     H_    0.226770 0.892590 0.464391 0.204693
H51   H     H_    0.264450 0.928606 0.399766 0.261524
O22   O     O_3   0.586484 0.076810 0.580410 -0.533729
C85   C     C_3   0.550379 0.082376 0.632704 0.138765
H52   H     H_    0.545155 0.028538 0.652825 0.166089
H53   H     H_    0.497432 0.105850 0.625789 0.108120
C86   C     C_3   0.591391 0.131413 0.674530 -0.827596
H54   H     H_    0.594567 0.186514 0.656729 0.234225
H55   H     H_    0.564722 0.133929 0.716582 0.207493
H56   H     H_    0.645052 0.110502 0.681774 0.264802
O23   O     O_3   0.602311 0.930760 0.568512 -0.525334
C87   C     C_3   0.662619 0.928103 0.534850 0.144136
H57   H     H_    0.678847 0.982777 0.520843 0.165090
H58   H     H_    0.653347 0.893008 0.496090 0.106661
C88   C     C_3   0.722229 0.896983 0.571002 -0.826150
H59   H     H_    0.707655 0.842662 0.586334 0.238667
H60   H     H_    0.769649 0.892791 0.544563 0.200001
H61   H     H_    0.734050 0.932369 0.609044 0.267684
O24   O     O_3   0.410089 0.069999 0.426201 -0.541818
C89   C     C_3   0.435674 0.059527 0.369948 0.137762
H62   H     H_    0.455326 0.004162 0.362292 0.172630
H63   H     H_    0.478938 0.098356 0.362457 0.103361
C90   C     C_3   0.376871 0.071953 0.325821 -0.808642
H64   H     H_    0.354439 0.126163 0.331787 0.250543
H65   H     H_    0.397146 0.067351 0.281389 0.201931
H66   H     H_    0.334935 0.031056 0.331102 0.263386
O25   O     O_3   0.279445 0.512479 0.074889 -0.582258
C91   C     C_3   0.271295 0.442290 0.097381 0.169997
H67   H     H_    0.253446 0.447727 0.142524 0.183455
H68   H     H_    0.320509 0.410682 0.099556 0.103054
C92   C     C_3   0.215740 0.399860 0.062814 -0.918053
H69   H     H_    0.235280 0.385773 0.019446 0.253825
H70   H     H_    0.203392 0.349262 0.085617 0.222790
H71   H     H_    0.167314 0.431843 0.058058 0.272000
O26   O     O_3   0.633210 0.522018 0.913647 -0.563724
C93   C     C_3   0.655300 0.451089 0.902439 0.127869
H72   H     H_    0.612345 0.418157 0.882099 0.130811
H73   H     H_    0.673666 0.424524 0.942890 0.126366
C94   C     C_3   0.715676 0.453378 0.861040 -0.801484
H74   H     H_    0.760069 0.484597 0.880789 0.251202
H75   H     H_    0.733261 0.397923 0.851508 0.196010
H76   H     H_    0.698829 0.479136 0.819960 0.272011
O27   O     O_3   0.541636 0.629791 0.210434 -0.589075
C95   C     C_3   0.612359 0.640911 0.196634 0.104648
H77   H     H_    0.642358 0.590373 0.191659 0.170069
H78   H     H_    0.638466 0.674562 0.230843 0.145223
C96   C     C_3   0.615334 0.683064 0.140708 -0.807409
H79   H     H_    0.592017 0.736923 0.146933 0.257588
H80   H     H_    0.670481 0.689996 0.127930 0.201332
H81   H     H_    0.585652 0.654363 0.105546 0.261217
O28   O     O_3   0.350997 0.592032 0.770836 -0.585399
C97   C     C_3   0.282040 0.572574 0.752784 0.105591
H82   H     H_    0.267937 0.517517 0.766808 0.187770
H83   H     H_    0.275006 0.573908 0.704908 0.106335
C98   C     C_3   0.231139 0.625213 0.778872 -0.794858
H84   H     H_    0.242452 0.680400 0.763600 0.247180
H85   H     H_    0.176801 0.610042 0.765535 0.199391
H86   H     H_    0.236010 0.624436 0.826794 0.263385
C99   C     C_3   0.593563 0.604628 0.327854 -0.806622
H87   H     H_    0.604436 0.589670 0.373210 0.235905
H88   H     H_    0.645015 0.600150 0.307301 0.173472
H89   H     H_    0.575461 0.661008 0.326368 0.274914
C100  C     C_3   0.400288 0.613547 0.656616 -0.795781
H90   H     H_    0.445622 0.649170 0.650528 0.300944
H91   H     H_    0.378018 0.594663 0.614422 0.225015
H92   H     H_    0.361066 0.647976 0.677266 0.240502
O29   O     O_3   0.413241 0.407748 0.318802 -0.609690
C101  C     C_3   0.353350 0.447178 0.334361 0.145687
H93   H     H_    0.354115 0.504533 0.321168 0.124640
H94   H     H_    0.349243 0.446011 0.382118 0.155713
C102  C     C_3   0.287568 0.412956 0.307228 -0.879544
H95   H     H_    0.287342 0.353917 0.313007 0.252380
H96   H     H_    0.240810 0.435660 0.327883 0.208599
H97   H     H_    0.284255 0.424760 0.260337 0.252555
O30   O     O_3   0.540334 0.391544 0.689129 -0.605778
C103  C     C_3   0.608034 0.420839 0.700463 0.113880
H98   H     H_    0.609701 0.467514 0.731341 0.163463
H99   H     H_    0.629718 0.439521 0.659114 0.139331
C104  C     C_3   0.655341 0.363078 0.725710 -0.872486
H100  H     H_    0.650849 0.312761 0.699722 0.256203
H101  H     H_    0.710449 0.382275 0.726379 0.213141
H102  H     H_    0.640795 0.350968 0.770655 0.249157
C105  C     C_3   0.431837 0.388350 0.199302 -0.787967
H103  H     H_    0.448223 0.337033 0.219370 0.244489
H104  H     H_    0.374175 0.391833 0.199903 0.239387
H105  H     H_    0.448335 0.386437 0.153686 0.206561
C106  C     C_3   0.478705 0.366828 0.796575 -0.806985
H106  H     H_    0.468266 0.317397 0.770322 0.250717
H107  H     H_    0.534251 0.368362 0.810789 0.236283
H108  H     H_    0.446149 0.363712 0.835534 0.220205
O31   O     O_3   0.690366 0.385084 0.427377 -0.538597
C107  C     C_3   0.671437 0.404522 0.370280 0.164010
H109  H     H_    0.718375 0.410232 0.343103 0.149524
H110  H     H_    0.642448 0.456007 0.370031 0.106289
C108  C     C_3   0.624371 0.346335 0.343206 -0.813314
H111  H     H_    0.579358 0.335465 0.371254 0.267135
H112  H     H_    0.604431 0.364008 0.300186 0.213212
H113  H     H_    0.654282 0.296065 0.337538 0.229335
O32   O     O_3   0.278875 0.624363 0.486113 -0.599030
C109  C     C_3   0.262698 0.661766 0.537609 0.170415
H114  H     H_    0.268359 0.627434 0.576670 0.110362
H115  H     H_    0.208243 0.681885 0.534973 0.168177
C110  C     C_3   0.311824 0.725902 0.545658 -0.919295
H116  H     H_    0.304531 0.763540 0.509271 0.247353
H117  H     H_    0.300597 0.754521 0.586699 0.202877
H118  H     H_    0.366772 0.707624 0.547291 0.263169
O33   O     O_3   0.291682 0.382190 0.553191 -0.552650
C111  C     C_3   0.296374 0.406988 0.611207 0.141856
H119  H     H_    0.243380 0.415254 0.628866 0.135201
H120  H     H_    0.326653 0.458291 0.614853 0.107057
C112  C     C_3   0.333829 0.351678 0.648279 -0.835728
H121  H     H_    0.386154 0.340464 0.630768 0.268306
H122  H     H_    0.340377 0.372539 0.693264 0.208890
H123  H     H_    0.302628 0.301136 0.649077 0.239507
O34   O     O_3   0.723464 0.626177 0.499951 -0.602122
C113  C     C_3   0.730467 0.668766 0.449987 0.161631
H124  H     H_    0.708525 0.640769 0.410732 0.123000
H125  H     H_    0.786181 0.682451 0.442690 0.173645
C114  C     C_3   0.691652 0.738797 0.457566 -0.931677
H126  H     H_    0.713191 0.768444 0.495943 0.251702
H127  H     H_    0.698049 0.772640 0.418777 0.202419
H128  H     H_    0.635286 0.727713 0.463202 0.246870
O35   O     O_3   0.833199 0.372158 0.415748 -0.587967
C115  C     C_3   0.837153 0.312415 0.452639 0.142583
H129  H     H_    0.784205 0.288982 0.458493 0.192484
H130  H     H_    0.861571 0.326863 0.495547 0.128346
C116  C     C_3   0.882138 0.255341 0.425013 -0.849575
H131  H     H_    0.935564 0.277126 0.418489 0.258851
H132  H     H_    0.885686 0.207862 0.453587 0.206519
H133  H     H_    0.858713 0.238283 0.382560 0.260898
O36   O     O_3   0.133244 0.603573 0.460978 -0.601160
C117  C     C_3   0.156935 0.639650 0.411437 0.156027
H134  H     H_    0.187574 0.604691 0.382130 0.121758
H135  H     H_    0.189759 0.686744 0.424888 0.180677
C118  C     C_3   0.094096 0.667511 0.377265 -0.851541
H136  H     H_    0.063994 0.704960 0.404561 0.265116
H137  H     H_    0.111885 0.696533 0.338509 0.209201
H138  H     H_    0.059534 0.622087 0.363093 0.263988
O37   O     O_3   0.152096 0.358630 0.522573 -0.581363
C119  C     C_3   0.172842 0.302104 0.485803 0.156001
H139  H     H_    0.225185 0.282494 0.499517 0.189858
H140  H     H_    0.174080 0.318606 0.439622 0.098742
C120  C     C_3   0.121059 0.240081 0.490106 -0.857017
H141  H     H_    0.068040 0.257814 0.476245 0.258588
H142  H     H_    0.137057 0.194973 0.461719 0.206119
H143  H     H_    0.119608 0.221026 0.535423 0.261703
O38   O     O_3   0.871544 0.606502 0.499469 -0.599519
C121  C     C_3   0.862134 0.633825 0.556043 0.165327
H144  H     H_    0.842947 0.592378 0.586473 0.125792
H145  H     H_    0.824722 0.679028 0.554799 0.179949
C122  C     C_3   0.931692 0.663068 0.579731 -0.856966
H146  H     H_    0.950407 0.707299 0.552018 0.263735
H147  H     H_    0.925451 0.684072 0.624403 0.203339
H148  H     H_    0.971165 0.619829 0.580498 0.267314
C123  C     C_3   0.913668 0.448840 0.577157 -0.924525
H149  H     H_    0.932134 0.398815 0.598028 0.245459
H150  H     H_    0.918638 0.493831 0.608816 0.247288
H151  H     H_    0.857346 0.440270 0.566947 0.222073
C124  C     C_3   0.084236 0.454323 0.372347 -0.917547
H152  H     H_    0.054103 0.442455 0.331857 0.249127
H153  H     H_    0.117669 0.501907 0.364912 0.246314
H154  H     H_    0.118248 0.407319 0.380037 0.226088
C125  C     C_3   0.063284 0.473622 0.591096 -0.825920
H155  H     H_    0.056648 0.421513 0.613301 0.254726
H156  H     H_    0.119660 0.487300 0.591931 0.215879
H157  H     H_    0.038341 0.516594 0.616672 0.218458
C126  C     C_3   0.932584 0.485181 0.359192 -0.811613
H158  H     H_    0.961469 0.527627 0.336002 0.223652
H159  H     H_    0.933394 0.434184 0.333900 0.250794
H160  H     H_    0.877699 0.503215 0.360483 0.230199

loop_
_geom_bond_atom_site_label_1
_geom_bond_atom_site_label_2
_geom_bond_distance
_ccdc_geom_bond_type
C108  H112  1.110624 S    
C80   H41   1.110854 S    
O36   C117  1.416239 S    
C81   C82   1.519993 S    
C100  H92   1.106355 S    
C23   C25   1.410172 A    
C91   C92   1.523352 S    
C115  H129  1.111677 S    
C53   O17   1.381501 S    
C80   H39   1.109641 S    
C71   H17   1.110741 S    
C44   C46   1.407151 A    
C45   C47   1.413613 A    
O7    Zn1   1.979636 S    
C46   C48   1.413731 A    
C100  H90   1.099835 S    
C87   H58   1.112977 S    
C54   C58   1.404894 A    
C96   H81   1.109356 S    
C116  H132  1.110464 S    
C118  H138  1.109961 S    
O3    Zn1   1.989752 S    
C87   C88   1.520336 S    
C94   H74   1.110596 S    
C49   O13   1.378375 S    
C82   H45   1.110456 S    
C25   C27   1.394359 A    
C26   C28   1.398567 A    
C101  H93   1.113280 S    
C89   H63   1.112012 S    
C46   C126  1.518180 S    
C125  H155  1.109771 S    
C78   H34   1.110868 S    
C79   H37   1.113446 S    
C88   H60   1.110446 S    
C55   C57   1.412400 A    
C93   H72   1.112406 S    
Zn2   N4    2.014201 S    
C22   C100  1.511028 S    
C4    C24   1.481755 S    
C90   H64   1.109071 S    
O29   C101  1.419563 S    
C52   C56   1.417290 A    
C50   N4    1.372728 A    
C67   H8    1.111361 S    
C72   H20   1.110391 S    
C81   H42   1.111948 S    
C44   C124  1.519025 S    
C111  H120  1.113415 S    
C66   H5    1.109778 S    
O8    Zn2   1.979636 S    
C90   H66   1.110773 S    
C58   C63   1.509778 S    
C20   C22   1.411210 A    
C19   C29   1.405916 A    
N2    C29   1.432278 S    
C119  H139  1.109773 S    
C106  H108  1.110256 S    
C78   H35   1.110437 S    
C34   C41   1.409050 A    
C115  C116  1.519955 S    
O4    C1    1.294680 A    
O19   C79   1.410511 S    
C68   H10   1.110502 S    
C71   C72   1.516403 S    
C83   H48   1.112341 S    
C92   H71   1.110506 S    
C88   H59   1.110215 S    
C50   C54   1.425690 A    
C59   C64   1.415308 A    
C33   C37   1.392846 A    
C117  H135  1.110519 S    
C73   H23   1.112974 S    
C102  H97   1.108961 S    
C35   C39   1.397412 A    
C114  H127  1.110061 S    
O4    Zn2   1.989756 S    
O2    Zn2   1.982387 S    
O26   C93   1.413509 S    
O5    Zn1   1.971819 S    
C65   H3    1.108930 S    
C97   H82   1.110844 S    
C77   H33   1.115389 S    
O21   C83   1.410433 S    
C101  C102  1.523484 S    
C112  H121  1.111052 S    
C107  H109  1.114613 S    
C124  H153  1.105078 S    
C15   C17   1.408945 A    
O20   C81   1.410636 S    
C79   C80   1.519917 S    
O3    C2    1.296994 A    
O17   C75   1.410538 S    
C86   H55   1.110627 S    
C1    C42   1.461899 S    
C7    C9    1.414650 A    
C12   C14   1.412175 A    
C5    C13   1.400713 A    
O16   C73   1.412236 S    
C103  H98   1.118336 S    
C91   H68   1.116082 S    
C28   C106  1.507159 S    
Zn1   N3    2.014201 S    
C94   H76   1.110503 S    
O15   C71   1.415309 S    
C20   C30   1.400714 A    
C31   O31   1.382799 S    
C119  C120  1.519929 S    
C24   C26   1.414213 A    
C60   O22   1.382309 S    
C93   C94   1.520270 S    
C121  H145  1.110426 S    
C74   H25   1.108364 S    
C43   C45   1.401492 A    
C62   O24   1.383386 S    
C38   O38   1.390791 S    
C104  H101  1.110331 S    
C7    O11   1.344663 S    
C98   H86   1.109976 S    
O13   C67   1.411571 S    
C126  H159  1.110013 S    
C52   O16   1.377486 S    
C124  H152  1.106275 S    
C125  H156  1.106257 S    
C76   H30   1.110452 S    
C31   C41   1.416535 A    
C26   O30   1.384078 S    
C65   H1    1.109744 S    
C97   C98   1.519887 S    
C32   C36   1.408375 A    
O6    C4    1.297688 A    
C105  H105  1.109155 S    
C16   C66   1.518454 S    
C84   H50   1.110397 S    
C70   H15   1.106399 S    
C27   C29   1.406905 A    
C107  C108  1.521285 S    
C122  H147  1.110393 S    
C51   N3    1.368965 A    
C36   O36   1.391488 S    
C75   H28   1.113593 S    
C37   C40   1.400392 A    
C92   H69   1.109082 S    
C38   C39   1.403673 A    
C123  H151  1.107667 S    
C113  H125  1.111807 S    
C109  H114  1.115512 S    
C61   C64   1.418047 A    
O33   C111  1.414534 S    
C100  H91   1.107202 S    
C5    O9    1.350455 S    
C6    O10   1.349448 S    
C56   O20   1.383397 S    
C103  C104  1.523887 S    
C115  H130  1.115148 S    
C118  H136  1.110732 S    
C59   O21   1.382629 S    
C99   H89   1.108870 S    
C118  H137  1.110443 S    
C69   H12   1.107745 S    
C71   H18   1.115053 S    
O7    C4    1.299230 A    
O22   C85   1.411574 S    
O8    C3    1.302677 A    
C95   H77   1.113356 S    
O35   C115  1.409948 S    
C96   H80   1.110405 S    
O32   C109  1.415731 S    
C112  H123  1.109864 S    
C66   H4    1.107934 S    
C78   H36   1.110820 S    
C104  H100  1.108774 S    
O23   C87   1.410010 S    
C101  H94   1.109602 S    
O30   C103  1.418406 S    
C110  H116  1.107439 S    
C121  H144  1.115402 S    
C34   C38   1.409050 A    
O1    C1    1.295821 A    
C85   H52   1.113811 S    
C79   H38   1.113190 S    
C105  H103  1.110701 S    
C112  H122  1.110164 S    
C61   O23   1.381210 S    
C72   H19   1.109758 S    
C28   C30   1.403113 A    
C34   O34   1.383823 S    
C82   H44   1.110544 S    
C53   C57   1.411150 A    
C88   H61   1.110637 S    
C8    O12   1.347338 S    
C106  H107  1.105131 S    
C9    C15   1.422436 A    
C108  H113  1.110099 S    
C123  H149  1.109912 S    
C10   C16   1.422122 A    
C2    C41   1.467951 S    
C109  C110  1.519297 S    
C119  H140  1.115068 S    
C120  H143  1.110764 S    
C117  C118  1.520930 S    
C6    C14   1.404578 A    
C96   H79   1.110779 S    
O31   C107  1.411984 S    
C86   H54   1.110690 S    
C31   C35   1.394247 A    
C27   C105  1.509832 S    
C69   C70   1.539119 S    
O38   C121  1.415084 S    
O37   C119  1.412161 S    
C92   H70   1.110427 S    
C84   H49   1.110021 S    
C113  C114  1.517461 S    
C84   H51   1.110679 S    
C102  H96   1.110562 S    
C116  H133  1.110753 S    
C56   C58   1.405667 A    
C65   H2    1.109143 S    
C97   H83   1.112401 S    
C9    C11   1.419858 A    
C10   C12   1.419760 A    
C52   N4    1.375174 A    
C21   C99   1.512538 S    
C76   H29   1.110049 S    
C57   C64   1.514056 S    
C99   H87   1.103177 S    
C89   H62   1.114367 S    
C107  H110  1.112064 S    
C59   C62   1.414465 A    
C13   C18   1.415176 A    
C5    N1    1.366016 A    
C83   H47   1.115224 S    
C85   C86   1.520987 S    
C81   H43   1.115414 S    
C74   H24   1.108536 S    
C32   C42   1.407698 A    
C15   C65   1.516384 S    
C114  H126  1.108409 S    
O25   C91   1.419707 S    
C21   C23   1.423141 A    
C22   C24   1.427079 A    
C60   C63   1.413259 A    
C49   C53   1.414636 A    
C85   H53   1.116307 S    
C67   H7    1.111203 S    
C103  H99   1.109944 S    
C72   H21   1.110991 S    
C51   C55   1.419590 A    
C20   O28   1.383196 S    
O24   C89   1.413969 S    
C17   O25   1.387917 S    
C111  H119  1.114891 S    
C121  C122  1.520556 S    
C66   H6    1.108744 S    
C70   H14   1.106456 S    
C94   H75   1.110383 S    
C110  H118  1.108766 S    
C122  H146  1.110708 S    
C25   O29   1.382858 S    
C32   O32   1.383290 S    
C45   C125  1.522385 S    
C68   H9    1.110868 S    
C98   H84   1.110690 S    
C19   O27   1.389096 S    
C68   H11   1.110894 S    
O5    C3    1.290138 A    
C43   C48   1.414139 A    
C44   C47   1.412057 A    
C117  H134  1.115976 S    
C19   C21   1.410103 A    
C98   H85   1.110503 S    
C82   H46   1.110793 S    
C73   H22   1.112284 S    
C114  H128  1.108016 S    
C18   O26   1.385601 S    
C77   H32   1.109421 S    
C105  H104  1.107044 S    
C95   C96   1.521640 S    
C104  H102  1.107728 S    
C89   C90   1.521085 S    
C124  H154  1.108846 S    
C120  H141  1.111035 S    
C35   O35   1.385122 S    
O2    C2    1.294402 A    
C86   H56   1.111583 S    
C33   O33   1.384284 S    
C123  H150  1.108183 S    
N1    C30   1.436467 S    
C109  H115  1.111758 S    
C60   C61   1.412621 A    
C55   O19   1.382565 S    
C67   C68   1.521562 S    
C33   C42   1.410052 A    
C91   H67   1.110638 S    
C50   O14   1.380881 S    
O28   C97   1.416973 S    
C43   C123  1.521700 S    
C99   H88   1.108206 S    
C90   H65   1.110376 S    
O14   C69   1.422005 S    
C111  C112  1.520021 S    
C11   C12   1.407205 A    
C39   C48   1.458376 S    
C69   H13   1.109436 S    
C40   C47   1.459454 S    
C113  H124  1.112750 S    
C3    C23   1.470868 S    
O34   C113  1.416408 S    
C95   H78   1.109518 S    
C75   C76   1.519624 S    
C116  H131  1.111104 S    
O1    Zn1   1.982391 S    
C37   O37   1.385626 S    
C108  H111  1.110115 S    
C87   H57   1.114720 S    
C120  H142  1.110531 S    
C74   H26   1.104459 S    
C80   H40   1.110475 S    
O6    Zn2   1.971819 S    
C83   C84   1.520755 S    
C8    C10   1.409539 A    
C62   C63   1.413136 A    
C126  H160  1.107382 S    
C106  H106  1.110497 S    
C49   N3    1.369415 A    
C73   C74   1.522056 S    
C125  H157  1.108843 S    
C16   C18   1.408061 A    
C76   H31   1.110777 S    
C110  H117  1.110275 S    
C126  H158  1.110356 S    
C51   O15   1.381099 S    
C77   C78   1.519809 S    
C54   O18   1.384385 S    
N1    C7    1.362807 A    
C70   H16   1.109525 S    
N2    C8    1.362507 A    
C11   C13   1.410611 A    
O18   C77   1.409774 S    
C93   H73   1.113271 S    
C14   C17   1.416725 A    
C6    N2    1.363304 A    
C122  H148  1.109377 S    
C102  H95   1.108209 S    
O27   C95   1.412922 S    
C36   C40   1.406330 A    
C75   H27   1.113527 S    
