data_mof_unit_45625.cif
_audit_creation_date              2013-03-05T16:09:19-0500
_audit_creation_method            fapswitch 2.2
_symmetry_space_group_name_H-M    P1
_symmetry_Int_Tables_number       1
_space_group_crystal_system       triclinic
_cell_length_a                    7.234231
_cell_length_b                    12.163111
_cell_length_c                    21.284704
_cell_angle_alpha                 90.000463
_cell_angle_beta                  90.57566
_cell_angle_gamma                 89.998256
_cell_volume                      1872.76263916

loop_
_atom_site_label
_atom_site_type_symbol
_atom_site_description
_atom_site_fract_x
_atom_site_fract_y
_atom_site_fract_z
_atom_type_partial_charge
O1    O     O_R   0.354460 0.152320 0.595720 -0.584866
O2    O     O_R   0.645540 0.847680 0.404280 -0.583867
O3    O     O_R   0.145540 0.652320 0.404280 -0.584864
O4    O     O_R   0.854460 0.347680 0.595720 -0.583865
O5    O     O_R   0.683670 0.140090 0.727290 -0.583003
O6    O     O_R   0.316330 0.859910 0.272710 -0.583947
O7    O     O_R   0.816330 0.640090 0.272710 -0.583001
O8    O     O_R   0.183670 0.359910 0.727290 -0.583944
O9    O     O_R   0.854010 0.349340 0.727750 -0.582533
O10   O     O_R   0.145990 0.650660 0.272250 -0.582150
O11   O     O_R   0.645990 0.849340 0.272250 -0.582531
O12   O     O_R   0.354010 0.150660 0.727750 -0.582149
C1    C     C_R   0.516378 0.112361 0.746933 0.910611
C2    C     C_R   0.483410 0.887642 0.253038 0.912364
C3    C     C_R   0.983626 0.612361 0.253065 0.910603
C4    C     C_R   0.016588 0.387638 0.746965 0.912377
O13   O     O_R   0.684170 0.139420 0.596190 -0.586124
O14   O     O_R   0.315830 0.860580 0.403810 -0.587244
O15   O     O_R   0.815830 0.639420 0.403810 -0.586122
O16   O     O_R   0.184170 0.360580 0.596190 -0.587245
C5    C     C_R   0.515099 0.113165 0.574466 0.943114
C6    C     C_R   0.484900 0.886834 0.425534 0.943181
C7    C     C_R   0.984903 0.613166 0.425534 0.943111
C8    C     C_R   0.015098 0.386834 0.574466 0.943180
O17   O     O_3   0.520730 0.319480 0.661730 -0.283671
O18   O     O_3   0.479270 0.680520 0.338270 -0.283683
O19   O     O_3   0.979270 0.819480 0.338270 -0.283671
O20   O     O_3   0.020730 0.180520 0.661730 -0.283679
V1    V     V_3+5 0.795560 0.238090 0.661730 1.186337
V2    V     V_3+5 0.204440 0.761910 0.338270 1.184511
V3    V     V_3+5 0.704440 0.738090 0.338270 1.186320
V4    V     V_3+5 0.295560 0.261910 0.661730 1.184515
C9    C     C_R   0.012909 0.466511 0.798496 -0.085816
C10   C     C_R   0.989527 0.533844 0.201432 -0.082289
C11   C     C_R   0.487087 0.966503 0.201503 -0.085747
C12   C     C_R   0.510487 0.033837 0.798561 -0.082259
C13   C     C_R   0.053544 0.650706 0.837692 -0.064549
C14   C     C_R   0.032752 0.349528 0.163112 -0.061040
C15   C     C_R   0.446693 0.150719 0.162309 -0.064694
C16   C     C_R   0.467332 0.849512 0.836865 -0.060979
C17   C     C_R   0.055300 0.576512 0.788014 -0.180943
C18   C     C_R   0.027781 0.423552 0.212847 -0.181076
C19   C     C_R   0.444952 0.076542 0.211993 -0.181018
C20   C     C_R   0.472288 0.923547 0.787136 -0.181084
C21   C     C_R   0.978396 0.429237 0.859111 -0.170015
C22   C     C_R   0.965045 0.571495 0.140153 -0.167101
C23   C     C_R   0.521409 0.929189 0.140883 -0.170062
C24   C     C_R   0.534939 0.071475 0.859842 -0.167081
C25   C     C_R   0.989787 0.501027 0.911293 0.150942
C26   C     C_R   0.981021 0.499595 0.088258 0.147996
C27   C     C_R   0.510153 0.000988 0.088699 0.150946
C28   C     C_R   0.518992 0.999564 0.911732 0.147961
C29   C     C_R   0.014738 0.615402 0.899357 0.070514
C30   C     C_R   0.002746 0.385054 0.100663 0.066660
C31   C     C_R   0.485336 0.115378 0.100638 0.070597
C32   C     C_R   0.497322 0.885020 0.899319 0.066607
C33   C     C_R   0.982372 0.462017 0.974557 0.073382
C34   C     C_R   0.980524 0.538637 0.024924 0.071062
C35   C     C_R   0.517596 0.961979 0.025431 0.073458
C36   C     C_R   0.519466 0.038602 0.975067 0.071049
C37   C     C_R   0.987847 0.652139 0.010687 -0.241103
C38   C     C_R   0.987075 0.348507 0.988889 -0.241221
C39   C     C_R   0.512157 0.152105 0.989305 -0.240928
C40   C     C_R   0.512968 0.848470 0.011092 -0.241333
C41   C     C_R   0.005329 0.691224 0.949355 0.324865
C42   C     C_R   0.998202 0.309297 0.050472 0.317700
C43   C     C_R   0.494736 0.191191 0.050637 0.325157
C44   C     C_R   0.501896 0.809253 0.949509 0.317366
H1    H     H_    0.052017 0.394585 0.260362 0.105496
H2    H     H_    0.087613 0.605177 0.741192 0.107540
H3    H     H_    0.448075 0.894589 0.739619 0.105494
H4    H     H_    0.412824 0.105245 0.258826 0.107518
C45   C     C_1   0.995390 0.533144 0.478075 -0.228504
C46   C     C_1   0.004613 0.466854 0.521924 -0.228478
C47   C     C_1   0.504612 0.033144 0.521925 -0.228506
C48   C     C_1   0.495384 0.966854 0.478076 -0.228483
N1    N     N_R   0.010420 0.808516 0.939191 0.217384
O21   O     O_R   0.916155 0.852649 0.893351 -0.419729
O22   O     O_R   0.080863 0.872996 0.981945 -0.381114
N2    N     N_R   0.002326 0.191942 0.060563 0.217656
O23   O     O_R   0.903781 0.147512 0.104579 -0.422272
O24   O     O_R   0.076985 0.127678 0.019034 -0.381708
N3    N     N_R   0.489654 0.308482 0.060799 0.217372
O25   O     O_R   0.584170 0.352632 0.106573 -0.419723
O26   O     O_R   0.418900 0.372940 0.018094 -0.381222
N4    N     N_R   0.497831 0.691893 0.939425 0.217667
O27   O     O_R   0.596028 0.647466 0.895311 -0.422321
O28   O     O_R   0.423485 0.627607 0.981011 -0.381578
H5    H     H_    0.932941 0.657516 0.135021 0.097949
H6    H     H_    0.944123 0.343434 0.863590 0.100356
H7    H     H_    0.566997 0.157498 0.864977 0.097924
H8    H     H_    0.555436 0.843344 0.136407 0.100322
H9    H     H_    0.088286 0.735007 0.827240 0.150007
H10   H     H_    0.064851 0.265090 0.174351 0.151141
H11   H     H_    0.412103 0.235049 0.172766 0.150043
H12   H     H_    0.435240 0.765087 0.825609 0.151223
H13   H     H_    0.986719 0.713910 0.046747 0.163351
H14   H     H_    0.989093 0.286810 0.952791 0.163930
H15   H     H_    0.513266 0.213883 0.953249 0.163282
H16   H     H_    0.511017 0.786770 0.047186 0.163994

loop_
_geom_bond_atom_site_label_1
_geom_bond_atom_site_label_2
_geom_bond_distance
_ccdc_geom_bond_type
O1    C5    1.338826 A    
C19   H4    1.083602 S    
C9    C21   1.392435 A    
C23   H8    1.077199 S    
O3    C7    1.338840 A    
C10   C18   1.390631 A    
C6    C48   1.483919 S    
C11   C23   1.392434 A    
C25   C33   1.429234 A    
C33   C38   1.414261 A    
C22   H5    1.077058 S    
N1    O21   1.300684 A    
C43   N3    1.443445 S    
C35   C40   1.414273 A    
C26   C30   1.426358 A    
C36   C39   1.414517 A    
C40   C44   1.396412 A    
O20   V1    1.773041 S    
O9    C4    1.325854 A    
C7    C45   1.483928 S    
C14   C18   1.390452 A    
O10   C3    1.324304 A    
O4    C8    1.338846 A    
O11   C2    1.325846 A    
N4    O28   1.301441 A    
C44   N4    1.443762 S    
C20   H3    1.083532 S    
C45   C46   1.234667 T    
C39   H15   1.074144 S    
C28   C36   1.429224 A    
C38   H14   1.074218 S    
C15   C31   1.411851 A    
O16   C8    1.341781 A    
C16   C32   1.412399 A    
C24   H7    1.077022 S    
O2    C6    1.338834 A    
C10   C22   1.391990 A    
C11   C19   1.391211 A    
C3    C10   1.456912 S    
O5    C1    1.327938 A    
O4    V1    1.986067 S    
O9    V1    1.993111 S    
C13   C29   1.411844 A    
C34   C37   1.414511 A    
O7    C3    1.327949 A    
O15   V3    2.003266 S    
C35   C36   1.420647 A    
O8    C4    1.326740 A    
O12   V4    1.993109 S    
O19   V2    1.773041 S    
C16   H12   1.079188 S    
O5    V1    2.011470 S    
N1    O22   1.301376 A    
C39   C43   1.396182 A    
C41   N1    1.443473 S    
C38   C42   1.396407 A    
O8    V4    2.011427 S    
O7    V3    2.011429 S    
C1    C12   1.456885 S    
N2    O24   1.301383 A    
C2    C11   1.457602 S    
N4    O27   1.300641 A    
C23   C27   1.414619 A    
C32   C44   1.410991 A    
O1    V4    1.986034 S    
O13   C5    1.341791 A    
O2    V3    1.986031 S    
C26   C34   1.429232 A    
O3    V2    1.986064 S    
O15   C7    1.341787 A    
C47   C48   1.234663 T    
C4    C9    1.457619 S    
O6    C2    1.326734 A    
O10   V2    1.993111 S    
C31   C43   1.410333 A    
N3    O25   1.300680 A    
C14   C30   1.412392 A    
C21   C25   1.414579 A    
C14   H10   1.079261 S    
C13   H9    1.079442 S    
C21   H6    1.077142 S    
C15   H11   1.079511 S    
O14   V2    2.003282 S    
O6    V2    2.011471 S    
C16   C20   1.390433 A    
C12   C20   1.390577 A    
C27   C35   1.429301 A    
C29   C41   1.410357 A    
O16   V4    2.003266 S    
C5    C47   1.483917 S    
N3    O26   1.301351 A    
O14   C6    1.341782 A    
O18   V3    1.773081 S    
C37   H13   1.074136 S    
N2    O23   1.300552 A    
C15   C19   1.390250 A    
C30   C42   1.410906 A    
C42   N2    1.443728 S    
C22   C26   1.414483 A    
C9    C17   1.391178 A    
C40   H16   1.074180 S    
O13   V1    2.003282 S    
C8    C46   1.483930 S    
C33   C34   1.420641 A    
O17   V4    1.773080 S    
C25   C29   1.425964 A    
C12   C24   1.391957 A    
C27   C31   1.426025 A    
C18   H1    1.083560 S    
C13   C17   1.390269 A    
O11   V3    1.993109 S    
C37   C41   1.396232 A    
C24   C28   1.414486 A    
O12   C1    1.324296 A    
C28   C32   1.426390 A    
C17   H2    1.083560 S    
