data_mof_unit_5210.cif
_audit_creation_date              2012-12-10T19:09:02-0500
_audit_creation_method            fapswitch 2.2
_symmetry_space_group_name_H-M    P1
_symmetry_Int_Tables_number       1
_space_group_crystal_system       triclinic
_cell_length_a                    17.699689
_cell_length_b                    10.833738
_cell_length_c                    9.549104
_cell_angle_alpha                 90.177186
_cell_angle_beta                  89.873061
_cell_angle_gamma                 90.537565
_cell_volume                      1830.98319057

loop_
_atom_site_label
_atom_site_type_symbol
_atom_type_description
_atom_site_fract_x
_atom_site_fract_y
_atom_site_fract_z
_atom_type_partial_charge
C1    C     C_R   0.498222 0.262381 0.499645 0.798977
C2    C     C_R   0.885898 0.498914 0.497562 0.151128
C3    C     C_1   0.966620 0.501232 0.496749 -0.069286
C4    C     C_1   0.034381 0.503612 0.496380 -0.058262
C5    C     C_R   0.153405 0.583489 0.591208 -0.145262
C6    C     C_R   0.232989 0.587158 0.594151 0.128738
C7    C     C_R   0.272986 0.508597 0.500858 -0.084874
C8    C     C_R   0.233504 0.434150 0.404741 -0.225223
C9    C     C_R   0.155003 0.433018 0.402914 -0.159040
C10   C     C_R   0.115129 0.506718 0.496708 0.095729
C11   C     C_R   0.466761 0.063391 0.614179 0.055055
C12   C     C_R   0.355788 0.503093 0.500338 0.776328
C13   C     C_R   0.491119 0.129246 0.496722 -0.111985
C14   C     C_R   0.506023 0.064244 0.372283 -0.209332
C15   C     C_R   0.506594 0.935723 0.372304 -0.210023
C16   C     C_R   0.493590 0.870856 0.497503 -0.085204
C17   C     C_R   0.469488 0.936279 0.615142 0.077340
C18   C     C_3   0.495517 0.932826 0.763663 -0.479089
C19   C     C_3   0.489878 0.073225 0.764267 -0.033610
C20   C     C_R   0.564508 0.526856 0.073613 0.254887
C21   C     C_R   0.438124 0.462784 0.074384 -0.073414
C22   C     C_R   0.437983 0.463520 0.925863 -0.091672
C23   C     C_R   0.499437 0.737706 0.499919 0.795420
C24   C     C_R   0.564649 0.526203 0.926170 0.259295
C25   C     C_3   0.609045 0.643582 0.920791 -0.509243
C26   C     C_3   0.608582 0.644580 0.079535 -0.501161
C27   C     C_R   0.644533 0.499290 0.499779 0.788198
C28   C     C_R   0.846817 0.498179 0.624874 -0.160609
C29   C     C_R   0.768042 0.497439 0.625806 -0.200125
C30   C     C_R   0.727698 0.497988 0.499144 -0.033178
C31   C     C_R   0.767655 0.497225 0.371692 -0.198904
C32   C     C_R   0.846409 0.497951 0.371051 -0.160186
Cu1   Cu    Cu3+1 0.500000 0.499980 0.640670 0.926253
Cu2   Cu    Cu3+1 0.500000 0.500020 0.359330 0.936580
H1    H     H_    0.877207 0.498401 0.723267 0.127782
H2    H     H_    0.521544 0.888110 0.276487 0.153657
H3    H     H_    0.454539 0.884058 0.833040 0.202661
H4    H     H_    0.554934 0.901924 0.772024 0.174048
H5    H     H_    0.545144 0.121620 0.778025 0.170071
H6    H     H_    0.387680 0.433475 0.129355 0.141851
H7    H     H_    0.387259 0.435603 0.871167 0.134188
H8    H     H_    0.666283 0.630796 0.875556 0.188255
H9    H     H_    0.576309 0.719747 0.874678 0.213117
H10   H     H_    0.665596 0.632256 0.125352 0.188430
H11   H     H_    0.738906 0.496340 0.725506 0.141826
H12   H     H_    0.575689 0.721951 0.124852 0.209363
H13   H     H_    0.738228 0.495966 0.272513 0.142136
H14   H     H_    0.876464 0.497989 0.272058 0.128063
H15   H     H_    0.120311 0.639599 0.661814 0.144406
H16   H     H_    0.263639 0.374981 0.332402 0.143103
H17   H     H_    0.125380 0.373893 0.329111 0.137053
H18   H     H_    0.521817 0.112251 0.277323 0.169438
N1    N     N_R   0.500470 0.500930 0.147930 -0.184596
N2    N     N_R   0.500480 0.500890 0.852020 -0.182613
O1    O     O_R   0.500000 0.319640 0.618810 -0.585857
O2    O     O_R   0.500010 0.319680 0.381230 -0.580242
O3    O     O_R   0.391250 0.499990 0.618840 -0.598467
O4    O     O_R   0.391260 0.500020 0.381250 -0.579461
O5    O     O_R   0.499990 0.680320 0.618770 -0.578235
O6    O     O_R   0.500000 0.680360 0.381190 -0.580203
O7    O     O_R   0.608740 0.499980 0.618750 -0.580931
O8    O     O_R   0.608750 0.500010 0.381160 -0.581685
C33   C     C_3   0.425841 0.123473 0.856582 -0.347222
C34   C     C_3   0.449234 0.128289 0.009999 -0.853037
H19   H     H_    0.462261 0.034144 0.048180 0.253854
H20   H     H_    0.499750 0.188838 0.023126 0.249704
H21   H     H_    0.402408 0.166252 0.074066 0.240087
H22   H     H_    0.411857 0.218110 0.821860 0.213032
H23   H     H_    0.373833 0.065724 0.845892 0.202825
C35   C     C_3   0.275872 0.674272 0.692432 -0.370941
C36   C     C_3   0.229134 0.776134 0.760931 -0.880344
H24   H     H_    0.198859 0.830053 0.680141 0.257199
H25   H     H_    0.188250 0.736232 0.837086 0.249671
H26   H     H_    0.267353 0.839995 0.818991 0.244962
H27   H     H_    0.302332 0.619387 0.776895 0.215842
H28   H     H_    0.321661 0.721082 0.632197 0.202961

loop_
_geom_bond_atom_site_label_1
_geom_bond_atom_site_label_2
_ccdc_geom_bond_type
Cu1   O1    S    
Cu2   O2    S    
C9    H17   S    
C25   H9    S    
C26   H10   S    
C7    C8    A    
C22   N2    A    
C23   O5    A    
C11   C19   S    
C28   C29   A    
C18   H3    S    
C5    C6    A    
C22   H7    S    
C24   N2    A    
C15   C16   A    
Cu2   O8    S    
C2    C32   A    
C18   C19   S    
C27   O7    A    
C14   H18   S    
C33   H23   S    
C28   H1    S    
C19   C33   S    
C8    C9    A    
C35   C36   S    
C9    C10   A    
C12   O4    A    
Cu1   O5    S    
C31   H13   S    
C21   C22   A    
C27   C30   S    
Cu2   O6    S    
C32   H14   S    
C5    H15   S    
C7    C12   S    
Cu1   Cu2   S    
C23   O6    A    
C34   H21   S    
C20   C24   A    
C24   C25   S    
C36   H25   S    
C16   C17   A    
C25   C26   S    
C29   H11   S    
C34   H20   S    
C29   C30   A    
C27   O8    A    
C31   C32   A    
C17   C18   S    
C19   H5    S    
C12   O3    A    
C16   C23   S    
C35   H28   S    
C1    C13   S    
C4    C10   S    
C3    C4    T    
C8    H16   S    
C15   H2    S    
Cu1   N2    S    
C6    C35   S    
C33   H22   S    
C11   C17   A    
Cu1   O3    S    
C1    O2    A    
C20   N1    A    
C25   H8    S    
C36   H26   S    
C6    C7    A    
C34   H19   S    
C2    C3    S    
C1    O1    A    
C5    C10   A    
C21   N1    A    
C11   C13   A    
C30   C31   A    
C21   H6    S    
C20   C26   S    
C18   H4    S    
C26   H12   S    
C33   C34   S    
C36   H24   S    
Cu2   N1    S    
Cu1   O7    S    
C35   H27   S    
Cu2   O4    S    
C14   C15   A    
C2    C28   A    
C13   C14   A    
