data_mof_unit_29773.cif
_audit_creation_date              2012-12-10T19:03:38-0500
_audit_creation_method            fapswitch 2.2
_symmetry_space_group_name_H-M    P1
_symmetry_Int_Tables_number       1
_space_group_crystal_system       triclinic
_cell_length_a                    15.875176
_cell_length_b                    10.815847
_cell_length_c                    9.526119
_cell_angle_alpha                 89.800778
_cell_angle_beta                  89.831109
_cell_angle_gamma                 89.434588
_cell_volume                      1635.57126086

loop_
_atom_site_label
_atom_site_type_symbol
_atom_type_description
_atom_site_fract_x
_atom_site_fract_y
_atom_site_fract_z
_atom_type_partial_charge
C1    C     C_R   0.501665 0.262237 0.500100 0.818514
C2    C     C_3   0.951780 0.366985 0.490248 -0.382727
C3    C     C_3   0.917034 0.500921 0.502455 0.316154
C4    C     C_3   0.949328 0.557354 0.641371 -0.445554
C5    C     C_3   0.047439 0.559082 0.642560 -0.110235
C6    C     C_1   0.824931 0.500806 0.500816 -0.105082
C7    C     C_1   0.174971 0.500109 0.502190 -0.081759
C8    C     C_1   0.250520 0.499971 0.500938 -0.153077
C9    C     C_R   0.533354 0.061966 0.617639 -0.024189
C10   C     C_R   0.509632 0.129034 0.498095 -0.035230
C11   C     C_R   0.498412 0.064868 0.371335 -0.222531
C12   C     C_R   0.340167 0.499940 0.500253 0.835780
C13   C     C_R   0.498253 0.936163 0.370904 -0.185807
C14   C     C_R   0.509391 0.870446 0.497201 -0.088744
C15   C     C_R   0.533568 0.934968 0.616844 -0.097690
C16   C     C_3   0.504836 0.927566 0.767816 0.215560
C17   C     C_3   0.508108 0.068981 0.769087 0.248450
C18   C     C_R   0.541398 0.410790 0.073840 0.232506
C19   C     C_R   0.452938 0.585017 0.074390 -0.057351
C20   C     C_R   0.452915 0.584963 0.925319 -0.037061
C21   C     C_R   0.541508 0.410897 0.926385 0.267454
C22   C     C_3   0.633469 0.381884 0.920327 -0.512614
C23   C     C_R   0.501294 0.737660 0.499634 0.783751
C24   C     C_3   0.633283 0.381344 0.079545 -0.504177
C25   C     C_R   0.659813 0.500085 0.499836 0.817926
C26   C     C_3   0.049321 0.366747 0.487995 -0.393756
C27   C     C_3   0.048839 0.577918 0.378827 -0.393464
C28   C     C_3   0.951254 0.578167 0.377829 -0.374020
C29   C     C_1   0.749411 0.500502 0.499887 -0.200394
C30   C     C_3   0.082665 0.500357 0.504268 0.241511
Cu1   Cu    Cu3+1 0.500000 0.499980 0.640670 0.952499
Cu2   Cu    Cu3+1 0.500000 0.500020 0.359330 0.930684
H1    H     H_    0.928020 0.323266 0.392635 0.165792
H2    H     H_    0.073984 0.305778 0.572912 0.153004
H3    H     H_    0.929301 0.310394 0.580445 0.158358
H4    H     H_    0.924660 0.653552 0.652607 0.164794
H5    H     H_    0.484951 0.113368 0.274125 0.155132
H6    H     H_    0.484651 0.889014 0.273529 0.164304
H7    H     H_    0.439891 0.890749 0.777646 0.128325
H8    H     H_    0.559859 0.108888 0.832878 0.077948
H9    H     H_    0.416066 0.653653 0.130300 0.141162
H10   H     H_    0.072058 0.326860 0.387013 0.174820
H11   H     H_    0.416002 0.653518 0.869198 0.146659
H12   H     H_    0.646684 0.289500 0.874267 0.183146
H13   H     H_    0.671092 0.458435 0.875078 0.225680
H14   H     H_    0.645826 0.288379 0.125486 0.192002
H15   H     H_    0.671050 0.457452 0.124677 0.222773
H16   H     H_    0.071655 0.674681 0.385931 0.163115
H17   H     H_    0.072933 0.539251 0.278075 0.188751
H18   H     H_    0.928620 0.539347 0.276805 0.168994
H19   H     H_    0.927248 0.675010 0.384686 0.162273
H20   H     H_    0.067513 0.657549 0.645513 0.157022
H21   H     H_    0.923923 0.503700 0.731870 0.160501
N1    N     N_R   0.500530 0.500930 0.147930 -0.191688
N2    N     N_R   0.500530 0.500890 0.852020 -0.193910
O1    O     O_R   0.500000 0.319640 0.618810 -0.548774
O2    O     O_R   0.500010 0.319680 0.381230 -0.602773
O3    O     O_R   0.379430 0.499990 0.618840 -0.568609
O4    O     O_R   0.379440 0.500030 0.381260 -0.580170
O5    O     O_R   0.499990 0.680320 0.618770 -0.590339
O6    O     O_R   0.500000 0.680360 0.381190 -0.584897
O7    O     O_R   0.620560 0.499970 0.618740 -0.589554
O8    O     O_R   0.620570 0.500010 0.381160 -0.575187
O9    O     O_3   0.559686 0.875003 0.871024 -0.631117
C31   C     C_3   0.637835 0.831736 0.817983 0.084874
H22   H     H_    0.675995 0.910991 0.780074 0.126774
H23   H     H_    0.628706 0.764700 0.731501 0.178463
C32   C     C_3   0.685473 0.764958 0.935458 -0.313363
H24   H     H_    0.697365 0.830544 0.022601 0.218484
H25   H     H_    0.646353 0.688142 0.976705 0.230783
C33   C     C_3   0.769361 0.712156 0.883092 -0.966762
H26   H     H_    0.758893 0.645539 0.796519 0.261597
H27   H     H_    0.801844 0.662988 0.970314 0.258905
H28   H     H_    0.810497 0.787678 0.844797 0.256624
O10   O     O_3   0.428144 0.125508 0.786494 -0.597418
C34   C     C_3   0.410392 0.138008 0.931271 0.057976
H29   H     H_    0.464850 0.176182 0.989989 0.122687
H30   H     H_    0.394096 0.046306 0.976662 0.143378
C35   C     C_3   0.335763 0.226779 0.950042 -0.310956
H31   H     H_    0.350446 0.316787 0.899264 0.240656
H32   H     H_    0.279287 0.187877 0.898287 0.219874
C36   C     C_3   0.316432 0.248762 0.105132 -0.915367
H33   H     H_    0.300963 0.160180 0.158158 0.249527
H34   H     H_    0.261691 0.312860 0.115171 0.266491
H35   H     H_    0.371380 0.290887 0.157943 0.272010
C37   C     C_2   0.081248 0.495961 0.772941 0.349317
H36   H     H_    0.065121 0.400786 0.796085 0.068746
O11   O     O_2   0.126430 0.551773 0.854022 -0.556163

loop_
_geom_bond_atom_site_label_1
_geom_bond_atom_site_label_2
_ccdc_geom_bond_type
C2    H3    S    
C27   H16   S    
C4    H4    S    
C4    H21   S    
C18   C21   A    
C19   C20   A    
C34   C35   S    
C3    C6    S    
C7    C8    T    
C18   C24   S    
Cu1   O3    S    
C3    C28   S    
C1    O1    A    
C34   H30   S    
Cu2   O6    S    
C28   H19   S    
C37   O11   D    
C15   C16   S    
C25   O8    A    
C11   H5    S    
C12   O4    A    
C28   H18   S    
C26   H2    S    
C22   H12   S    
C16   C17   S    
C31   H23   S    
C5    H20   S    
Cu1   O1    S    
C9    C10   A    
C12   O3    A    
C7    C30   S    
C21   C22   S    
C27   C30   S    
Cu1   O7    S    
Cu2   O2    S    
C20   N2    A    
Cu2   N1    S    
C25   C29   S    
C23   O5    A    
C34   H29   S    
C21   N2    A    
C37   H36   S    
C32   H24   S    
C17   H8    S    
C14   C23   S    
O10   C34   S    
C1    O2    A    
C33   H28   S    
Cu1   Cu2   S    
C8    C12   S    
C31   C32   S    
C6    C29   T    
C2    C26   S    
C13   H6    S    
C5    C37   S    
C19   N1    A    
C9    C17   S    
C26   C30   S    
C36   H34   S    
C22   C24   S    
C3    C4    S    
C20   H11   S    
C26   H10   S    
C35   H32   S    
C5    C30   S    
C24   H15   S    
C1    C10   S    
Cu2   O8    S    
C4    C5    S    
C35   C36   S    
C36   H35   S    
Cu2   O4    S    
C24   H14   S    
O9    C31   S    
C2    C3    S    
C9    C15   A    
C33   H26   S    
C11   C13   A    
C32   C33   S    
C25   O7    A    
C31   H22   S    
C10   C11   A    
C18   N1    A    
C16   H7    S    
C35   H31   S    
C19   H9    S    
C23   O6    A    
C22   H13   S    
C32   H25   S    
C36   H33   S    
C33   H27   S    
C27   C28   S    
C17   O10   S    
C14   C15   A    
C16   O9    S    
Cu1   O5    S    
Cu1   N2    S    
C13   C14   A    
C27   H17   S    
C2    H1    S    
