data_mof_unit_67298.cif
_audit_creation_date              2013-03-05T16:02:16-0500
_audit_creation_method            fapswitch 2.2
_symmetry_space_group_name_H-M    P1
_symmetry_Int_Tables_number       1
_space_group_crystal_system       triclinic
_cell_length_a                    8.699623
_cell_length_b                    14.740644
_cell_length_c                    15.425668
_cell_angle_alpha                 95.776559
_cell_angle_beta                  99.193023
_cell_angle_gamma                 92.259825
_cell_volume                      1939.72768662

loop_
_atom_site_label
_atom_site_type_symbol
_atom_site_description
_atom_site_fract_x
_atom_site_fract_y
_atom_site_fract_z
_atom_type_partial_charge
P1    P     P_3+3 0.018600 0.416790 0.295970 0.503650
O1    O     O_2   0.841230 0.444160 0.280430 -0.347707
O2    O     O_3   0.112860 0.447350 0.393710 -0.370440
O3    O     O_3   0.597940 0.615700 0.327690 -0.317855
O4    O     O_2   0.653783 0.555561 0.182538 -0.331827
O5    O     O_3   0.990098 0.299053 0.266810 -0.576295
O6    O     O_3   0.651870 0.728823 0.211236 -0.471197
C1    C     C_3   0.599750 0.860959 0.135084 0.413638
H1    H     H_    0.720138 0.889049 0.147333 0.120092
P2    P     P_3+3 0.635660 0.716530 0.560900 0.505742
P3    P     P_3+3 0.058219 0.780359 0.371379 0.600989
O7    O     O_2   0.802240 0.729740 0.532850 -0.311254
O8    O     O_3   0.017180 0.664790 0.371080 -0.355687
O9    O     O_2   0.955193 0.820454 0.436818 -0.291699
O10   O     O_3   0.686106 0.741853 0.674156 -0.535058
O11   O     O_3   0.971167 0.814039 0.267323 -0.465413
C2    C     C_3   0.036026 0.775312 0.194192 0.362886
H2    H     H_    0.139706 0.738453 0.216176 0.056530
C3    C     C_3   0.067551 0.846872 0.130000 0.757976
C4    C     C_3   0.265474 0.751077 0.681473 0.223054
H3    H     H_    0.387978 0.740000 0.707430 0.105362
H4    H     H_    0.240689 0.732558 0.608843 -0.005245
C5    C     C_3   0.228807 0.850555 0.703899 0.397337
H5    H     H_    0.112089 0.859967 0.667284 0.135729
Ba1   Ba    Ba6+2 0.833400 0.543310 0.453520 1.680035
C6    C     C_3   0.922593 0.256585 0.328945 0.628951
H6    H     H_    0.826288 0.294709 0.351345 0.078106
C7    C     C_3   0.864511 0.159968 0.290147 0.092695
H7    H     H_    0.802334 0.126423 0.336751 0.095805
H8    H     H_    0.963401 0.118457 0.276323 0.209114
C8    C     C_3   0.685550 0.664903 0.718726 0.138964
H9    H     H_    0.777489 0.620107 0.701154 0.059844
H10   H     H_    0.572966 0.626797 0.701355 0.130165
C9    C     C_3   0.713050 0.697578 0.817109 0.242874
H11   H     H_    0.677006 0.643872 0.856180 0.102548
P4    P     P_3+3 0.171090 0.583290 0.704030 0.555986
O12   O     O_2   0.348480 0.555870 0.719620 -0.372785
O13   O     O_3   0.076830 0.552730 0.606300 -0.388827
O14   O     O_3   0.591760 0.384380 0.672320 -0.341913
O15   O     O_3   0.165549 0.701303 0.722816 -0.495677
P5    P     P_3+3 0.144252 0.214994 0.615434 0.663368
O16   O     O_3   0.629090 0.386350 0.459240 -0.399720
O17   O     O_3   0.172520 0.335290 0.628920 -0.340550
O18   O     O_2   0.264162 0.174282 0.560812 -0.249527
O19   O     O_3   0.205298 0.173482 0.716863 -0.503044
Ba2   Ba    Ba6+2 0.356420 0.456770 0.546480 1.675738
P6    P     P_3+3 0.544552 0.625261 0.217605 0.563152
C10   C     C_3   0.582553 0.814344 0.218083 0.724444
O20   O     O_3   0.560610 0.613730 0.540770 -0.426517
C11   C     C_3   0.414447 0.307036 0.277940 0.625595
H12   H     H_    0.371049 0.360814 0.322412 0.043107
C12   C     C_3   0.281445 0.245146 0.224380 -0.665875
H13   H     H_    0.218916 0.208731 0.268627 0.269380
H14   H     H_    0.199862 0.285843 0.183692 0.215066
H15   H     H_    0.326297 0.193672 0.178339 0.297447
P7    P     P_3+3 0.553149 0.272133 0.435810 0.495618
O21   O     O_2   0.387460 0.270290 0.467210 -0.290842
O22   O     O_3   0.527960 0.253989 0.320205 -0.551457
C13   C     C_3   0.187928 0.238389 0.787132 0.682667
H16   H     H_    0.281221 0.293727 0.795706 0.131375
C14   C     C_3   0.199133 0.189942 0.869920 -0.166006
H17   H     H_    0.308042 0.155137 0.880489 0.244159
H18   H     H_    0.102792 0.136841 0.861963 0.197609
P8    P     P_3+3 0.643486 0.399059 0.789155 0.494432
C15   C     C_3   0.708559 0.241008 0.848870 0.078520
H19   H     H_    0.813935 0.280687 0.883838 0.105883
O23   O     O_2   0.525949 0.466012 0.819873 -0.378798
O24   O     O_3   0.582953 0.297816 0.830102 -0.495500
H20   H     H_    0.731354 0.204175 0.786192 0.153352
C16   C     C_3   0.672703 0.170703 0.911077 0.750560
C17   C     C_R   0.844509 0.453862 0.835528 0.201290
C18   C     C_R   0.911534 0.460225 0.927261 0.023498
C19   C     C_R   0.048279 0.466415 0.112875 -0.016510
C20   C     C_R   0.899664 0.424999 0.079503 -0.014935
C21   C     C_R   0.830055 0.427155 0.991001 -0.170834
C22   C     C_R   0.110799 0.476573 0.206791 0.190480
H21   H     H_    0.831886 0.394023 0.122376 0.210163
H22   H     H_    0.710602 0.400749 0.972761 0.204421
C23   C     C_R   0.252605 0.531149 0.234027 -0.437717
C24   C     C_R   0.083618 0.528517 0.798305 0.311231
C25   C     C_R   0.150658 0.535468 0.892961 -0.165303
C26   C     C_R   0.065407 0.498917 0.956234 0.046267
C27   C     C_R   0.296725 0.579955 0.929625 0.537406
C28   C     C_R   0.363233 0.579570 0.018353 -0.183738
C29   C     C_R   0.279385 0.550623 0.081172 -0.081195
C30   C     C_R   0.131240 0.505154 0.050296 0.084368
C31   C     C_R   0.338977 0.568999 0.173608 0.229113
C32   C     C_R   0.932485 0.486422 0.774201 -0.405364
H23   H     H_    0.479065 0.610230 0.039203 0.225189
H24   H     H_    0.301192 0.540522 0.303595 0.157229
H25   H     H_    0.880685 0.478825 0.705101 0.154616
C33   C     C_R   0.701917 0.948474 0.554322 0.348098
C34   C     C_R   0.515324 0.804988 0.506280 0.267747
C35   C     C_R   0.368344 0.770586 0.459856 -0.493398
C36   C     C_R   0.257768 0.827526 0.422364 0.168631
C37   C     C_R   0.295661 0.921181 0.426913 0.529477
C38   C     C_R   0.449769 0.957350 0.461780 -0.151205
C39   C     C_R   0.558803 0.901981 0.508712 -0.149397
H26   H     H_    0.335917 0.698489 0.456302 0.166283
C40   C     C_R   0.637458 0.092381 0.491838 -0.166987
C41   C     C_R   0.746381 0.038211 0.537378 -0.152094
C42   C     C_R   0.678990 0.188320 0.491684 0.195753
C43   C     C_R   0.824668 0.224837 0.537739 -0.456525
C44   C     C_R   0.940369 0.167887 0.569226 0.264804
C45   C     C_R   0.901604 0.074609 0.564380 0.410807
C46   C     C_R   0.496541 0.047139 0.446967 0.366771
H27   H     H_    0.853797 0.297388 0.541822 0.191493
I1    I     I_    0.709349 0.903637 0.322868 -0.178328
Cl1   Cl    Cl    0.225511 0.880038 0.818628 -0.362569
I2    I     I_    0.387895 0.947104 0.673442 -0.177524
Cl2   Cl    Cl    0.070537 0.246872 0.416009 -0.641107
Cl3   Cl    Cl    0.737515 0.162632 0.189241 -0.456394
I3    I     I_    0.947108 0.725756 0.858701 -0.128157
I4    I     I_    0.626680 0.829425 0.848345 0.091934
Cl4   Cl    Cl    0.401253 0.812867 0.250789 -0.773822
I5    I     I_    0.486816 0.980569 0.096015 0.103900
I6    I     I_    0.517689 0.365659 0.181315 -0.197825
Cl5   Cl    Cl    0.584688 0.779803 0.042414 -0.497696
I7    I     I_    0.215473 0.792730 0.046736 -0.104798
Cl6   Cl    Cl    0.003052 0.285670 0.771518 -0.806544
I8    I     I_    0.199741 0.282770 0.984444 -0.308360
I9    I     I_    0.872811 0.109687 0.973156 -0.026983
Cl7   Cl    Cl    0.553959 0.077981 0.853015 -0.506412
I10   I     I_    0.900909 0.664749 0.117196 -0.236317
Cl8   Cl    Cl    0.582178 0.221492 0.996941 -0.517630
Cl9   Cl    Cl    0.384599 0.661433 0.878839 -0.551779
Cl10  Cl    Cl    0.143638 0.993854 0.393939 -0.502138
Cl11  Cl    Cl    0.052883 0.001362 0.575805 -0.580610
I11   I     I_    0.805783 0.926700 0.685300 -0.133790
I12   I     I_    0.432524 0.068401 0.314486 -0.166084
Cl12  Cl    Cl    0.914186 0.874123 0.049209 -0.471938
Cl13  Cl    Cl    0.137720 0.953997 0.184945 -0.471793

loop_
_geom_bond_atom_site_label_1
_geom_bond_atom_site_label_2
_geom_bond_distance
_ccdc_geom_bond_type
C34   C35   1.410021 A    
C11   I6    2.097825 S    
C19   C20   1.403963 A    
C36   C37   1.398813 A    
C22   C23   1.426081 A    
C23   C31   1.428250 A    
O3    Ba1   2.901908 S    
C33   C39   1.438934 A    
O5    C6    1.388199 S    
C29   C30   1.417240 A    
C7    Cl3   1.763861 S    
C9    I3    2.047573 S    
O14   P8    1.775421 S    
O4    P6    1.542909 D    
Ba2   O20   2.878078 S    
C6    H6    1.108019 S    
C13   Cl6   1.768890 S    
P8    O24   1.771325 S    
C7    H7    1.108434 S    
C9    H11   1.106877 S    
P2    O10   1.730592 S    
C4    O15   1.386284 S    
P3    O9    1.543502 D    
P5    O18   1.544909 D    
C15   C16   1.537024 S    
P7    O21   1.592398 D    
C14   I8    2.122058 S    
P1    O1    1.597379 D    
O16   Ba2   3.073839 S    
P8    C17   1.896109 S    
C14   H18   1.107377 S    
C23   H24   1.081654 S    
O16   P7    1.764993 S    
C16   Cl7   1.756140 S    
C27   C28   1.398878 A    
C1    H1    1.091271 S    
C20   H21   1.075959 S    
C2    H2    1.096261 S    
C11   C12   1.520946 S    
C5    H5    1.101342 S    
C8    H10   1.090446 S    
P4    Ba2   3.544133 S    
C12   H15   1.111671 S    
C3    I7    2.084572 S    
C13   H16   1.110585 S    
P1    Ba1   3.543473 S    
P5    O17   1.767239 S    
O8    Ba1   2.874416 S    
C14   H17   1.092386 S    
C18   C21   1.413773 A    
C44   C45   1.394482 A    
C25   C27   1.412316 A    
C12   H14   1.106611 S    
C38   C39   1.431984 A    
C29   C31   1.431877 A    
C3    Cl12  1.762501 S    
C5    Cl1   1.784426 S    
C13   C14   1.516471 S    
C41   C45   1.415285 A    
C20   C21   1.406275 A    
C1    Cl5   1.753643 S    
P1    O5    1.746174 S    
C11   O22   1.403386 S    
P8    O23   1.544151 D    
O2    Ba1   3.080255 S    
C28   C29   1.392023 A    
P4    C24   1.971627 S    
O11   C2    1.419863 S    
P2    C34   1.884954 S    
C21   H22   1.078537 S    
C26   C30   1.464673 A    
C4    C5    1.530255 S    
C25   C26   1.448662 A    
C37   Cl10  1.778175 S    
P1    O2    1.608619 S    
O6    P6    1.777312 S    
C1    C10   1.537508 S    
Ba1   O13   2.893881 S    
P3    O11   1.788319 S    
C16   I9    2.126210 S    
C2    I10   2.112280 S    
C8    H9    1.106407 S    
C32   H25   1.081804 S    
P4    O15   1.738406 S    
C15   O24   1.413838 S    
C37   C38   1.423540 A    
C40   C42   1.446094 A    
C11   H12   1.112853 S    
C8    C9    1.523207 S    
C35   C36   1.395694 A    
P2    O7    1.587555 D    
C33   C41   1.424526 A    
C10   Cl4   1.731027 S    
C38   C46   1.420445 A    
C16   Cl8   1.765001 S    
C4    H4    1.110332 S    
O14   Ba2   2.901357 S    
Ba2   O21   2.934563 S    
C19   C22   1.454356 A    
C28   H23   1.074441 S    
C27   Cl9   1.717275 S    
C12   H13   1.104209 S    
P2    Ba1   3.553617 S    
P3    C36   1.863902 S    
C3    Cl13  1.753226 S    
C46   I12   2.088962 S    
C5    I2    2.085356 S    
O19   C13   1.402896 S    
C45   Cl11  1.733526 S    
P1    C22   1.962962 S    
C6    C7    1.522134 S    
C24   C25   1.475023 A    
Ba1   O16   2.878727 S    
O10   C8    1.384526 S    
C9    I4    2.148561 S    
O2    Ba2   2.894453 S    
C40   C46   1.413581 A    
P5    C44   1.880308 S    
O7    Ba1   2.934419 S    
O6    C10   1.420392 S    
C34   C39   1.459681 A    
C7    H8    1.110805 S    
C33   I11   2.138153 S    
P7    C42   1.867418 S    
C17   C18   1.434041 A    
C24   C32   1.408895 A    
P3    O8    1.726129 S    
C10   I1    2.109375 S    
C35   H26   1.082460 S    
C15   H20   1.110413 S    
Ba1   Ba2   4.770151 S    
P4    O13   1.608490 S    
C40   C41   1.410284 A    
C2    C3    1.562888 S    
P7    O22   1.753330 S    
O1    Ba1   2.924076 S    
C42   C43   1.407894 A    
O17   Ba2   2.875044 S    
Ba1   O20   3.074812 S    
C19   C30   1.442185 A    
O13   Ba2   3.081282 S    
C1    I5    2.144395 S    
C17   C32   1.415917 A    
C4    H3    1.101506 S    
P4    O12   1.597787 D    
C15   H19   1.099838 S    
C43   C44   1.395098 A    
P5    O19   1.748522 S    
C43   H27   1.082532 S    
O12   Ba2   2.924621 S    
P2    O20   1.606684 S    
C6    Cl2   1.726738 S    
C18   C26   1.419256 A    
P6    C31   1.931003 S    
O3    P6    1.708968 S    
