data_mof_unit_11848.cif
_audit_creation_date              2012-12-11T15:26:00-0500
_audit_creation_method            fapswitch 2.2
_symmetry_space_group_name_H-M    P1
_symmetry_Int_Tables_number       1
_space_group_crystal_system       triclinic
_cell_length_a                    24.444448
_cell_length_b                    17.06087
_cell_length_c                    15.613154
_cell_angle_alpha                 90.037669
_cell_angle_beta                  51.193262
_cell_angle_gamma                 90.065056
_cell_volume                      5074.07094296

loop_
_atom_site_label
_atom_site_type_symbol
_atom_type_description
_atom_site_fract_x
_atom_site_fract_y
_atom_site_fract_z
_atom_type_partial_charge
Br1   Br    Br    0.532340 0.108724 0.134550 -0.521450
Br2   Br    Br    0.462406 0.894373 0.871954 -0.507459
Br3   Br    Br    0.467664 0.109216 0.865456 -0.522827
Br4   Br    Br    0.537528 0.893314 0.128319 -0.512674
Br5   Br    Br    0.032341 0.608723 0.134550 -0.521449
Br6   Br    Br    0.962406 0.394373 0.871954 -0.507459
Br7   Br    Br    0.967664 0.609216 0.865456 -0.522827
Br8   Br    Br    0.037528 0.393314 0.128319 -0.512674
C1    C     C_R   0.336077 0.117639 0.791955 0.016339
C2    C     C_2   0.330666 0.778536 0.910339 -0.157926
C3    C     C_2   0.312462 0.179717 0.960456 -0.091707
C4    C     C_2   0.668715 0.777477 0.090772 -0.162831
C5    C     C_2   0.187574 0.679711 0.039493 -0.091176
C6    C     C_2   0.830666 0.278536 0.910339 -0.157926
C7    C     C_2   0.812462 0.679717 0.960456 -0.091706
C8    C     C_2   0.168715 0.277477 0.090772 -0.162831
C9    C     C_2   0.756256 0.165703 0.966972 -0.153485
C10   C     C_2   0.300230 0.726130 0.887892 -0.150238
C11   C     C_2   0.243813 0.165326 0.032910 -0.151966
C12   C     C_R   0.663221 0.881411 0.208203 -0.022068
C13   C     C_2   0.699681 0.725398 0.112466 -0.150948
C14   C     C_2   0.256256 0.665703 0.966972 -0.153485
C15   C     C_2   0.800230 0.226130 0.887892 -0.150238
C16   C     C_2   0.743813 0.665326 0.032910 -0.151966
C17   C     C_2   0.199681 0.225398 0.112466 -0.150949
C18   C     C_R   0.615017 0.101074 0.592369 -0.075939
C19   C     C_R   0.411647 0.854925 0.408270 -0.114276
C20   C     C_R   0.384684 0.100490 0.407867 -0.077411
C21   C     C_R   0.588283 0.855191 0.591963 -0.096869
C22   C     C_R   0.115017 0.601075 0.592369 -0.075939
C23   C     C_R   0.664026 0.117479 0.207853 0.016285
C24   C     C_R   0.911647 0.354925 0.408270 -0.114277
C25   C     C_R   0.884684 0.600490 0.407867 -0.077411
C26   C     C_R   0.088283 0.355191 0.591963 -0.096869
C27   C     C_R   0.689134 0.100414 0.411253 -0.107239
C28   C     C_R   0.339771 0.853604 0.590083 -0.125342
C29   C     C_R   0.310689 0.099312 0.588971 -0.105475
C30   C     C_R   0.661231 0.854271 0.409963 -0.139749
C31   C     C_R   0.189134 0.600414 0.411253 -0.107239
C32   C     C_R   0.839771 0.353604 0.590083 -0.125342
C33   C     C_R   0.810689 0.599312 0.588971 -0.105475
C34   C     C_R   0.336455 0.882209 0.792611 -0.025909
C35   C     C_R   0.161231 0.354271 0.409963 -0.139749
C36   C     C_R   0.575774 0.114957 0.202043 0.322278
C37   C     C_R   0.426352 0.880313 0.793641 0.274785
C38   C     C_R   0.424274 0.115111 0.797884 0.321640
C39   C     C_R   0.573331 0.879656 0.207004 0.265720
C40   C     C_R   0.075774 0.614957 0.202043 0.322278
C41   C     C_R   0.926352 0.380313 0.793641 0.274785
C42   C     C_R   0.924274 0.615111 0.797884 0.321640
C43   C     C_R   0.073331 0.379656 0.207004 0.265720
C44   C     C_R   0.355907 0.140967 0.853686 -0.020158
C45   C     C_R   0.836077 0.617639 0.791955 0.016339
C46   C     C_R   0.639006 0.848054 0.157733 0.052836
C47   C     C_R   0.644206 0.140744 0.146117 -0.020233
C48   C     C_R   0.360380 0.849226 0.843600 0.053172
C49   C     C_R   0.855908 0.640967 0.853686 -0.020158
C50   C     C_R   0.139006 0.348054 0.157733 0.052836
C51   C     C_R   0.144206 0.640744 0.146117 -0.020233
C52   C     C_R   0.860380 0.349226 0.843600 0.053172
C53   C     C_R   0.684096 0.115048 0.503493 0.017494
C54   C     C_R   0.364369 0.808268 0.498348 0.025181
C55   C     C_R   0.315468 0.113333 0.496975 0.016750
C56   C     C_R   0.163221 0.381411 0.208203 -0.022068
C57   C     C_R   0.636750 0.809254 0.501892 0.032850
C58   C     C_R   0.184096 0.615049 0.503493 0.017494
C59   C     C_R   0.864369 0.308268 0.498348 0.025181
C60   C     C_R   0.815468 0.613333 0.496975 0.016750
C61   C     C_R   0.136750 0.309254 0.501892 0.032850
C62   C     C_R   0.190793 0.148328 0.596001 -0.236393
C63   C     C_R   0.721439 0.700743 0.401710 -0.243253
C64   C     C_R   0.809429 0.148081 0.405493 -0.193815
C65   C     C_R   0.278753 0.701003 0.599587 -0.225152
C66   C     C_R   0.690793 0.648328 0.596001 -0.236393
C67   C     C_R   0.164026 0.617479 0.207853 0.016285
C68   C     C_R   0.221439 0.200743 0.401710 -0.243253
C69   C     C_R   0.309429 0.648081 0.405493 -0.193814
C70   C     C_R   0.778753 0.201004 0.599587 -0.225153
C71   C     C_R   0.643270 0.696348 0.599934 0.025450
C72   C     C_R   0.268007 0.150746 0.397358 0.014520
C73   C     C_R   0.358449 0.693026 0.401622 0.033186
C74   C     C_R   0.730889 0.153292 0.604167 0.015652
C75   C     C_R   0.143270 0.196348 0.599934 0.025450
C76   C     C_R   0.768007 0.650746 0.397358 0.014520
C77   C     C_R   0.858449 0.193025 0.401622 0.033186
C78   C     C_R   0.836455 0.382209 0.792611 -0.025909
C79   C     C_R   0.230889 0.653292 0.604167 0.015652
C80   C     C_R   0.664335 0.732504 0.502190 0.128139
C81   C     C_R   0.257267 0.133690 0.495600 0.131424
C82   C     C_R   0.337290 0.730707 0.498849 0.092095
C83   C     C_R   0.742047 0.135810 0.505588 0.110416
C84   C     C_R   0.164335 0.232504 0.502190 0.128139
C85   C     C_R   0.757267 0.633690 0.495600 0.131424
C86   C     C_R   0.837290 0.230707 0.498849 0.092096
C87   C     C_R   0.242047 0.635810 0.505588 0.110416
C88   C     C_2   0.687574 0.179711 0.039493 -0.091176
H1    H     H_    0.594577 0.092070 0.675040 0.180462
H2    H     H_    0.300509 0.836617 0.673836 0.111950
H3    H     H_    0.262745 0.091183 0.671363 0.104067
H4    H     H_    0.701232 0.837603 0.326269 0.114806
H5    H     H_    0.237241 0.592998 0.328852 0.104520
H6    H     H_    0.800509 0.336617 0.673836 0.111950
H7    H     H_    0.762745 0.591183 0.671363 0.104067
H8    H     H_    0.201232 0.337603 0.326269 0.114806
H9    H     H_    0.176685 0.127691 0.672936 0.119186
H10   H     H_    0.733719 0.718673 0.324992 0.119546
H11   H     H_    0.823834 0.126158 0.328853 0.122340
H12   H     H_    0.437151 0.841372 0.324761 0.147612
H13   H     H_    0.266165 0.719332 0.676382 0.117094
H14   H     H_    0.676685 0.627691 0.672936 0.119186
H15   H     H_    0.233719 0.218673 0.324992 0.119546
H16   H     H_    0.323834 0.626159 0.328853 0.122339
H17   H     H_    0.766165 0.219332 0.676382 0.117094
H18   H     H_    0.298212 0.734919 0.820965 0.151196
H19   H     H_    0.781175 0.118149 0.976560 0.141204
H20   H     H_    0.702074 0.734352 0.178997 0.151531
H21   H     H_    0.219022 0.117719 0.022983 0.141480
H22   H     H_    0.798212 0.234919 0.820965 0.151196
H23   H     H_    0.405178 0.092408 0.324975 0.179700
H24   H     H_    0.281175 0.618149 0.976560 0.141204
H25   H     H_    0.202074 0.234352 0.178997 0.151532
H26   H     H_    0.719022 0.617719 0.022983 0.141480
H27   H     H_    0.332958 0.769408 0.976897 0.163819
H28   H     H_    0.663976 0.226704 0.025466 0.156501
H29   H     H_    0.666056 0.768206 0.024602 0.165101
H30   H     H_    0.335958 0.226759 0.974744 0.156486
H31   H     H_    0.832958 0.269408 0.976897 0.163819
H32   H     H_    0.163976 0.726704 0.025466 0.156501
H33   H     H_    0.166056 0.268206 0.024602 0.165101
H34   H     H_    0.561438 0.841234 0.675766 0.162906
H35   H     H_    0.835958 0.726759 0.974744 0.156486
H36   H     H_    0.246598 0.177953 0.855111 0.121088
H37   H     H_    0.236436 0.078616 0.874949 0.083028
H38   H     H_    0.739995 0.938277 0.197562 0.103375
H39   H     H_    0.760743 0.913843 0.077020 0.119226
H40   H     H_    0.753710 0.177541 0.144670 0.120904
H41   H     H_    0.763589 0.078232 0.124309 0.083237
H42   H     H_    0.260104 0.938438 0.801651 0.103062
H43   H     H_    0.239215 0.916033 0.922846 0.119298
H44   H     H_    0.746598 0.677953 0.855111 0.121088
H45   H     H_    0.094577 0.592071 0.675040 0.180461
H46   H     H_    0.736436 0.578616 0.874949 0.083028
H47   H     H_    0.239994 0.438277 0.197562 0.103375
H48   H     H_    0.260743 0.413843 0.077020 0.119226
H49   H     H_    0.253710 0.677541 0.144670 0.120904
H50   H     H_    0.263589 0.578232 0.124309 0.083237
H51   H     H_    0.760104 0.438438 0.801651 0.103062
H52   H     H_    0.739215 0.416033 0.922846 0.119298
H53   H     H_    0.550169 0.654732 0.732986 0.117581
H54   H     H_    0.581842 0.731442 0.758494 0.143566
H55   H     H_    0.306970 0.089009 0.259582 0.151510
H56   H     H_    0.937151 0.341372 0.324761 0.147612
H57   H     H_    0.355524 0.167760 0.240754 0.151829
H58   H     H_    0.464064 0.713276 0.312706 0.111853
H59   H     H_    0.429840 0.736406 0.247587 0.144587
H60   H     H_    0.688121 0.093946 0.745109 0.153398
H61   H     H_    0.643212 0.174901 0.759140 0.149670
H62   H     H_    0.050169 0.154732 0.732986 0.117581
H63   H     H_    0.081842 0.231442 0.758494 0.143566
H64   H     H_    0.806970 0.589009 0.259582 0.151510
H65   H     H_    0.855524 0.667760 0.240754 0.151829
H66   H     H_    0.964064 0.213276 0.312706 0.111853
H67   H     H_    0.905178 0.592408 0.324975 0.179700
H68   H     H_    0.929840 0.236406 0.247587 0.144587
H69   H     H_    0.188121 0.593946 0.745108 0.153398
H70   H     H_    0.143212 0.674900 0.759140 0.149671
H71   H     H_    0.061438 0.341234 0.675766 0.162906
H72   H     H_    0.737241 0.092999 0.328852 0.104520
N1    N     N_R   0.388930 0.078160 0.705470 -0.072280
N2    N     N_R   0.419500 0.922160 0.443350 -0.034374
N3    N     N_R   0.419500 0.077840 0.443350 -0.047868
N4    N     N_R   0.580500 0.922160 0.556650 -0.039540
N5    N     N_R   0.080500 0.577840 0.556650 -0.048396
N6    N     N_R   0.919500 0.422160 0.443350 -0.034374
N7    N     N_R   0.919500 0.577840 0.443350 -0.047868
N8    N     N_R   0.080500 0.422160 0.556650 -0.039540
N9    N     N_R   0.626210 0.077590 0.443410 -0.043818
N10   N     N_R   0.373790 0.922410 0.556590 -0.045524
N11   N     N_R   0.373790 0.077590 0.556590 -0.044312
N12   N     N_R   0.611070 0.921840 0.294530 -0.076097
N13   N     N_R   0.626210 0.922410 0.443410 -0.044736
N14   N     N_R   0.126210 0.577590 0.443410 -0.043818
N15   N     N_R   0.873790 0.422410 0.556590 -0.045524
N16   N     N_R   0.873790 0.577590 0.556590 -0.044312
N17   N     N_R   0.126210 0.422410 0.443410 -0.044736
N18   N     N_R   0.554800 0.077270 0.294580 -0.084442
N19   N     N_R   0.445200 0.922730 0.705420 -0.081653
N20   N     N_R   0.445200 0.077270 0.705420 -0.084653
N21   N     N_R   0.554800 0.922730 0.294580 -0.079653
N22   N     N_R   0.054800 0.577270 0.294580 -0.084442
N23   N     N_R   0.611070 0.078160 0.294530 -0.072279
N24   N     N_R   0.945200 0.422730 0.705420 -0.081653
N25   N     N_R   0.945200 0.577270 0.705420 -0.084653
N26   N     N_R   0.054800 0.422730 0.294580 -0.079653
N27   N     N_3   0.268363 0.123261 0.819697 -0.218534
N28   N     N_3   0.736013 0.893001 0.156561 -0.221296
N29   N     N_3   0.731839 0.122797 0.179830 -0.218413
N30   N     N_3   0.263752 0.893986 0.843920 -0.220954
N31   N     N_3   0.768363 0.623261 0.819697 -0.218534
N32   N     N_3   0.236013 0.393001 0.156561 -0.221296
N33   N     N_3   0.231839 0.622797 0.179830 -0.218413
N34   N     N_R   0.388930 0.921840 0.705470 -0.076597
N35   N     N_3   0.763752 0.393986 0.843920 -0.220954
N36   N     N_3   0.575269 0.709040 0.703078 -0.219587
N37   N     N_3   0.326392 0.120470 0.292930 -0.202550
N38   N     N_3   0.428608 0.696695 0.299705 -0.214459
N39   N     N_3   0.670733 0.126147 0.709311 -0.202341
N40   N     N_3   0.075269 0.209040 0.703078 -0.219587
N41   N     N_3   0.826392 0.620470 0.292930 -0.202550
N42   N     N_3   0.928608 0.196695 0.299705 -0.214459
N43   N     N_3   0.170734 0.626147 0.709310 -0.202341
N44   N     N_R   0.888930 0.578160 0.705470 -0.072280
N45   N     N_R   0.111070 0.421840 0.294530 -0.076097
N46   N     N_R   0.111070 0.578160 0.294530 -0.072279
N47   N     N_R   0.888930 0.421840 0.705470 -0.076597
N48   N     N_R   0.580500 0.077840 0.556650 -0.048396
Ni1   Ni    Ni4+2 0.382710 0.000000 0.629850 0.197018
Ni2   Ni    Ni4+2 0.617290 0.000000 0.370150 0.197858
Ni3   Ni    Ni4+2 0.882710 0.500000 0.629850 0.197018
Ni4   Ni    Ni4+2 0.117290 0.500000 0.370150 0.197858
Ni5   Ni    Ni4+2 0.513020 0.000000 0.629850 0.273469
Ni6   Ni    Ni4+2 0.486980 0.000000 0.370150 0.275053
Ni7   Ni    Ni4+2 0.013020 0.500000 0.629850 0.273469
Ni8   Ni    Ni4+2 0.986980 0.500000 0.370150 0.275053

loop_
_geom_bond_atom_site_label_1
_geom_bond_atom_site_label_2
_ccdc_geom_bond_type
C27   N9    A    
N1    Ni1   S    
N14   Ni4   S    
C35   H8    S    
N8    Ni7   S    
C23   N23   A    
H46   N31   S    
C38   N20   A    
N10   Ni1   S    
C1    N1    A    
H61   N39   S    
H54   N36   S    
N9    Ni2   S    
H59   N38   S    
C77   N42   S    
C10   H18   S    
C15   H22   S    
C64   C77   A    
C67   N33   S    
H43   N30   S    
N8    N17   A    
C12   N12   A    
C41   N24   A    
C14   H24   S    
H64   N41   S    
N19   N34   A    
C3    C11   D    
C9    C15   S    
C22   H45   S    
N2    N10   A    
C19   H12   S    
N34   Ni1   S    
C25   H67   S    
C18   C53   A    
C70   C86   A    
C65   C82   A    
H50   N33   S    
N47   Ni3   S    
N12   N21   A    
C45   N44   A    
C42   N25   A    
C35   N17   A    
H53   N36   S    
C38   C44   A    
C72   C81   A    
C18   N48   A    
N18   N23   A    
H60   N39   S    
N48   Ni5   S    
C65   C79   A    
N4    Ni5   S    
C20   N3    A    
C34   C48   A    
H39   N28   S    
N2    Ni6   S    
C5    H32   S    
N12   Ni2   S    
N4    N13   A    
N16   Ni3   S    
C37   C48   A    
H68   N42   S    
H58   N38   S    
C32   C59   A    
H48   N32   S    
H36   N27   S    
N15   Ni3   S    
N7    Ni8   S    
C64   H11   S    
C33   N16   A    
C3    C44   S    
C61   C84   S    
C2    C48   S    
C22   N5    A    
C40   N22   A    
C18   H1    S    
C32   N15   A    
N20   Ni5   S    
H38   N28   S    
C72   N37   S    
N18   Ni6   S    
C30   N13   A    
C35   C61   A    
N11   Ni1   S    
C7    C49   S    
N9    N48   A    
N3    N11   A    
C1    C44   A    
C24   C59   A    
N26   N45   A    
C13   H20   S    
C28   C54   A    
N23   Ni2   S    
C74   N39   S    
C29   C55   A    
N45   Ni4   S    
C31   H5    S    
C33   C60   A    
Br2   C37   S    
C50   C56   A    
C29   N11   A    
Br5   C40   S    
C88   H28   S    
C45   N31   S    
C62   C75   A    
C56   N45   A    
C34   N30   S    
C3    H30   S    
N6    Ni8   S    
Br7   C42   S    
C30   H4    S    
C2    H27   S    
C9    C88   D    
C64   C83   A    
C45   C49   A    
N21   Ni6   S    
H69   N43   S    
N25   N44   A    
C66   C85   A    
N19   Ni5   S    
C24   N6    A    
C4    C13   D    
C43   N26   A    
C74   C83   A    
C33   H7    S    
C79   C87   A    
C6    C15   D    
C39   N21   A    
C69   H16   S    
C75   N40   S    
H47   N32   S    
C19   C54   A    
N22   Ni8   S    
H70   N43   S    
C59   C86   S    
N22   N46   A    
C77   C86   A    
C70   C74   A    
Br1   C36   S    
C21   H34   S    
C24   H56   S    
C30   C57   A    
C69   C73   A    
H37   N27   S    
C55   C81   S    
C16   H26   S    
C27   H72   S    
C28   N10   A    
C27   C53   A    
C43   C50   A    
C8    C50   S    
H55   N37   S    
C8    H33   S    
C41   C52   A    
C26   C61   A    
H40   N29   S    
C22   C58   A    
C71   C80   A    
C68   C84   A    
C39   C46   A    
C21   C57   A    
C73   C82   A    
H42   N30   S    
C12   C46   A    
C7    C16   D    
N1    N20   A    
H41   N29   S    
N5    N14   A    
C66   C71   A    
C56   N32   S    
N17   Ni4   S    
C31   C58   A    
H57   N37   S    
C34   N34   A    
C62   C81   A    
C13   C16   S    
H66   N42   S    
C26   H71   S    
N5    Ni7   S    
C51   C67   A    
C29   H3    S    
N3    Ni6   S    
C9    H19   S    
C40   C51   A    
N26   Ni8   S    
C63   C76   A    
Br8   C43   S    
C8    C17   D    
C52   C78   A    
N24   N47   A    
C10   C14   S    
C42   C49   A    
C79   N43   S    
H44   N31   S    
C37   N19   A    
C68   C72   A    
N24   Ni7   S    
C47   C88   S    
C20   H23   S    
N6    N15   A    
C66   H14   S    
C1    N27   S    
C65   H13   S    
C4    H29   S    
N44   Ni3   S    
C6    C52   S    
C67   N46   A    
C19   N2    A    
C60   C85   S    
C62   H9    S    
H62   N40   S    
C23   N29   S    
H51   N35   S    
N46   Ni4   S    
H49   N33   S    
C36   C47   A    
H63   N40   S    
H65   N41   S    
C57   C80   S    
C2    C10   D    
C68   H15   S    
C54   C82   S    
C76   N41   S    
Br3   C38   S    
C5    C14   D    
C69   C87   A    
C76   C85   A    
C21   N4    A    
C25   N7    A    
C31   N14   A    
C26   N8    A    
C6    H31   S    
C11   C17   S    
C32   H6    S    
C63   C80   A    
C70   H17   S    
C20   C55   A    
N25   Ni7   S    
C7    H35   S    
C11   H21   S    
C75   C84   A    
C71   N36   S    
C63   H10   S    
N13   Ni2   S    
C58   C87   S    
C78   N47   A    
H52   N35   S    
C28   H2    S    
C23   C47   A    
C5    C51   S    
C17   H25   S    
C78   N35   S    
C12   N28   S    
C4    C46   S    
Br6   C41   S    
C53   C83   S    
C25   C60   A    
C36   N18   A    
C73   N38   S    
N7    N16   A    
Br4   C39   S    
