data_mof_unit_15801.cif
_audit_creation_date              2012-12-10T18:06:37-0500
_audit_creation_method            fapswitch 2.2
_symmetry_space_group_name_H-M    P1
_symmetry_Int_Tables_number       1
_space_group_crystal_system       triclinic
_cell_length_a                    12.663259
_cell_length_b                    13.057671
_cell_length_c                    15.387153
_cell_angle_alpha                 84.1546
_cell_angle_beta                  99.482889
_cell_angle_gamma                 96.502058
_cell_volume                      2484.39697422

loop_
_atom_site_label
_atom_site_type_symbol
_atom_type_description
_atom_site_fract_x
_atom_site_fract_y
_atom_site_fract_z
_atom_type_partial_charge
C1    C     C_R   0.443779 0.307825 0.510936 0.990598
C2    C     C_R   0.653347 0.414249 0.941703 0.137658
C3    C     C_R   0.545769 0.430370 0.905214 0.094430
C4    C     C_R   0.437021 0.519342 0.335291 0.870249
C5    C     C_R   0.730915 0.416004 0.885892 -0.161367
C6    C     C_R   0.703412 0.439419 0.794838 -0.197143
C7    C     C_R   0.520994 0.456910 0.814757 -0.162343
C8    C     C_R   0.597355 0.940408 0.344829 -0.132017
C9    C     C_R   0.577191 0.803528 0.461915 -0.146511
C10   C     C_R   0.358996 0.158196 0.599441 -0.056975
C11   C     C_R   0.329133 0.052630 0.612521 -0.189401
C12   C     C_R   0.432747 0.474588 0.101822 0.061070
C13   C     C_R   0.361933 0.982978 0.561721 0.017432
C14   C     C_R   0.426416 0.021551 0.495913 -0.032947
C15   C     C_R   0.426899 0.127150 0.465402 0.055282
C16   C     C_R   0.554863 0.692479 0.486932 0.823126
C17   C     C_R   0.491765 0.961295 0.459675 0.073554
C18   C     C_R   0.531523 0.998697 0.380680 0.117776
C19   C     C_R   0.503012 0.093098 0.337543 -0.252925
C20   C     C_R   0.448097 0.157134 0.378040 -0.041555
C21   C     C_R   0.524067 0.868115 0.502870 -0.248718
C22   C     C_R   0.621244 0.842295 0.384563 -0.035364
C23   C     C_R   0.320715 0.470570 0.068615 0.069353
C24   C     C_R   0.407745 0.197111 0.524127 -0.099556
C25   C     C_R   0.142879 0.628395 0.638139 -0.238827
C26   C     C_R   0.763949 0.369357 0.403526 0.145059
C27   C     C_R   0.859299 0.324234 0.407771 -0.156493
C28   C     C_R   0.564348 0.485106 0.664321 0.904380
C29   C     C_R   0.951462 0.366230 0.456323 -0.266268
C30   C     C_R   0.952048 0.459535 0.493932 0.011744
C31   C     C_R   0.852558 0.492805 0.502451 0.225667
C32   C     C_R   0.048476 0.515858 0.528661 -0.059949
C33   C     C_R   0.046168 0.584726 0.593000 0.155452
C34   C     C_R   0.503226 0.439634 0.051371 0.088066
C35   C     C_R   0.947268 0.609119 0.610102 -0.259912
C36   C     C_R   0.851538 0.567311 0.562076 -0.207263
C37   C     C_R   0.147020 0.508247 0.499719 0.038461
C38   C     C_R   0.239569 0.607764 0.614624 0.011190
C39   C     C_R   0.399119 0.531013 0.238861 -0.249172
C40   C     C_R   0.598395 0.461997 0.759338 -0.046982
C41   C     C_R   0.252527 0.510664 0.117335 -0.093435
C42   C     C_R   0.290803 0.542303 0.202076 0.026642
C43   C     C_R   0.471757 0.521035 0.181311 -0.117555
C44   C     C_2   0.166385 0.417134 0.946955 0.386258
C45   C     C_R   0.467878 0.430307 0.960993 0.067839
C46   C     C_2   0.692044 0.783930 0.344167 0.374237
C47   C     C_2   0.336913 0.222706 0.666976 0.420750
C48   C     C_2   0.315339 0.873802 0.570716 0.363152
C49   C     C_2   0.398884 0.243440 0.321450 0.376599
C50   C     C_2   0.148841 0.467175 0.414503 0.407917
C51   C     C_2   0.669587 0.324538 0.345201 0.328627
C52   C     C_2   0.222056 0.600851 0.244310 0.407807
C53   C     C_2   0.577720 0.585551 0.193361 0.430418
C54   C     C_R   0.356596 0.422782 0.929235 -0.316793
C55   C     C_R   0.282253 0.436746 0.983558 -0.006882
C56   C     C_R   0.608217 0.415266 0.087880 -0.119668
C57   C     C_R   0.681970 0.400548 0.033430 -0.168235
H1    H     H_    0.629084 0.971288 0.285167 0.196460
H2    H     H_    0.732071 0.720572 0.381115 0.106135
H3    H     H_    0.522397 0.116223 0.271842 0.183484
H4    H     H_    0.503899 0.841350 0.567477 0.152937
H5    H     H_    0.266710 0.201482 0.699427 0.060042
H6    H     H_    0.314464 0.823417 0.518651 0.089655
H7    H     H_    0.430182 0.274251 0.261467 0.070618
H8    H     H_    0.944014 0.663353 0.658208 0.162803
H9    H     H_    0.143637 0.677232 0.691125 0.188310
H10   H     H_    0.094210 0.493612 0.356937 0.104262
H11   H     H_    0.590358 0.338725 0.350587 0.132793
H12   H     H_    0.283015 0.024238 0.665032 0.182335
H13   H     H_    0.862524 0.255613 0.374527 0.206849
H14   H     H_    0.764321 0.441380 0.752687 0.168226
H15   H     H_    0.763092 0.385450 0.062967 0.178947
H16   H     H_    0.170586 0.522124 0.088331 0.219178
H17   H     H_    0.255953 0.644259 0.300454 0.073519
H18   H     H_    0.617249 0.605450 0.257970 0.104638
H19   H     H_    0.326019 0.400554 0.863207 0.156868
H20   H     H_    0.315214 0.638464 0.650689 0.166450
H21   H     H_    0.441814 0.478510 0.787118 0.166579
H22   H     H_    0.021870 0.324583 0.464175 0.195878
H23   H     H_    0.778505 0.592038 0.575064 0.209867
H24   H     H_    0.634447 0.410066 0.158488 0.177012
H25   H     H_    0.141011 0.424189 0.875843 0.064937
H26   H     H_    0.813118 0.401978 0.912840 0.171150
N1    N     N_R   0.239390 0.551900 0.544730 -0.129541
N2    N     N_R   0.759950 0.448600 0.455730 -0.180570
O1    O     O_R   0.374950 0.371210 0.521360 -0.507135
O2    O     O_2   0.709544 0.808324 0.268711 -0.530874
O3    O     O_2   0.399931 0.295395 0.691542 -0.591612
O4    O     O_2   0.275767 0.839441 0.636144 -0.603432
O5    O     O_2   0.318574 0.276334 0.337598 -0.507783
O6    O     O_2   0.200319 0.395346 0.409832 -0.479400
O7    O     O_2   0.680216 0.268814 0.288710 -0.628456
O8    O     O_2   0.126947 0.605194 0.214473 -0.569599
O9    O     O_2   0.618938 0.623727 0.129651 -0.513512
O10   O     O_R   0.542050 0.338030 0.492790 -0.653521
O11   O     O_R   0.368720 0.526070 0.390200 -0.577816
O12   O     O_R   0.535820 0.492890 0.361630 -0.676646
O13   O     O_R   0.457950 0.661970 0.507210 -0.617854
O14   O     O_R   0.625050 0.628790 0.478640 -0.661460
O15   O     O_R   0.464180 0.507110 0.638370 -0.601045
O16   O     O_R   0.631280 0.473930 0.609800 -0.632097
O17   O     O_2   0.099146 0.387206 0.994724 -0.557488
Zn1   Zn    Zn3+2 0.388420 0.522150 0.519080 1.003888
Zn2   Zn    Zn3+2 0.611580 0.477850 0.480920 0.909488

loop_
_geom_bond_atom_site_label_1
_geom_bond_atom_site_label_2
_ccdc_geom_bond_type
C34   C56   A    
C31   N2    A    
C46   H2    S    
C27   C29   A    
C41   C42   A    
C19   C20   A    
C49   O5    D    
C9    C21   A    
C47   H5    S    
C2    C57   A    
C56   H24   S    
C12   C23   A    
C26   C27   A    
C20   C49   S    
C52   H17   S    
C9    C16   S    
C12   C43   A    
C44   H25   S    
C30   C31   A    
C5    H26   S    
C9    C22   A    
C35   H8    S    
O13   Zn1   S    
C56   C57   A    
C18   C19   A    
C8    H1    S    
C4    O11   A    
C28   O16   A    
C43   C53   S    
C35   C36   A    
C8    C22   A    
C7    C40   A    
C37   N1    A    
C50   H10   S    
C21   H4    S    
C28   O15   A    
O14   Zn2   S    
C49   H7    S    
C13   C14   A    
C14   C17   A    
C53   H18   S    
O1    Zn1   S    
C39   C42   A    
C15   C20   A    
C36   H23   S    
C44   O17   D    
C48   H6    S    
C39   C43   A    
C10   C24   A    
C3    C45   A    
O15   Zn1   S    
C8    C18   A    
C29   C30   A    
C51   O7    D    
C29   H22   S    
C4    C39   S    
C1    O10   A    
C17   C18   A    
C52   O8    D    
C34   C45   A    
C32   C37   A    
C27   H13   S    
N2    Zn2   S    
C7    H21   S    
C54   H19   S    
C15   C24   A    
C22   C46   S    
C45   C54   A    
O16   Zn2   S    
C48   O4    D    
C6    C40   A    
C2    C5    A    
C12   C34   A    
C25   C38   A    
O10   Zn2   S    
C46   O2    D    
C1    O1    A    
C54   C55   A    
C38   N1    A    
C53   O9    D    
C31   C36   A    
C25   H9    S    
C6    H14   S    
C13   C48   S    
C11   H12   S    
C16   O14   A    
C23   C55   A    
C38   H20   S    
C19   H3    S    
C3    C7    A    
C23   C41   A    
C32   C33   A    
C2    C3    A    
C26   C51   S    
C47   O3    D    
C30   C32   A    
C37   C50   S    
C11   C13   A    
C44   C55   S    
C16   O13   A    
C5    C6    A    
C26   N2    A    
C33   C35   A    
C51   H11   S    
C57   H15   S    
C17   C21   A    
O12   Zn2   S    
C10   C11   A    
C41   H16   S    
C50   O6    D    
C1    C24   S    
O11   Zn1   S    
C25   C33   A    
C10   C47   S    
N1    Zn1   S    
C28   C40   S    
C14   C15   A    
C4    O12   A    
C42   C52   S    
