data_mof_unit_20189.cif
_audit_creation_date              2012-12-10T20:02:22-0500
_audit_creation_method            fapswitch 2.2
_symmetry_space_group_name_H-M    P1
_symmetry_Int_Tables_number       1
_space_group_crystal_system       triclinic
_cell_length_a                    10.688238
_cell_length_b                    14.98
_cell_length_c                    14.155037
_cell_angle_alpha                 90.113047
_cell_angle_beta                  90.143276
_cell_angle_gamma                 89.772834
_cell_volume                      2266.33095102

loop_
_atom_site_label
_atom_site_type_symbol
_atom_type_description
_atom_site_fract_x
_atom_site_fract_y
_atom_site_fract_z
_atom_type_partial_charge
C1    C     C_R   0.497373 0.327539 0.499889 0.862768
C2    C     C_R   0.499716 0.672110 0.500092 0.856462
C3    C     C_R   0.872483 0.496826 0.500591 -0.076367
C4    C     C_R   0.127699 0.505631 0.500338 -0.081175
C5    C     C_R   0.939549 0.452058 0.571902 -0.010394
C6    C     C_R   0.060776 0.552461 0.430375 -0.002942
C7    C     C_R   0.484077 0.092628 0.583928 -0.181698
C8    C     C_R   0.541579 0.907263 0.427316 -0.185223
C9    C     C_R   0.492046 0.184562 0.584663 -0.211373
C10   C     C_R   0.551544 0.815389 0.428645 -0.211547
C11   C     C_R   0.485888 0.231611 0.499466 -0.028464
C12   C     C_R   0.492253 0.767505 0.500085 -0.020334
C13   C     C_R   0.465221 0.186654 0.414006 -0.190095
C14   C     C_R   0.421309 0.810728 0.569348 -0.211300
C15   C     C_R   0.454721 0.094821 0.413521 -0.184844
C16   C     C_R   0.409352 0.902522 0.567032 -0.179439
C17   C     C_R   0.466879 0.047546 0.498200 0.121664
C18   C     C_R   0.470497 0.951006 0.496543 0.113355
C19   C     C_R   0.410145 0.450941 0.104616 0.376128
C20   C     C_R   0.511111 0.580947 0.895203 0.374817
C21   C     C_R   0.412854 0.451598 0.204326 -0.084318
C22   C     C_R   0.511914 0.578531 0.795560 -0.106366
C23   C     C_R   0.260104 0.502894 0.499921 0.873535
C24   C     C_R   0.739984 0.497601 0.500207 0.880331
C25   C     C_R   0.587191 0.548178 0.204833 -0.023615
C26   C     C_R   0.489934 0.421778 0.795899 -0.017872
C27   C     C_R   0.589508 0.548577 0.105595 -0.288674
C28   C     C_R   0.491568 0.420529 0.895122 -0.290256
C29   C     C_R   0.500730 0.499616 0.053471 0.034314
C30   C     C_R   0.501866 0.500498 0.946862 0.036777
C31   C     C_R   0.248347 0.741078 0.323586 -0.113327
C32   C     C_R   0.772129 0.262966 0.694528 -0.141299
C33   C     C_R   0.193762 0.684420 0.390006 -0.115184
C34   C     C_R   0.825527 0.315132 0.623563 -0.130490
C35   C     C_R   0.120872 0.611736 0.360103 0.140269
C36   C     C_R   0.879760 0.397635 0.646199 0.136811
C37   C     C_R   0.102337 0.597309 0.262990 -0.166450
C38   C     C_R   0.879129 0.427601 0.740278 -0.124963
C39   C     C_R   0.157975 0.653749 0.196817 -0.156311
C40   C     C_R   0.823537 0.375955 0.810700 -0.128059
C41   C     C_R   0.231025 0.725479 0.227133 -0.108229
C42   C     C_R   0.770339 0.293584 0.787869 -0.126347
C43   C     C_R   0.932317 0.546123 0.430516 -0.248743
C44   C     C_R   0.067789 0.457015 0.570836 -0.247590
H1    H     H_    0.273213 0.769512 0.175982 0.126019
H2    H     H_    0.727950 0.253424 0.842517 0.122714
H3    H     H_    0.439072 0.060610 0.347054 0.129900
H4    H     H_    0.352959 0.935637 0.620165 0.131507
H5    H     H_    0.344700 0.413347 0.243355 0.144918
H6    H     H_    0.521426 0.640238 0.756884 0.156672
H7    H     H_    0.655944 0.586162 0.243950 0.134824
H8    H     H_    0.481599 0.359538 0.757814 0.143715
H9    H     H_    0.661539 0.586154 0.069875 0.192456
H10   H     H_    0.486083 0.356987 0.931125 0.192472
H11   H     H_    0.303411 0.797447 0.346819 0.143688
H12   H     H_    0.732676 0.198584 0.677262 0.132639
H13   H     H_    0.207402 0.697499 0.464598 0.100699
H14   H     H_    0.825918 0.290953 0.551397 0.114606
H15   H     H_    0.045233 0.542241 0.238743 0.118955
H16   H     H_    0.920798 0.491090 0.758773 0.124106
H17   H     H_    0.143800 0.642287 0.122062 0.108906
H18   H     H_    0.821979 0.399632 0.882980 0.129193
H19   H     H_    0.878507 0.582743 0.378125 0.151186
H20   H     H_    0.121187 0.420699 0.623719 0.161954
H21   H     H_    0.495035 0.056761 0.649823 0.130004
H22   H     H_    0.591377 0.944146 0.373573 0.134815
H23   H     H_    0.505315 0.218440 0.651548 0.147677
H24   H     H_    0.606561 0.781823 0.374950 0.146969
H25   H     H_    0.457356 0.222193 0.347663 0.159384
H26   H     H_    0.373479 0.773414 0.623839 0.142257
N1    N     N_R   0.500000 0.499980 0.252470 -0.106973
N2    N     N_R   0.500000 0.500020 0.747530 -0.107099
O1    O     O_R   0.500010 0.369070 0.579480 -0.627749
O2    O     O_R   0.499990 0.630930 0.420520 -0.614684
O3    O     O_R   0.500010 0.369060 0.420520 -0.623859
O4    O     O_R   0.499990 0.630940 0.579480 -0.633578
O5    O     O_R   0.316760 0.500010 0.579480 -0.623731
O6    O     O_R   0.683240 0.499990 0.420520 -0.629876
O7    O     O_R   0.316760 0.500000 0.420520 -0.612278
O8    O     O_R   0.683240 0.500000 0.579480 -0.598943
Zn1   Zn    Zn3+2 0.500000 0.500010 0.606140 0.949513
Zn2   Zn    Zn3+2 0.500000 0.499990 0.393860 0.950962
O9    O     O_3   0.322316 0.399638 0.057936 -0.621955
C45   C     C_3   0.212365 0.450830 0.046101 0.100979
H27   H     H_    0.232318 0.516432 0.012418 0.117460
H28   H     H_    0.166168 0.461830 0.115472 0.137578
C46   C     C_3   0.122245 0.400626 0.982094 -0.818248
H29   H     H_    0.098325 0.335178 0.013887 0.257658
H30   H     H_    0.035080 0.440250 0.972717 0.194063
H31   H     H_    0.165641 0.389400 0.911808 0.257831
O10   O     O_3   0.524563 0.661866 0.940938 -0.619099
C47   C     C_3   0.405161 0.700928 0.951923 0.102911
H32   H     H_    0.345640 0.659357 0.998815 0.127233
H33   H     H_    0.357565 0.709885 0.882384 0.126365
C48   C     C_3   0.419689 0.792355 0.997341 -0.829941
H34   H     H_    0.477493 0.835896 0.951580 0.257742
H35   H     H_    0.326279 0.823780 0.006814 0.197041
H36   H     H_    0.465775 0.785703 0.067418 0.254498

loop_
_geom_bond_atom_site_label_1
_geom_bond_atom_site_label_2
_ccdc_geom_bond_type
C46   H29   S    
C8    H22   S    
C27   C29   A    
C26   N2    A    
C48   H34   S    
C1    C11   S    
C45   C46   S    
C15   H3    S    
C2    C12   S    
C16   H4    S    
C21   H5    S    
C48   H36   S    
C43   H19   S    
C39   C41   A    
C20   C30   A    
C44   H20   S    
C3    C43   A    
C21   N1    A    
C35   C37   A    
C45   H28   S    
C5    C36   S    
C40   H18   S    
C6    C35   S    
C15   C17   A    
C42   H2    S    
O1    Zn1   S    
C24   O8    A    
C7    C17   A    
C31   C33   A    
C25   N1    A    
N2    Zn1   S    
C2    O2    A    
C22   H6    S    
N1    Zn2   S    
C40   C42   A    
C14   H26   S    
C3    C24   S    
O2    Zn2   S    
C19   O9    S    
C22   N2    A    
C32   C42   A    
C39   H17   S    
C20   O10   S    
C1    O3    A    
C45   H27   S    
C4    C6    A    
O10   C47   S    
C4    C23   S    
C28   H10   S    
C4    C44   A    
C47   C48   S    
C8    C18   A    
C32   C34   A    
C9    H23   S    
C29   C30   S    
C26   H8    S    
C7    H21   S    
O6    Zn2   S    
O9    C45   S    
O5    Zn1   S    
C47   H33   S    
C17   C18   S    
C16   C18   A    
C23   O5    A    
C9    C11   A    
C37   H15   S    
C10   C12   A    
C38   H16   S    
C24   O6    A    
C5    C44   A    
C12   C14   A    
C6    C43   A    
C13   C15   A    
C14   C16   A    
C19   C29   A    
C2    O4    A    
C7    C9    A    
C48   H35   S    
C33   H13   S    
C31   C41   A    
C19   C21   A    
C20   C22   A    
O8    Zn1   S    
C3    C5    A    
O4    Zn1   S    
O7    Zn2   S    
C27   H9    S    
O3    Zn2   S    
C10   H24   S    
C25   C27   A    
C26   C28   A    
C25   H7    S    
C1    O1    A    
C31   H11   S    
C28   C30   A    
C37   C39   A    
C38   C40   A    
C11   C13   A    
C13   H25   S    
C36   C38   A    
C47   H32   S    
C33   C35   A    
C34   C36   A    
C8    C10   A    
C46   H31   S    
C34   H14   S    
C46   H30   S    
C41   H1    S    
C23   O7    A    
C32   H12   S    
