data_mof_unit_11009.cif
_audit_creation_date              2012-12-11T16:13:44-0500
_audit_creation_method            fapswitch 2.2
_symmetry_space_group_name_H-M    P1
_symmetry_Int_Tables_number       1
_space_group_crystal_system       triclinic
_cell_length_a                    26.134511
_cell_length_b                    7.259631
_cell_length_c                    23.809928
_cell_angle_alpha                 89.998597
_cell_angle_beta                  101.385053
_cell_angle_gamma                 89.998938
_cell_volume                      4428.49407715

loop_
_atom_site_label
_atom_site_type_symbol
_atom_type_description
_atom_site_fract_x
_atom_site_fract_y
_atom_site_fract_z
_atom_type_partial_charge
O1    O     O_R   0.192370 0.384760 0.193350 -0.532017
O2    O     O_R   0.807630 0.615240 0.806650 -0.532017
O3    O     O_R   0.307630 0.884760 0.306650 -0.532018
O4    O     O_R   0.692370 0.115240 0.693350 -0.532019
O5    O     O_R   0.296630 0.711620 0.196480 -0.511907
O6    O     O_R   0.703370 0.288380 0.803520 -0.511906
O7    O     O_R   0.203370 0.211620 0.303520 -0.511907
O8    O     O_R   0.796630 0.788380 0.696480 -0.511906
C1    C     C_R   0.311893 0.545990 0.183401 0.702305
C2    C     C_R   0.688107 0.454010 0.816599 0.702309
C3    C     C_R   0.188108 0.045989 0.316599 0.702303
C4    C     C_R   0.811892 0.954011 0.683401 0.702303
O9    O     O_R   0.192080 0.714290 0.186600 -0.536402
O10   O     O_R   0.807920 0.285710 0.813400 -0.536401
O11   O     O_R   0.307920 0.214290 0.313400 -0.536401
O12   O     O_R   0.692080 0.785710 0.686600 -0.536401
O13   O     O_R   0.202340 0.887460 0.296690 -0.542854
O14   O     O_R   0.797660 0.112540 0.703310 -0.542854
O15   O     O_R   0.297660 0.387460 0.203310 -0.542854
O16   O     O_R   0.702340 0.612540 0.796690 -0.542854
C5    C     C_R   0.173782 0.545974 0.171355 0.704866
C6    C     C_R   0.826218 0.454026 0.828645 0.704869
C7    C     C_R   0.326217 0.045967 0.328646 0.704868
C8    C     C_R   0.673783 0.954033 0.671354 0.704868
O17   O     O_3   0.253490 0.552180 0.286130 -0.371025
O18   O     O_3   0.746510 0.447820 0.713870 -0.371025
O19   O     O_3   0.246510 0.052180 0.213870 -0.371023
O20   O     O_3   0.753490 0.947820 0.786130 -0.371023
V1    V     V_3+5 0.249350 0.825920 0.243300 1.438712
V2    V     V_3+5 0.750650 0.174080 0.756700 1.438714
V3    V     V_3+5 0.250650 0.325920 0.256700 1.438706
V4    V     V_3+5 0.749350 0.674080 0.743300 1.438705
C9    C     C_3   0.542438 0.974753 0.476015 -0.193842
C10   C     C_3   0.457562 0.025248 0.523985 -0.193841
C11   C     C_3   0.957556 0.474901 0.023985 -0.193867
C12   C     C_3   0.042444 0.525099 0.976015 -0.193867
C13   C     C_3   0.504973 0.140961 0.467134 0.367077
C14   C     C_3   0.495027 0.859039 0.532866 0.367079
C15   C     C_3   0.995034 0.641073 0.032828 0.367080
C16   C     C_3   0.004966 0.358927 0.967172 0.367080
H1    H     H_    0.577145 0.956359 0.456205 0.126370
H2    H     H_    0.422855 0.043641 0.543794 0.126372
H3    H     H_    0.922844 0.456608 0.043794 0.126362
H4    H     H_    0.077156 0.543392 0.956206 0.126362
H5    H     H_    0.511679 0.283864 0.557689 0.134696
H6    H     H_    0.488321 0.716136 0.442311 0.134695
H7    H     H_    0.988356 0.783708 0.942225 0.134704
H8    H     H_    0.011644 0.216291 0.057774 0.134704
C17   C     C_1   0.371833 0.037097 0.374573 -0.181278
C18   C     C_1   0.628167 0.962903 0.625427 -0.181277
C19   C     C_1   0.128164 0.537126 0.125430 -0.181280
C20   C     C_1   0.871836 0.462874 0.874570 -0.181280
C21   C     C_3   0.494099 0.844224 0.468089 -0.231728
C22   C     C_3   0.505901 0.155776 0.531911 -0.231730
C23   C     C_3   0.005884 0.344305 0.031954 -0.231740
C24   C     C_3   0.994116 0.655695 0.968046 -0.231740
C25   C     C_3   0.457315 0.013673 0.458902 0.063421
C26   C     C_3   0.542685 0.986327 0.541098 0.063420
C27   C     C_3   0.042681 0.513718 0.041101 0.063438
C28   C     C_3   0.957319 0.486281 0.958899 0.063437
C29   C     C_1   0.410260 0.027873 0.412679 -0.032479
C30   C     C_1   0.589740 0.972126 0.587321 -0.032480
C31   C     C_1   0.089736 0.527921 0.087324 -0.032484
C32   C     C_1   0.910264 0.472079 0.912676 -0.032484
C33   C     C_R   0.879005 0.122594 0.640896 -0.224819
C34   C     C_R   0.120995 0.877405 0.359104 -0.224819
C35   C     C_R   0.620992 0.622592 0.859100 -0.224819
C36   C     C_R   0.379008 0.377409 0.140900 -0.224817
H9    H     H_    0.874722 0.240306 0.667528 0.146291
H10   H     H_    0.125278 0.759694 0.332471 0.146290
H11   H     H_    0.625275 0.740306 0.832467 0.146290
H12   H     H_    0.374726 0.259697 0.167534 0.146292
C37   C     C_R   0.915754 0.132761 0.605466 -0.146606
C38   C     C_R   0.084246 0.867239 0.394534 -0.146606
C39   C     C_R   0.584243 0.632757 0.894530 -0.146602
C40   C     C_R   0.415758 0.367245 0.105470 -0.146602
H13   H     H_    0.938129 0.258324 0.605534 0.147065
H14   H     H_    0.061871 0.741676 0.394466 0.147065
H15   H     H_    0.561867 0.758321 0.894461 0.147068
H16   H     H_    0.438135 0.241682 0.105541 0.147069
C41   C     C_R   0.923909 0.982746 0.571002 -0.011660
C42   C     C_R   0.076091 0.017254 0.428998 -0.011660
C43   C     C_R   0.576090 0.482740 0.928996 -0.011660
C44   C     C_R   0.423909 0.517259 0.071002 -0.011659
C45   C     C_R   0.893702 0.823262 0.572195 -0.203418
C46   C     C_R   0.106298 0.176738 0.427804 -0.203419
C47   C     C_R   0.606298 0.323254 0.927805 -0.203417
C48   C     C_R   0.393699 0.676744 0.072192 -0.203419
H17   H     H_    0.898721 0.706616 0.545429 0.144016
H18   H     H_    0.101279 0.293383 0.454571 0.144016
H19   H     H_    0.601280 0.206607 0.954573 0.144017
H20   H     H_    0.398716 0.793389 0.045422 0.144016
C49   C     C_R   0.856046 0.812097 0.606939 0.287256
C50   C     C_R   0.143954 0.187903 0.393061 0.287256
C51   C     C_R   0.643954 0.312091 0.893061 0.287253
C52   C     C_R   0.356044 0.687907 0.106937 0.287256
C53   C     C_R   0.848997 0.962459 0.642931 -0.075615
C54   C     C_R   0.151003 0.037540 0.357069 -0.075615
C55   C     C_R   0.651001 0.462456 0.857067 -0.075618
C56   C     C_R   0.348998 0.537543 0.142932 -0.075617
N1    N     N_R   0.971875 0.845686 0.501139 -0.284388
N2    N     N_R   0.028125 0.154314 0.498860 -0.284388
N3    N     N_R   0.528134 0.345692 0.998873 -0.284384
N4    N     N_R   0.471864 0.654308 0.001126 -0.284384
N5    N     N_R   0.007440 0.853485 0.468017 -0.286209
N6    N     N_R   0.992560 0.146514 0.531983 -0.286209
N7    N     N_R   0.492569 0.353495 0.031995 -0.286207
N8    N     N_R   0.507429 0.646505 0.968003 -0.286207
C57   C     C_R   0.036408 0.008005 0.466121 0.532329
C58   C     C_R   0.963592 0.991995 0.533879 0.532330
C59   C     C_R   0.463591 0.508008 0.033879 0.532316
C60   C     C_R   0.536407 0.491992 0.966120 0.532315
N9    N     N_2   0.509426 0.296159 0.430330 -0.511088
H21   H     H_    0.476903 0.379698 0.423762 0.246863
C61   C     C_3   0.557832 0.397493 0.445084 -0.556085
H22   H     H_    0.558991 0.505651 0.412403 0.201957
H23   H     H_    0.591667 0.304257 0.445969 0.206909
H24   H     H_    0.560913 0.464525 0.487578 0.186679
N10   N     N_2   0.490574 0.703842 0.569670 -0.511087
H25   H     H_    0.523096 0.620304 0.576239 0.246864
C62   C     C_3   0.442168 0.602506 0.554915 -0.556103
H26   H     H_    0.441007 0.494353 0.587596 0.201961
H27   H     H_    0.439089 0.535469 0.512422 0.186682
H28   H     H_    0.408333 0.695739 0.554026 0.206913
N11   N     N_2   0.990586 0.796400 0.069586 -0.511106
H29   H     H_    0.023113 0.879909 0.076138 0.246836
C63   C     C_3   0.942188 0.897772 0.054796 -0.555915
H30   H     H_    0.941037 0.006090 0.087442 0.201880
H31   H     H_    0.908347 0.804567 0.053944 0.206904
H32   H     H_    0.939113 0.964639 0.012266 0.186661
N12   N     N_2   0.009414 0.203600 0.930414 -0.511106
H33   H     H_    0.976887 0.120091 0.923862 0.246836
C64   C     C_3   0.057812 0.102229 0.945204 -0.555914
H34   H     H_    0.058963 0.993911 0.912558 0.201880
H35   H     H_    0.060887 0.035361 0.987733 0.186661
H36   H     H_    0.091653 0.195433 0.946056 0.206904
N13   N     N_2   0.825333 0.649294 0.604762 -0.505725
H37   H     H_    0.844640 0.531060 0.596819 0.247753
C65   C     C_3   0.774289 0.663345 0.568059 -0.500273
H38   H     H_    0.778165 0.681322 0.522727 0.180312
H39   H     H_    0.752181 0.781423 0.581029 0.182225
H40   H     H_    0.751854 0.535409 0.571607 0.192312
N14   N     N_2   0.174667 0.350705 0.395238 -0.505724
H41   H     H_    0.155360 0.468940 0.403181 0.247753
C66   C     C_3   0.225711 0.336655 0.431941 -0.500272
H42   H     H_    0.221834 0.318678 0.477273 0.180312
H43   H     H_    0.248146 0.464591 0.428393 0.192312
H44   H     H_    0.247819 0.218577 0.418971 0.182225
N15   N     N_2   0.674670 0.149289 0.895241 -0.505716
H45   H     H_    0.655364 0.031049 0.903184 0.247750
C67   C     C_3   0.725713 0.163344 0.931947 -0.500255
H46   H     H_    0.721834 0.181320 0.977279 0.180308
H47   H     H_    0.747819 0.281427 0.918977 0.182220
H48   H     H_    0.748151 0.035405 0.928404 0.192305
N16   N     N_2   0.325327 0.850707 0.104756 -0.505718
H49   H     H_    0.344630 0.968945 0.096807 0.247750
C68   C     C_3   0.274280 0.836639 0.068056 -0.500247
H50   H     H_    0.278156 0.818643 0.022723 0.180306
H51   H     H_    0.251843 0.964580 0.071596 0.192302
H52   H     H_    0.252176 0.718565 0.081034 0.182218

loop_
_geom_bond_atom_site_label_1
_geom_bond_atom_site_label_2
_ccdc_geom_bond_type
O17   V3    S    
H8    C23   S    
C43   C47   A    
C48   C52   A    
C26   C30   S    
C68   H50   S    
C15   N11   S    
C23   C27   S    
N16   C68   S    
O13   V1    S    
O3    C7    A    
C10   H2    S    
N4    N8    A    
C12   C27   S    
O15   V3    S    
C40   C44   A    
C63   H31   S    
C66   H42   S    
O4    V2    S    
C34   H10   S    
O1    C5    A    
N13   C65   S    
C9    C26   S    
C3    C54   S    
C16   C28   S    
C50   N14   S    
O9    V1    S    
O7    V3    S    
O10   V2    S    
C47   H19   S    
N15   C67   S    
C22   C26   S    
C11   C15   S    
O4    C8    A    
C65   H40   S    
C51   C55   A    
C7    C17   S    
C52   N16   S    
O19   V1    S    
C50   C54   A    
N14   H41   S    
C34   C38   A    
O1    V3    S    
C33   C37   A    
O2    V4    S    
C67   H48   S    
O3    V1    S    
O12   V4    S    
C62   H28   S    
C46   C50   A    
C14   C26   S    
C45   C49   A    
C1    O15   A    
C48   H20   S    
C2    O16   A    
C61   H23   S    
C47   C51   A    
O2    C6    A    
C10   C25   S    
C67   H46   S    
C51   N15   S    
C11   H3    S    
C36   H12   S    
C61   H24   S    
O11   C7    A    
O12   C8    A    
N1    N5    A    
C38   C42   A    
C37   C41   A    
C66   H43   S    
O16   V4    S    
O5    V1    S    
N10   C62   S    
C9    C21   S    
C44   C59   S    
C17   C29   T    
C11   C23   S    
O8    V4    S    
C42   C57   S    
C44   C48   A    
C12   C16   S    
C19   C31   T    
C46   H18   S    
C21   C25   S    
O18   V4    S    
N1    C58   A    
C42   C46   A    
O10   C6    A    
C9    C13   S    
N8    C60   A    
N3    C60   A    
O7    C3    A    
C36   C56   A    
O5    C1    A    
C12   C24   S    
C64   H36   S    
C15   C24   S    
O8    C4    A    
C16   C23   S    
C15   C27   S    
C4    C53   S    
O9    C5    A    
N10   H25   S    
O11   V3    S    
C8    C18   S    
C62   H26   S    
O14   V2    S    
C14   N10   S    
O6    V2    S    
C16   N12   S    
H5    C22   S    
C10   C22   S    
C1    C56   S    
C20   C32   T    
N11   H29   S    
C18   C30   T    
C12   H4    S    
C35   C39   A    
C13   C22   S    
C63   H30   S    
C49   C53   A    
C5    C19   S    
C66   H44   S    
C6    C20   S    
N9    H21   S    
N6    C58   A    
N14   C66   S    
N5    C57   A    
C3    O13   A    
C45   H17   S    
C10   C14   S    
N7    C59   A    
C40   H16   S    
N12   C64   S    
N12   H33   S    
O6    C2    A    
N4    C59   A    
C65   H38   S    
C25   C29   S    
C35   C55   A    
C68   H52   S    
C36   C40   A    
N13   H37   S    
C27   C31   S    
C28   C32   S    
C9    H1    S    
C34   C54   A    
O20   V2    S    
C63   H32   S    
C33   C53   A    
N15   H45   S    
C65   H39   S    
C39   C43   A    
C64   H34   S    
C14   C21   S    
C33   H9    S    
C52   C56   A    
H6    C21   S    
N2    N6    A    
C35   H11   S    
C67   H47   S    
C2    C55   S    
C41   C45   A    
C62   H27   S    
C49   N13   S    
C24   C28   S    
C13   N9    S    
C41   C58   S    
C68   H51   S    
C38   H14   S    
C4    O14   A    
N16   H49   S    
N11   C63   S    
C64   H35   S    
C37   H13   S    
C43   C60   S    
C11   C28   S    
N2    C57   A    
N3    N7    A    
C39   H15   S    
C13   C25   S    
C61   H22   S    
H7    C24   S    
N9    C61   S    
