data_mof_unit_35526.cif
_audit_creation_date              2012-10-26T19:53:30-0400
_audit_creation_method            fapswitch 2.2
_symmetry_space_group_name_H-M    P1
_symmetry_Int_Tables_number       1
_space_group_crystal_system       triclinic
_cell_length_a                    9.091232
_cell_length_b                    7.913073
_cell_length_c                    10.683828
_cell_angle_alpha                 90.41752
_cell_angle_beta                  89.96959
_cell_angle_gamma                 89.883172
_cell_volume                      768.568006763

loop_
_atom_site_label
_atom_site_type_symbol
_atom_type_description
_atom_site_fract_x
_atom_site_fract_y
_atom_site_fract_z
_atom_type_partial_charge
C1    C     C_R   0.220530 0.500130 0.500688 0.561414
C2    C     C_3   0.626997 0.448686 0.047037 0.137879
C3    C     C_3   0.509707 0.498194 0.877274 -0.087091
C4    C     C_3   0.490611 0.501240 0.122546 -0.088598
C5    C     C_1   0.065482 0.500249 0.501255 0.034752
C6    C     C_1   0.934501 0.499924 0.501026 0.050061
C7    C     C_R   0.779471 0.499908 0.500352 0.572568
C8    C     C_R   0.493966 0.499940 0.259431 0.599213
C9    C     C_R   0.506190 0.499981 0.740508 0.607528
C10   C     C_3   0.470894 0.657910 0.040151 0.158304
C11   C     C_3   0.529537 0.341340 0.959543 0.183987
C12   C     C_3   0.608968 0.604714 0.962991 0.124239
C13   C     C_3   0.391609 0.394436 0.036801 0.191920
C14   C     C_3   0.373180 0.550428 0.952824 0.164836
Cl1   Cl    Cl    0.205701 0.610897 0.877499 -0.377110
Cl2   Cl    Cl    0.793242 0.385569 0.122714 -0.481423
Cu1   Cu    Cu3+1 0.500000 0.669080 0.500000 1.223012
Cu2   Cu    Cu3+1 0.500000 0.330920 0.500000 1.225461
H1    H     H_    0.221205 0.930422 0.977780 0.415361
H2    H     H_    0.781466 0.069015 0.019085 0.412421
H3    H     H_    0.823110 0.759512 0.095664 0.362113
H4    H     H_    0.082435 0.411834 0.240574 0.362117
N1    N     N_1   0.500000 0.076820 0.500000 -0.022058
N2    N     N_1   0.500000 0.923180 0.500000 -0.023479
O1    O     O_R   0.288390 0.642760 0.500000 -0.482159
O2    O     O_2   0.499160 0.942260 0.181497 -0.186980
O3    O     O_3   0.325714 0.962853 0.986943 -0.390032
O4    O     O_2   0.503285 0.057735 0.816576 -0.173906
O5    O     O_2   0.737795 0.206030 0.812369 -0.214835
O6    O     O_3   0.676751 0.037021 0.010961 -0.416282
O7    O     O_2   0.860591 0.552295 0.839582 -0.164176
O8    O     O_2   0.743602 0.824699 0.806476 -0.170247
O9    O     O_3   0.881096 0.772975 0.017896 -0.400332
O10   O     O_2   0.133942 0.232091 0.995242 -0.152763
O11   O     O_2   0.260001 0.174795 0.194951 -0.215547
O12   O     O_R   0.711610 0.357240 0.500000 -0.488571
O13   O     O_3   0.131042 0.463767 0.167473 -0.432877
O14   O     O_R   0.711610 0.642760 0.500000 -0.498015
O15   O     O_R   0.288390 0.357240 0.500000 -0.499419
O16   O     O_R   0.499960 0.642760 0.316850 -0.472795
O17   O     O_R   0.500040 0.357240 0.683150 -0.463403
O18   O     O_R   0.500040 0.642760 0.683150 -0.460043
O19   O     O_R   0.499960 0.357240 0.316850 -0.459012
O20   O     O_2   0.263498 0.796533 0.186627 -0.214321
S1    S     S_3+6 0.390372 0.844816 0.103956 0.163576
S2    S     S_3+6 0.611221 0.155597 0.894698 0.172487
S3    S     S_3+6 0.776056 0.692462 0.902386 0.162281
S4    S     S_3+6 0.226026 0.306114 0.098564 0.149946

loop_
_geom_bond_atom_site_label_1
_geom_bond_atom_site_label_2
_ccdc_geom_bond_type
C13   S4    S    
C2    C4    S    
N1    N2    T    
C6    C7    S    
C3    C9    S    
H3    O9    S    
C13   C14   S    
C3    C11   S    
C2    Cl2   S    
C7    O12   A    
C9    O17   A    
C8    O19   A    
C4    C8    S    
O5    S2    D    
Cu2   O15   S    
C2    C12   S    
O3    S1    S    
C10   S1    S    
Cu1   Cu2   S    
Cu1   O1    S    
H2    O6    S    
Cu2   O19   S    
O13   S4    S    
C1    O1    A    
C11   C13   S    
O4    S2    D    
C9    O18   A    
C3    C14   S    
C10   C12   S    
C12   S3    S    
C1    C5    S    
O11   S4    D    
C7    O14   A    
Cu1   O14   S    
C5    C6    T    
O9    S3    S    
O8    S3    D    
Cu1   N2    S    
O10   S4    D    
C2    C11   S    
C4    C10   S    
Cu2   N1    S    
H1    O3    S    
O20   S1    D    
C10   C14   S    
Cu2   O17   S    
C4    C13   S    
C1    O15   A    
Cu1   O18   S    
C11   S2    S    
O7    S3    D    
C3    C12   S    
C8    O16   A    
O2    S1    D    
C14   Cl1   S    
H4    O13   S    
Cu2   O12   S    
O6    S2    S    
Cu1   O16   S    
