data_mof_unit_15496.cif
_audit_creation_date              2012-12-10T20:53:00-0500
_audit_creation_method            fapswitch 2.2
_symmetry_space_group_name_H-M    P1
_symmetry_Int_Tables_number       1
_space_group_crystal_system       triclinic
_cell_length_a                    18.307041
_cell_length_b                    18.335985
_cell_length_c                    18.376598
_cell_angle_alpha                 60.016334
_cell_angle_beta                  60.497194
_cell_angle_gamma                 60.225405
_cell_volume                      4386.03436167

loop_
_atom_site_label
_atom_site_type_symbol
_atom_type_description
_atom_site_fract_x
_atom_site_fract_y
_atom_site_fract_z
_atom_type_partial_charge
C1    C     C_R   0.389296 0.111324 0.108648 0.903196
C2    C     C_R   0.357214 0.830562 0.978936 -0.149330
C3    C     C_R   0.027453 0.566789 0.919153 -0.029842
C4    C     C_R   0.427900 0.076473 0.976269 -0.034914
C5    C     C_R   0.570167 0.921719 0.025416 -0.034703
C6    C     C_R   0.947839 0.944370 0.556419 -0.097454
C7    C     C_R   0.052810 0.055156 0.444143 -0.099453
C8    C     C_R   0.944079 0.556979 0.948052 -0.107075
C9    C     C_R   0.054853 0.444718 0.053076 -0.112888
C10   C     C_R   0.556588 0.947846 0.944582 -0.103211
C11   C     C_R   0.442768 0.051532 0.056104 -0.103450
C12   C     C_3   0.970616 0.646371 0.109028 -0.370136
C13   C     C_R   0.206795 0.946325 0.596683 -0.171373
C14   C     C_3   0.906848 0.740807 0.077476 -0.397965
C15   C     C_3   0.879128 0.751286 0.006061 -0.803121
C16   C     C_3   0.154030 0.467529 0.756280 -0.382794
C17   C     C_3   0.252389 0.429145 0.705903 -0.322857
C18   C     C_3   0.310649 0.450287 0.725023 -0.857652
C19   C     C_3   0.521667 0.241937 0.850075 -0.368603
C20   C     C_3   0.554082 0.295601 0.751404 -0.331260
C21   C     C_3   0.532271 0.273735 0.695954 -0.895895
C22   C     C_3   0.389079 0.749409 0.199688 -0.388472
C23   C     C_3   0.481467 0.731361 0.196516 -0.308300
C24   C     C_R   0.799118 0.043702 0.382830 -0.154517
C25   C     C_3   0.479860 0.719198 0.285192 -0.889305
C26   C     C_3   0.351813 0.712982 0.587488 -0.371384
C27   C     C_3   0.401711 0.686874 0.503970 -0.301925
C28   C     C_3   0.422740 0.587469 0.528066 -0.900558
C29   C     C_3   0.675791 0.239732 0.466990 -0.394414
C30   C     C_3   0.606171 0.322285 0.426236 -0.290345
C31   C     C_3   0.615397 0.408882 0.407538 -0.855310
C32   C     C_R   0.084383 0.633766 0.273883 -0.116060
C33   C     C_R   0.977750 0.381866 0.748264 -0.159989
C34   C     C_R   0.619088 0.258588 0.010794 -0.084775
C35   C     C_R   0.394245 0.751120 0.962050 -0.131574
C36   C     C_R   0.270040 0.983129 0.571271 -0.117651
C37   C     C_R   0.731334 0.011840 0.410643 -0.128509
C38   C     C_R   0.023865 0.588185 0.313881 0.104835
C39   C     C_R   0.610623 0.888708 0.891306 0.911003
C40   C     C_R   0.021384 0.437645 0.669626 0.015763
C41   C     C_R   0.557635 0.334866 0.971740 0.088452
C42   C     C_R   0.435368 0.670563 0.019169 -0.005256
C43   C     C_R   0.361111 0.939041 0.536134 0.010653
C44   C     C_R   0.644927 0.050014 0.461797 -0.030545
C45   C     C_R   0.984290 0.591904 0.261523 0.480798
C46   C     C_R   0.080378 0.465826 0.670846 0.452217
C47   C     C_R   0.525582 0.330840 0.917862 0.426797
C48   C     C_R   0.434703 0.669412 0.097205 0.439792
C49   C     C_R   0.388514 0.852815 0.532797 0.484604
C50   C     C_R   0.110659 0.109621 0.389446 0.918233
C51   C     C_R   0.626321 0.122629 0.484335 0.434553
C52   C     C_R   0.008540 0.640471 0.169256 0.131162
C53   C     C_R   0.094596 0.436428 0.751433 0.104156
C54   C     C_R   0.555587 0.249364 0.905304 0.111440
C55   C     C_R   0.394067 0.749726 0.115284 0.111646
C56   C     C_R   0.324391 0.811931 0.568069 0.115115
C57   C     C_R   0.694338 0.157911 0.451082 0.119451
C58   C     C_R   0.070342 0.684212 0.131228 -0.216270
C59   C     C_R   0.049757 0.380881 0.829217 -0.232627
C60   C     C_R   0.615926 0.173476 0.946531 -0.222964
C61   C     C_R   0.889519 0.890276 0.610596 0.924009
C62   C     C_R   0.356989 0.830042 0.055117 -0.244810
C63   C     C_R   0.233621 0.861098 0.595757 -0.253312
C64   C     C_R   0.780750 0.116712 0.402079 -0.252808
C65   C     C_R   0.942513 0.585762 0.468056 0.400517
C66   C     C_R   0.056390 0.412084 0.533075 0.417841
C67   C     C_R   0.579516 0.474144 0.931742 0.409059
C68   C     C_R   0.413864 0.530963 0.057501 0.425445
C69   C     C_R   0.482571 0.922484 0.573191 0.430463
C70   C     C_R   0.517255 0.074374 0.426484 0.428213
C71   C     C_R   0.944225 0.552208 0.555310 -0.216097
C72   C     C_R   0.109184 0.389598 0.111044 0.919985
C73   C     C_R   0.056565 0.447884 0.444971 -0.193382
C74   C     C_R   0.551215 0.556311 0.942298 -0.213463
C75   C     C_R   0.445738 0.446513 0.051177 -0.197010
C76   C     C_R   0.554620 0.945930 0.553342 -0.209393
C77   C     C_R   0.445241 0.050948 0.446978 -0.186035
C78   C     C_R   0.003940 0.466322 0.586745 -0.165416
C79   C     C_R   0.005131 0.537801 0.410701 -0.154092
C80   C     C_R   0.466731 0.586173 0.003475 -0.163998
C81   C     C_R   0.528168 0.418341 0.987859 -0.142488
C82   C     C_R   0.572650 0.021533 0.479891 -0.165758
C83   C     C_R   0.891042 0.610605 0.888810 0.915352
C84   C     C_R   0.428083 0.974287 0.519687 -0.128415
C85   C     C_R   0.111040 0.390587 0.389670 0.897663
C86   C     C_R   0.889368 0.609597 0.610313 0.838701
C87   C     C_R   0.389957 0.389986 0.109077 0.905437
C88   C     C_R   0.609580 0.610349 0.889786 0.825572
C89   C     C_R   0.389643 0.107535 0.390106 0.903064
C90   C     C_R   0.610267 0.891278 0.610033 0.823173
C91   C     C_R   0.177549 0.930094 0.396837 -0.207364
C92   C     C_R   0.825138 0.068002 0.607822 -0.215258
C93   C     C_R   0.939141 0.376139 0.168003 -0.199486
C94   C     C_R   0.107080 0.681654 0.183387 -0.150894
C95   C     C_R   0.054893 0.634266 0.839457 -0.269047
C96   C     C_R   0.355419 0.151599 0.951906 -0.242007
C97   C     C_R   0.640253 0.844162 0.051390 -0.263387
C98   C     C_R   0.214141 0.841911 0.401471 -0.333981
C99   C     C_R   0.790106 0.155115 0.605932 -0.332087
C100  C     C_R   0.856906 0.368008 0.197777 -0.307374
C101  C     C_R   0.134813 0.645525 0.812889 -0.321679
C102  C     C_R   0.340907 0.175363 0.874556 -0.327242
C103  C     C_R   0.652045 0.817084 0.131153 -0.320312
C104  C     C_R   0.166825 0.782656 0.462381 0.410000
C105  C     C_R   0.991848 0.353874 0.827462 -0.131110
C106  C     C_R   0.836702 0.214836 0.544161 0.399081
C107  C     C_R   0.798310 0.426338 0.148997 0.403431
C108  C     C_R   0.194975 0.584798 0.859485 0.404905
C109  C     C_R   0.402944 0.131559 0.813215 0.404448
C110  C     C_R   0.591224 0.862098 0.191633 0.405431
C111  C     C_R   0.079170 0.814139 0.517714 0.415154
C112  C     C_R   0.922695 0.184484 0.485939 0.415813
C113  C     C_R   0.822817 0.494868 0.069503 0.432602
C114  C     C_R   0.173497 0.511621 0.934381 0.419496
C115  C     C_R   0.480231 0.061708 0.831377 0.436057
C116  C     C_R   0.647568 0.178306 0.998622 -0.161165
C117  C     C_R   0.516925 0.935987 0.170952 0.441531
C118  C     C_R   0.037872 0.907333 0.507670 -0.047200
C119  C     C_R   0.963340 0.091743 0.494160 -0.048919
C120  C     C_R   0.911933 0.496597 0.032875 -0.052513
C121  C     C_R   0.085634 0.507321 0.969645 -0.069009
C122  C     C_R   0.488092 0.027373 0.917523 -0.054293
C123  C     C_R   0.510334 0.971183 0.083976 -0.044444
C124  C     C_R   0.089323 0.964671 0.449121 -0.021333
C125  C     C_R   0.912074 0.034288 0.552993 -0.021631
C126  C     C_R   0.969366 0.438440 0.084433 -0.029675
H1    H     H_    0.219880 0.970698 0.350790 0.172786
H2    H     H_    0.151234 0.700196 0.753409 0.153992
H3    H     H_    0.282577 0.231071 0.860823 0.161227
H4    H     H_    0.706377 0.757249 0.148134 0.173996
H5    H     H_    0.089954 0.720840 0.060606 0.156810
H6    H     H_    0.059171 0.358742 0.891733 0.155410
H7    H     H_    0.638728 0.110238 0.938317 0.158707
H8    H     H_    0.326908 0.892302 0.067667 0.164285
H9    H     H_    0.183329 0.831946 0.620624 0.153553
H10   H     H_    0.834103 0.141703 0.377762 0.155838
H11   H     H_    0.153546 0.716808 0.153479 0.149856
H12   H     H_    0.782820 0.027461 0.654193 0.177888
H13   H     H_    0.957511 0.311255 0.887864 0.159279
H14   H     H_    0.694244 0.119493 0.029846 0.156365
H15   H     H_    0.327275 0.892546 0.933562 0.166479
H16   H     H_    0.136704 0.982096 0.621608 0.168557
H17   H     H_    0.865736 0.013122 0.344203 0.164126
H18   H     H_    0.114439 0.631839 0.313257 0.158783
H19   H     H_    0.932376 0.360434 0.748037 0.166792
H20   H     H_    0.644110 0.261215 0.051681 0.155764
H21   H     H_    0.391255 0.752173 0.904081 0.176552
H22   H     H_    0.247724 0.045175 0.581419 0.188094
H23   H     H_    0.978452 0.331806 0.211915 0.191382
H24   H     H_    0.745880 0.957752 0.391444 0.175759
H25   H     H_    0.737806 0.314029 0.581310 0.335895
H26   H     H_    0.266099 0.683012 0.426253 0.333658
H27   H     H_    0.277867 0.651360 0.782331 0.332327
H28   H     H_    0.714302 0.361762 0.228351 0.337234
H29   H     H_    0.655658 0.780221 0.276831 0.345759
H30   H     H_    0.332204 0.204367 0.733546 0.335321
H31   H     H_    0.824321 0.672758 0.482988 0.335434
H32   H     H_    0.097617 0.303555 0.626854 0.337395
H33   H     H_    0.661931 0.500821 0.811701 0.330210
H34   H     H_    0.015606 0.680279 0.795824 0.203650
H35   H     H_    0.306118 0.621273 0.102559 0.330014
H36   H     H_    0.521472 0.799547 0.649534 0.331062
H37   H     H_    0.589369 0.152389 0.337043 0.339209
H38   H     H_    0.073291 0.692483 0.587074 0.392938
H39   H     H_    0.929118 0.306239 0.419354 0.375238
H40   H     H_    0.700087 0.556433 0.065882 0.370488
H41   H     H_    0.295452 0.453445 0.938993 0.396134
H42   H     H_    0.538420 0.064285 0.707516 0.384411
H43   H     H_    0.458099 0.935342 0.294401 0.363598
H44   H     H_    0.912726 0.518343 0.361874 0.341231
H45   H     H_    0.308183 0.194485 0.990881 0.201235
H46   H     H_    0.111285 0.535721 0.543538 0.350070
H47   H     H_    0.453645 0.457860 0.886321 0.346470
H48   H     H_    0.508458 0.543642 0.132057 0.352276
H49   H     H_    0.511712 0.846174 0.461550 0.345528
H50   H     H_    0.504342 0.126199 0.561504 0.361787
H51   H     H_    0.938028 0.742732 0.946362 0.277787
H52   H     H_    0.847330 0.701299 0.031264 0.265270
H53   H     H_    0.831207 0.819323 0.986357 0.257485
H54   H     H_    0.846832 0.754638 0.134931 0.238183
H55   H     H_    0.939158 0.791238 0.049191 0.228497
H56   H     H_    0.686111 0.800770 0.012664 0.199826
H57   H     H_    0.026681 0.629082 0.050797 0.203932
H58   H     H_    0.934960 0.597727 0.142514 0.245491
H59   H     H_    0.287364 0.522910 0.712085 0.281934
H60   H     H_    0.309248 0.412800 0.795174 0.284456
H61   H     H_    0.380057 0.431167 0.680748 0.258566
H62   H     H_    0.272245 0.355754 0.726198 0.209273
H63   H     H_    0.264077 0.458167 0.633272 0.281822
H64   H     H_    0.132507 0.541531 0.728162 0.231524
H65   H     H_    0.146980 0.447316 0.826710 0.198623
H66   H     H_    0.571017 0.203579 0.698046 0.276462
H67   H     H_    0.280936 0.819308 0.358336 0.153757
H68   H     H_    0.460604 0.282314 0.721895 0.291440
H69   H     H_    0.548469 0.319223 0.626216 0.252482
H70   H     H_    0.521549 0.368267 0.740358 0.276919
H71   H     H_    0.627080 0.279914 0.728726 0.213270
H72   H     H_    0.544739 0.170958 0.856839 0.196685
H73   H     H_    0.447790 0.266033 0.875193 0.224240
H74   H     H_    0.440607 0.782922 0.299153 0.266841
H75   H     H_    0.450016 0.667059 0.338069 0.265977
H76   H     H_    0.548690 0.697350 0.284177 0.275495
H77   H     H_    0.530814 0.670611 0.179096 0.269800
H78   H     H_    0.724623 0.176799 0.651243 0.166631
H79   H     H_    0.503268 0.788711 0.144820 0.226768
H80   H     H_    0.344142 0.814793 0.209469 0.183992
H81   H     H_    0.360425 0.697639 0.256997 0.233495
H82   H     H_    0.453649 0.547155 0.581411 0.275966
H83   H     H_    0.360867 0.574180 0.550011 0.287931
H84   H     H_    0.470373 0.566168 0.469628 0.252756
H85   H     H_    0.359917 0.725819 0.460531 0.217401
H86   H     H_    0.465236 0.701118 0.466638 0.287389
H87   H     H_    0.394599 0.675786 0.630253 0.233858
H88   H     H_    0.292244 0.691358 0.625681 0.183466
H89   H     H_    0.837883 0.317191 0.260649 0.158025
H90   H     H_    0.606466 0.412818 0.469933 0.260156
H91   H     H_    0.681944 0.412689 0.359343 0.278861
H92   H     H_    0.563998 0.466743 0.378510 0.267583
H93   H     H_    0.612873 0.321175 0.363383 0.230520
H94   H     H_    0.538149 0.322067 0.472662 0.274460
H95   H     H_    0.651802 0.225475 0.539424 0.217848
H96   H     H_    0.738524 0.254230 0.438631 0.201797
O1    O     O_3   0.250000 0.250000 0.250000 -0.515862
O2    O     O_R   0.865800 0.694910 0.573470 -0.607420
O3    O     O_R   0.305090 0.426530 0.134200 -0.571005
O4    O     O_R   0.694910 0.573470 0.865800 -0.605080
O5    O     O_R   0.426530 0.134200 0.305090 -0.579403
O6    O     O_R   0.573470 0.865800 0.694910 -0.610363
O7    O     O_R   0.134190 0.426530 0.134200 -0.611971
O8    O     O_R   0.865810 0.573470 0.865800 -0.594146
O9    O     O_R   0.426530 0.134200 0.134190 -0.605577
O10   O     O_R   0.573470 0.865800 0.865810 -0.595917
O11   O     O_R   0.134200 0.134190 0.426530 -0.621103
O12   O     O_3   0.750000 0.750000 0.750000 -0.504942
O13   O     O_R   0.865800 0.865810 0.573470 -0.604674
O14   O     O_R   0.426530 0.305080 0.134210 -0.657583
O15   O     O_R   0.573470 0.694920 0.865790 -0.646891
O16   O     O_R   0.305080 0.134210 0.426530 -0.665437
O17   O     O_R   0.694920 0.865790 0.573470 -0.647683
O18   O     O_R   0.134210 0.426530 0.305080 -0.661588
O19   O     O_R   0.865790 0.573470 0.694920 -0.641953
O20   O     O_3   0.799076 0.303378 0.538443 -0.787702
O21   O     O_3   0.204893 0.693723 0.469318 -0.767528
O22   O     O_3   0.276016 0.594073 0.831834 -0.786329
O23   O     O_R   0.305080 0.134200 0.134200 -0.659069
O24   O     O_3   0.716374 0.418416 0.178033 -0.783773
O25   O     O_3   0.600685 0.832692 0.272980 -0.792710
O26   O     O_3   0.391036 0.157403 0.734030 -0.772220
O27   O     O_3   0.882893 0.667016 0.435382 -0.735000
O28   O     O_3   0.114795 0.327217 0.561384 -0.734780
O29   O     O_3   0.655663 0.447425 0.865483 -0.741854
O30   O     O_3   0.332823 0.555523 0.120981 -0.726216
O31   O     O_3   0.464532 0.847771 0.643602 -0.732267
O32   O     O_3   0.529325 0.151125 0.355243 -0.741715
O33   O     O_3   0.034429 0.754678 0.583737 -0.800184
O34   O     O_R   0.694920 0.865800 0.865800 -0.659531
O35   O     O_3   0.966263 0.244658 0.418895 -0.801626
O36   O     O_3   0.759709 0.562603 0.029409 -0.795358
O37   O     O_3   0.238368 0.441783 0.970879 -0.794847
O38   O     O_3   0.551150 0.030723 0.764311 -0.796341
O39   O     O_3   0.446817 0.969526 0.236803 -0.801734
O40   O     O_3   0.923401 0.549360 0.297269 -0.796472
O41   O     O_3   0.123904 0.522404 0.596154 -0.782593
O42   O     O_3   0.465401 0.403854 0.877076 -0.804964
O43   O     O_3   0.469292 0.591305 0.158740 -0.765694
O44   O     O_3   0.477261 0.804625 0.501922 -0.774566
O45   O     O_R   0.134200 0.134200 0.305080 -0.646643
O46   O     O_3   0.542998 0.161990 0.535935 -0.770640
O47   O     O_R   0.865800 0.865800 0.694920 -0.649358
O48   O     O_R   0.134200 0.305080 0.134200 -0.656116
O49   O     O_R   0.865800 0.694920 0.865800 -0.662192
O50   O     O_R   0.134200 0.305090 0.426530 -0.565994
Zn1   Zn    Zn3+2 0.206620 0.206630 0.380140 1.027647
Zn2   Zn    Zn3+2 0.793380 0.793370 0.619860 1.010513
Zn3   Zn    Zn3+2 0.206630 0.380140 0.206620 1.040416
Zn4   Zn    Zn3+2 0.793370 0.619860 0.793380 1.017844
Zn5   Zn    Zn3+2 0.380140 0.206620 0.206630 1.032664
Zn6   Zn    Zn3+2 0.619860 0.793380 0.793370 1.006047
Zn7   Zn    Zn3+2 0.206620 0.206620 0.206620 0.991544
Zn8   Zn    Zn3+2 0.793380 0.793380 0.793380 0.988456

loop_
_geom_bond_atom_site_label_1
_geom_bond_atom_site_label_2
_ccdc_geom_bond_type
C2    C35   A    
C68   C80   A    
C48   C55   A    
C32   C94   A    
C64   H10   S    
C100  H89   S    
C42   C80   S    
C65   C79   A    
C65   O27   S    
C99   H78   S    
H37   O32   S    
C8    C83   S    
C107  O24   S    
C93   H23   S    
C19   C20   S    
C1    C11   S    
C9    C72   S    
C7    C124  A    
C92   H12   S    
C92   C125  A    
C70   O32   S    
C2    H15   S    
C66   O28   S    
C53   C59   A    
C69   O31   S    
C97   H56   S    
C106  C112  A    
C49   O44   S    
C68   C75   A    
C29   H95   S    
C77   C89   S    
C26   C27   S    
C59   C105  A    
C86   O2    A    
C90   O17   A    
C103  C110  A    
O12   Zn6   S    
H40   O36   S    
C6    C61   S    
C90   O6    A    
C106  O20   S    
C102  C109  A    
C44   C82   S    
C115  O38   S    
C104  O21   S    
C30   C31   S    
C34   C116  A    
C120  C126  A    
C12   H57   S    
O1    Zn7   S    
C38   C79   S    
C24   H17   S    
C28   H84   S    
C71   C86   S    
C55   C62   A    
C18   H61   S    
C101  H2    S    
O12   Zn4   S    
C22   H80   S    
C69   C76   A    
C67   O29   S    
C44   C51   A    
O10   Zn6   S    
C6    C118  A    
C99   C106  A    
C35   C42   A    
C16   C53   S    
C107  C113  A    
C38   C45   A    
C4    C96   A    
C114  C121  A    
O15   Zn6   S    
C36   H22   S    
C88   O4    A    
H28   O24   S    
C109  O26   S    
C16   C17   S    
C87   O3    A    
C96   H45   S    
C13   C63   A    
C33   H19   S    
C9    C121  A    
C52   C58   A    
C102  H3    S    
C51   C57   A    
C32   C38   A    
C21   H68   S    
O16   Zn1   S    
C114  O37   S    
C37   H24   S    
C98   H67   S    
C31   H92   S    
C117  O39   S    
C68   O30   S    
C101  C108  A    
C118  C124  A    
O11   Zn1   S    
C24   C64   A    
C115  C122  A    
C74   C80   A    
C23   H79   S    
C70   C77   A    
C72   O48   A    
C43   C84   S    
O3    Zn3   S    
C112  C119  A    
C34   C41   A    
O4    Zn4   S    
C89   O5    A    
H36   O31   S    
C70   C82   A    
C110  C117  A    
C61   O47   A    
C12   C52   S    
C24   C37   A    
C111  O33   S    
C29   H96   S    
C66   C78   A    
C11   C123  A    
C59   H6    S    
C33   C40   A    
O12   Zn8   S    
C72   O7    A    
O9    Zn5   S    
C95   H34   S    
C96   C102  A    
C7    C119  A    
C33   C105  A    
C7    C50   S    
C13   C36   A    
C25   H76   S    
H30   O26   S    
C76   C82   A    
C109  C115  A    
C43   C49   A    
H49   O44   S    
C54   C60   A    
C31   H90   S    
C45   C52   A    
C17   H63   S    
C28   H83   S    
C65   C71   A    
C66   C73   A    
C18   H60   S    
C87   O14   A    
O14   Zn5   S    
O47   Zn8   S    
C26   C56   S    
C10   C39   S    
C46   O41   S    
C63   H9    S    
O48   Zn7   S    
C50   O11   A    
C108  C114  A    
C29   C30   S    
C16   H65   S    
C112  O35   S    
C105  H13   S    
C113  C120  A    
C1    O9    A    
O1    Zn1   S    
C58   H5    S    
C41   C81   S    
C51   O46   S    
C108  O22   S    
C27   H85   S    
C17   C18   S    
C41   C47   A    
C56   C63   A    
C4    C122  A    
O23   Zn7   S    
C67   C74   A    
C35   H21   S    
C13   H16   S    
C21   H69   S    
C4    C11   A    
C83   O49   A    
O5    Zn5   S    
C93   C100  A    
C73   C85   S    
C97   C103  A    
C91   H1    S    
H26   O21   S    
C47   C54   A    
C10   C122  A    
O12   Zn2   S    
C119  C125  A    
C19   C54   S    
C75   C87   S    
O49   Zn8   S    
C12   C14   S    
C103  H4    S    
C3    C8    A    
C42   C48   A    
C91   C124  A    
C111  C118  A    
C61   O13   A    
C40   C78   S    
H27   O22   S    
H38   O33   S    
C113  O36   S    
C40   C46   A    
C49   C56   A    
C14   H55   S    
O50   Zn1   S    
C85   O50   A    
C57   C64   A    
C30   H94   S    
C58   C94   A    
C94   H11   S    
C8    C120  A    
C50   O45   A    
O7    Zn3   S    
C100  C107  A    
O8    Zn4   S    
O1    Zn5   S    
C22   C23   S    
C19   H72   S    
H48   O43   S    
C89   O16   A    
O34   Zn8   S    
C75   C81   A    
H32   O28   S    
C6    C125  A    
C29   C57   S    
C21   H66   S    
H31   O27   S    
C104  C111  A    
C92   C99   A    
C67   C81   A    
C22   C55   S    
C39   O34   A    
C83   O8    A    
H29   O25   S    
C47   O42   S    
C73   C79   A    
O2    Zn2   S    
C5    C123  A    
C18   H59   S    
C19   H73   S    
C9    C126  A    
C77   C84   A    
O18   Zn3   S    
H44   O40   S    
C26   H88   S    
C85   O18   A    
O6    Zn6   S    
C62   H8    S    
C37   C44   A    
C15   H51   S    
C15   H53   S    
C117  C123  A    
H33   O29   S    
C39   O10   A    
C25   H74   S    
C1    O23   A    
H25   O20   S    
C34   H20   S    
H47   O42   S    
C45   O40   S    
C12   H58   S    
C25   H75   S    
C31   H91   S    
C48   O43   S    
H46   O41   S    
C86   O19   A    
C98   C104  A    
C88   O15   A    
C16   H64   S    
C46   C53   A    
H43   O39   S    
C27   H86   S    
H39   O35   S    
C22   H81   S    
C5    C97   A    
C23   C25   S    
C91   C98   A    
H42   O38   S    
C93   C126  A    
H41   O37   S    
C20   H71   S    
C32   H18   S    
H35   O30   S    
C60   C116  A    
C76   C90   S    
H50   O46   S    
C3    C121  A    
C5    C10   A    
O1    Zn3   S    
C20   C21   S    
O45   Zn7   S    
C28   H82   S    
O17   Zn2   S    
O19   Zn4   S    
C27   C28   S    
C69   C84   A    
O13   Zn2   S    
C23   H77   S    
C14   C15   S    
C36   C43   A    
C3    C95   A    
C17   H62   S    
C74   C88   S    
C2    C62   A    
C60   H7    S    
C20   H70   S    
C71   C78   A    
C14   H54   S    
C95   C101  A    
C26   H87   S    
C15   H52   S    
C30   H93   S    
C116  H14   S    
C110  O25   S    
