data_mof_unit_38374.cif
_audit_creation_date              2012-12-10T18:05:55-0500
_audit_creation_method            fapswitch 2.2
_symmetry_space_group_name_H-M    P1
_symmetry_Int_Tables_number       1
_space_group_crystal_system       triclinic
_cell_length_a                    12.600912
_cell_length_b                    13.305153
_cell_length_c                    14.946811
_cell_angle_alpha                 90.008833
_cell_angle_beta                  101.491937
_cell_angle_gamma                 83.439353
_cell_volume                      2438.9620612

loop_
_atom_site_label
_atom_site_type_symbol
_atom_type_description
_atom_site_fract_x
_atom_site_fract_y
_atom_site_fract_z
_atom_type_partial_charge
C1    C     C_R   0.440669 0.690890 0.485448 0.921850
C2    C     C_R   0.594241 0.505387 0.107674 -0.146177
C3    C     C_R   0.309976 0.614924 0.008973 -0.073232
C4    C     C_R   0.314708 0.622784 0.917604 -0.065954
C5    C     C_R   0.409606 0.585844 0.887858 0.095758
C6    C     C_R   0.504014 0.547948 0.952275 -0.013879
C7    C     C_R   0.599835 0.507459 0.923422 -0.082865
C8    C     C_R   0.699650 0.485817 0.987548 0.326953
C9    C     C_R   0.696646 0.493074 0.081550 0.377990
C10   C     C_R   0.410610 0.582481 0.794719 0.447335
C11   C     C_R   0.497661 0.523271 0.767311 -0.220113
C12   C     C_R   0.498812 0.504958 0.672451 0.888763
C13   C     C_R   0.592071 0.489593 0.830724 -0.125779
C14   C     C_R   0.732441 0.054472 0.566572 0.320422
C15   C     C_R   0.595088 0.200187 0.519990 -0.336575
C16   C     C_R   0.301675 0.837507 0.482443 -0.254410
C17   C     C_R   0.276699 0.939305 0.500100 0.392640
C18   C     C_R   0.357905 0.003338 0.510585 -0.152306
C19   C     C_R   0.461246 0.969240 0.493261 0.047941
C20   C     C_R   0.486171 0.868238 0.470881 -0.000937
C21   C     C_R   0.543577 0.033199 0.503605 -0.073875
C22   C     C_R   0.653460 0.991996 0.524320 -0.091716
C23   C     C_R   0.560068 0.309078 0.511293 1.034298
C24   C     C_R   0.676917 0.895252 0.491136 -0.178702
C25   C     C_R   0.591633 0.840592 0.451701 0.405346
C26   C     C_R   0.521313 0.134449 0.477658 0.348079
C27   C     C_R   0.695540 0.158622 0.576735 0.172556
C28   C     C_R   0.407590 0.800012 0.473378 -0.094438
C29   C     C_R   0.085354 0.357089 0.362165 0.410573
C30   C     C_R   0.807689 0.611783 0.621605 0.430554
C31   C     C_R   0.919496 0.605809 0.664823 0.176530
C32   C     C_R   0.995616 0.538124 0.630652 0.281349
C33   C     C_R   0.966335 0.503088 0.541470 -0.153837
C34   C     C_R   0.497947 0.503894 0.326051 1.053536
C35   C     C_R   0.854003 0.500310 0.507195 0.099021
C36   C     C_R   0.043705 0.460292 0.489692 0.055482
C37   C     C_R   0.009438 0.397919 0.414913 0.007691
C38   C     C_R   0.899747 0.381209 0.393376 -0.132167
C39   C     C_R   0.824192 0.433047 0.437850 -0.017662
C40   C     C_R   0.152904 0.481933 0.506834 -0.000153
C41   C     C_R   0.189488 0.387203 0.379723 0.073781
C42   C     C_R   0.580183 0.469680 0.191836 0.402253
C43   C     C_R   0.491925 0.515696 0.227727 -0.266376
C44   C     C_R   0.401752 0.573324 0.168890 0.383493
C45   C     C_R   0.403113 0.578305 0.074732 0.023099
C46   C     C_R   0.500946 0.545873 0.045134 -0.046154
H1    H     H_    0.756237 0.870156 0.478539 0.198580
H2    H     H_    0.240650 0.786467 0.482980 0.190157
H3    H     H_    0.341864 0.078816 0.535480 0.212156
H4    H     H_    0.246315 0.362047 0.336712 0.228902
H5    H     H_    0.869223 0.332066 0.339242 0.227137
H6    H     H_    0.182458 0.530947 0.561688 0.181737
H7    H     H_    0.743361 0.415945 0.419656 0.229088
H8    H     H_    0.230831 0.634234 0.025515 0.242933
H9    H     H_    0.241438 0.652303 0.869846 0.262116
H10   H     H_    0.659135 0.449274 0.806045 0.262562
N1    N     N_R   0.222190 0.444670 0.452360 -0.167966
N2    N     N_R   0.776970 0.554790 0.547140 -0.133841
O1    O     O_R   0.366740 0.627160 0.477250 -0.613030
O2    O     O_R   0.544830 0.662520 0.507680 -0.571775
O3    O     O_R   0.410940 0.482340 0.616930 -0.609759
O4    O     O_R   0.589030 0.517700 0.647360 -0.565830
O5    O     O_R   0.455170 0.337480 0.492320 -0.572976
O6    O     O_R   0.633260 0.372840 0.522750 -0.603905
O7    O     O_R   0.410970 0.482300 0.352640 -0.575935
O8    O     O_R   0.589060 0.517660 0.383070 -0.583267
Zn1   Zn    Zn3+2 0.381090 0.476390 0.479680 1.058985
Zn2   Zn    Zn3+2 0.618910 0.523610 0.520320 1.091740
S1    S     S_3+6 0.623369 0.338527 0.217074 0.057168
O9    O     O_2   0.725946 0.303371 0.183865 -0.246783
O10   O     O_2   0.640174 0.313677 0.317037 -0.355744
O11   O     O_3   0.523701 0.274527 0.161163 -0.469316
H11   H     H_    0.550256 0.202259 0.175731 0.425720
S2    S     S_3+6 0.868854 0.003217 0.616449 0.161473
O12   O     O_2   0.944234 0.082577 0.615182 -0.134750
O13   O     O_2   0.872410 0.973738 0.714084 -0.195597
O14   O     O_3   0.917254 0.901495 0.563876 -0.506966
H12   H     H_    0.911394 0.842249 0.601881 0.381845
S3    S     S_3+6 0.423405 0.165533 0.373784 0.070382
O15   O     O_2   0.442539 0.260169 0.328033 -0.231044
O16   O     O_2   0.432135 0.079663 0.309152 -0.237293
O17   O     O_3   0.296546 0.180506 0.394796 -0.576592
H13   H     H_    0.250751 0.150064 0.342535 0.415005
S4    S     S_3+6 0.147462 0.983064 0.520679 0.114681
O18   O     O_2   0.129214 0.096748 0.515548 -0.217739
O19   O     O_2   0.061375 0.941289 0.450971 -0.222831
O20   O     O_3   0.140762 0.943008 0.625879 -0.418922
H14   H     H_    0.151419 0.868170 0.623943 0.368656
S5    S     S_3+6 0.611109 0.772276 0.353900 0.090511
O21   O     O_2   0.508231 0.732639 0.307147 -0.260922
O22   O     O_2   0.644675 0.841939 0.288116 -0.221777
O23   O     O_3   0.711033 0.676652 0.383464 -0.506174
H15   H     H_    0.779563 0.708619 0.395359 0.351014
O24   O     O_3   0.061651 0.290053 0.292651 -0.666457
H16   H     H_    0.010250 0.245655 0.308914 0.367507
S6    S     S_3+6 0.286200 0.636852 0.207676 0.071636
O25   O     O_2   0.311146 0.661297 0.306432 -0.287219
O26   O     O_2   0.247124 0.735441 0.155983 -0.230877
O27   O     O_3   0.185697 0.561650 0.189070 -0.518387
H17   H     H_    0.142137 0.579227 0.236374 0.374010
O28   O     O_3   0.726939 0.665234 0.657873 -0.688675
H18   H     H_    0.746869 0.655980 0.725071 0.390336
S7    S     S_3+6 0.091137 0.457352 0.710714 0.116178
O29   O     O_2   0.184324 0.513027 0.753383 -0.260727
O30   O     O_2   0.035576 0.424777 0.784176 -0.174049
O31   O     O_3   0.139224 0.352721 0.661467 -0.513932
H19   H     H_    0.195304 0.316460 0.710268 0.402037
S8    S     S_3+6 0.967362 0.683933 0.757413 0.086768
O32   O     O_2   0.002677 0.621753 0.844328 -0.176078
O33   O     O_2   0.064082 0.729801 0.737664 -0.271242
O34   O     O_3   0.871551 0.777708 0.772080 -0.511477
H20   H     H_    0.899627 0.805343 0.832620 0.420386
O35   O     O_3   0.327585 0.637967 0.733606 -0.716523
H21   H     H_    0.352291 0.649781 0.676073 0.322239
S9    S     S_3+6 0.823118 0.448535 0.947324 0.142845
O36   O     O_2   0.830215 0.521401 0.872574 -0.275826
O37   O     O_2   0.925886 0.444854 0.018524 -0.123015
O38   O     O_3   0.815587 0.332475 0.903727 -0.477730
H22   H     H_    0.876822 0.321451 0.870979 0.435175
S10   S     S_3+6 0.813813 0.514843 0.164368 0.102769
O39   O     O_2   0.781979 0.550776 0.251570 -0.294863
O40   O     O_2   0.891350 0.419535 0.183773 -0.203101
O41   O     O_3   0.876188 0.605100 0.123970 -0.465103
H23   H     H_    0.936536 0.617561 0.174759 0.390265
S11   S     S_3+6 0.764172 0.233043 0.665148 0.124525
O42   O     O_2   0.681028 0.304544 0.699429 -0.302021
O43   O     O_2   0.827134 0.168970 0.745066 -0.148461
O44   O     O_3   0.850073 0.300748 0.624841 -0.471201
H24   H     H_    0.861772 0.267934 0.567614 0.358485

loop_
_geom_bond_atom_site_label_1
_geom_bond_atom_site_label_2
_ccdc_geom_bond_type
C16   C28   A    
O8    Zn2   S    
C21   C26   A    
O28   H18   S    
O41   H23   S    
C31   S8    S    
C19   C20   A    
S4    O20   S    
O20   H14   S    
O44   H24   S    
C34   O8    A    
C7    C8    A    
C45   C46   A    
C2    C46   A    
S2    O13   D    
C35   N2    A    
C5    C6    A    
C14   S2    S    
C36   C37   A    
C19   C21   A    
S4    O19   D    
C1    O1    A    
C30   C31   A    
C3    H8    S    
O31   H19   S    
S9    O36   D    
S6    O27   S    
C30   N2    A    
C33   C36   A    
S8    O32   D    
C18   C19   A    
S1    O10   D    
O38   H22   S    
C8    S9    S    
O1    Zn1   S    
O34   H20   S    
C16   C17   A    
S9    O37   D    
S2    O14   S    
S6    O26   D    
C1    C28   S    
C14   C27   A    
S5    O22   D    
S10   O41   S    
O14   H12   S    
C13   H10   S    
C23   O5    A    
S11   O42   D    
C21   C22   A    
C16   H2    S    
O24   H16   S    
N1    Zn1   S    
C34   O7    A    
S10   O40   D    
C38   C39   A    
O5    Zn1   S    
S2    O12   D    
C36   C40   A    
C24   C25   A    
C1    O2    A    
S3    O16   D    
C8    C9    A    
C15   C26   A    
C38   H5    S    
C20   C28   A    
O7    Zn1   S    
C40   H6    S    
C3    C45   A    
C42   S1    S    
S1    O11   S    
C35   C39   A    
C43   C44   A    
C37   C38   A    
C44   S6    S    
S11   O44   S    
C12   O4    A    
O3    Zn1   S    
C15   C27   A    
O27   H17   S    
C7    C13   A    
S9    O38   S    
S6    O25   D    
C17   C18   A    
C32   S7    S    
S7    O30   D    
S4    O18   D    
S5    O23   S    
C10   O35   S    
N2    Zn2   S    
C23   O6    A    
C4    H9    S    
C29   O24   S    
C22   C24   A    
C42   C43   A    
C3    C4    A    
O6    Zn2   S    
C41   H4    S    
C44   C45   A    
O35   H21   S    
C40   N1    A    
C6    C46   A    
C29   C41   A    
C24   H1    S    
C31   C32   A    
C34   C43   S    
O11   H11   S    
S3    O17   S    
C11   C12   S    
C6    C7    A    
C25   S5    S    
C26   S3    S    
S8    O34   S    
O4    Zn2   S    
C17   S4    S    
C32   C33   A    
C14   C22   A    
C41   N1    A    
C5    C10   A    
C12   O3    A    
C11   C13   A    
C39   H7    S    
C2    C42   A    
C27   S11   S    
C30   O28   S    
C15   C23   S    
O23   H15   S    
C33   C35   A    
S8    O33   D    
S7    O31   S    
S1    O9    D    
C10   C11   A    
S3    O15   D    
C4    C5    A    
O2    Zn2   S    
O17   H13   S    
C20   C25   A    
C29   C37   A    
S7    O29   D    
S11   O43   D    
C9    S10   S    
S10   O39   D    
S5    O21   D    
C2    C9    A    
C18   H3    S    
