data_mof_unit_55950.cif
_audit_creation_date              2012-12-10T17:02:48-0500
_audit_creation_method            fapswitch 2.2
_symmetry_space_group_name_H-M    P1
_symmetry_Int_Tables_number       1
_space_group_crystal_system       triclinic
_cell_length_a                    18.43104
_cell_length_b                    19.036171
_cell_length_c                    18.780275
_cell_angle_alpha                 109.562279
_cell_angle_beta                  108.409177
_cell_angle_gamma                 108.615961
_cell_volume                      5183.07117665

loop_
_atom_site_label
_atom_site_type_symbol
_atom_type_description
_atom_site_fract_x
_atom_site_fract_y
_atom_site_fract_z
_atom_type_partial_charge
C1    C     C_R   0.385673 0.383153 0.505946 0.855745
C2    C     C_R   0.326583 0.318882 0.586976 -0.066476
C3    C     C_3   0.980078 0.098137 0.135049 0.069687
C4    C     C_3   0.943515 0.157083 0.167745 -0.385548
C5    C     C_3   0.912218 0.188344 0.105151 -0.901565
C6    C     C_3   0.283824 0.551658 0.524013 0.131747
C7    C     C_3   0.289392 0.629050 0.511010 -0.418771
C8    C     C_3   0.315262 0.704635 0.594305 -0.930462
C9    C     C_3   0.035437 0.418265 0.436094 0.042680
C10   C     C_3   0.064759 0.513142 0.487463 -0.361438
C11   C     C_3   0.991232 0.526682 0.498908 -0.903470
C12   C     C_3   0.977991 0.522312 0.254382 0.062636
C13   C     C_R   0.185726 0.188532 0.502530 -0.122946
C14   C     C_3   0.883929 0.451100 0.192110 -0.306458
C15   C     C_3   0.822549 0.461994 0.228101 -0.934352
C16   C     C_3   0.233070 0.428112 0.974951 0.079216
C17   C     C_3   0.243836 0.469287 0.918917 -0.347397
C18   C     C_3   0.256601 0.416703 0.847200 -0.934781
C19   C     C_3   0.751742 0.009638 0.491788 0.089512
C20   C     C_3   0.694309 0.947407 0.394878 -0.370173
C21   C     C_3   0.651068 0.986696 0.348588 -0.946103
C22   C     C_3   0.156137 0.573215 0.764018 0.038805
C23   C     C_3   0.143731 0.626224 0.836443 -0.333220
C24   C     C_R   0.618165 0.498585 0.619453 0.946987
C25   C     C_3   0.229739 0.703333 0.908395 -0.921588
C26   C     C_3   0.787774 0.336052 0.662260 0.211571
C27   C     C_3   0.756029 0.244985 0.596616 -0.361375
C28   C     C_3   0.796402 0.243040 0.536941 -0.946575
C29   C     C_3   0.975796 0.235195 0.471923 0.068688
C30   C     C_3   0.902806 0.149829 0.394670 -0.274477
C31   C     C_3   0.842717 0.162139 0.328064 -1.014271
C32   C     C_3   0.993823 0.992336 0.844269 0.049698
C33   C     C_3   0.043122 0.975155 0.793832 -0.349956
C34   C     C_3   0.113604 0.956848 0.839370 -0.921162
C35   C     C_R   0.176592 0.192203 0.425947 -0.007823
C36   C     C_3   0.250700 0.995346 0.515989 0.094980
C37   C     C_3   0.229379 0.936283 0.554189 -0.328217
C38   C     C_3   0.311739 0.951811 0.624810 -0.968425
C39   C     C_R   0.238685 0.262585 0.431122 0.090039
C40   C     C_R   0.316534 0.321208 0.509016 -0.158916
C41   C     C_R   0.106814 0.127449 0.343543 -0.206279
C42   C     C_R   0.089474 0.138414 0.271036 0.518600
C43   C     C_R   0.148446 0.212832 0.279231 -0.273889
C44   C     C_R   0.221578 0.273052 0.357382 -0.157549
C45   C     C_3   0.811101 0.498407 0.807446 -0.157826
C46   C     C_R   0.204531 0.462615 0.376592 0.372656
C47   C     C_R   0.118579 0.430022 0.362662 0.397732
C48   C     C_R   0.057243 0.429223 0.295935 -0.439557
C49   C     C_R   0.618204 0.617398 0.497323 0.780041
C50   C     C_R   0.083649 0.474670 0.255518 0.422691
C51   C     C_R   0.163297 0.485881 0.251780 -0.075954
C52   C     C_R   0.226119 0.481693 0.315670 -0.158977
C53   C     C_R   0.182037 0.499956 0.186996 -0.141080
C54   C     C_R   0.264056 0.513708 0.189521 -0.002905
C55   C     C_R   0.330317 0.525754 0.262725 0.010632
C56   C     C_3   0.849736 0.542066 0.759734 0.669676
C57   C     C_R   0.309314 0.501065 0.319399 -0.110478
C58   C     C_R   0.283454 0.514697 0.121456 0.481604
C59   C     C_R   0.371231 0.555227 0.140433 -0.236838
C60   C     C_R   0.437533 0.580095 0.218799 -0.206109
C61   C     C_R   0.376367 0.496689 0.382359 0.849674
C62   C     C_R   0.417450 0.562041 0.277801 -0.154289
C63   C     C_R   0.598724 0.761946 0.501501 -0.140057
C64   C     C_R   0.599528 0.838948 0.533605 -0.214488
C65   C     C_R   0.669923 0.911044 0.554905 -0.200915
C66   C     C_R   0.735916 0.905626 0.534260 0.466777
C67   C     C_3   0.773122 0.551948 0.850817 0.068056
C68   C     C_R   0.741641 0.827867 0.511488 -0.013636
C69   C     C_R   0.673382 0.756685 0.500314 0.028719
C70   C     C_R   0.810874 0.817428 0.498359 -0.186646
C71   C     C_R   0.808552 0.737243 0.469828 0.050958
C72   C     C_R   0.743622 0.668835 0.465334 0.071045
C73   C     C_3   0.657026 0.406852 0.676696 0.135408
C74   C     C_R   0.679086 0.681030 0.486666 -0.182785
C75   C     C_R   0.870802 0.723877 0.445514 -0.160247
C76   C     C_R   0.870585 0.646486 0.419759 -0.140303
C77   C     C_R   0.809486 0.580581 0.418486 -0.155150
C78   C     C_R   0.400574 0.379883 0.669816 0.446653
C79   C     C_R   0.747466 0.591154 0.441206 -0.180240
C80   C     C_R   0.999505 0.382488 0.879183 0.891253
C81   C     C_R   0.878637 0.497489 0.875515 0.914477
C82   C     C_R   0.996126 0.617841 0.115854 0.844765
C83   C     C_R   0.116449 0.500094 0.117324 0.984275
C84   C     C_R   0.003532 0.883571 0.382762 0.863796
C85   C     C_3   0.731244 0.406164 0.744443 0.110486
C86   C     C_R   0.118757 0.118382 0.499570 0.877786
C87   C     C_R   0.002076 0.121788 0.616621 0.892691
C88   C     C_R   0.880750 0.886081 0.503793 0.859941
C89   C     C_R   0.410001 0.367343 0.740957 -0.210523
C90   C     C_R   0.026966 0.407082 0.743091 -0.276817
C91   C     C_R   0.062457 0.430904 0.694711 0.462391
C92   C     C_R   0.073449 0.373024 0.637201 -0.338124
C93   C     C_R   0.038808 0.288201 0.620090 0.368399
C94   C     C_R   0.018887 0.268427 0.681586 -0.019896
C95   C     C_R   0.016975 0.331589 0.746841 -0.073057
C96   C     C_R   0.999384 0.188951 0.680241 -0.124190
C97   C     C_3   0.773596 0.532254 0.683140 0.155892
C98   C     C_R   0.983499 0.174928 0.744602 -0.075828
C99   C     C_R   0.997589 0.243005 0.817119 0.023325
C100  C     C_R   0.340488 0.307908 0.737316 -0.248158
C101  C     C_R   0.005197 0.318413 0.813759 -0.125713
C102  C     C_R   0.955306 0.093736 0.738696 -0.214431
C103  C     C_R   0.952968 0.082315 0.807454 0.473115
C104  C     C_R   0.978952 0.152208 0.883884 -0.336849
C105  C     C_R   0.005038 0.233242 0.891022 0.365510
C106  C     C_R   0.161674 0.757679 0.261196 0.434909
C107  C     C_R   0.234396 0.835539 0.300420 -0.187558
C108  C     C_R   0.234595 0.907672 0.350218 -0.323858
C109  C     C_3   0.707117 0.559481 0.781705 0.133303
C110  C     C_R   0.165833 0.901270 0.369739 0.464333
C111  C     C_R   0.263371 0.256736 0.661322 -0.145726
C112  C     C_R   0.083572 0.824605 0.315489 -0.061476
C113  C     C_R   0.080879 0.753741 0.254693 -0.099733
C114  C     C_R   0.004549 0.815480 0.318232 -0.145653
C115  C     C_R   0.924080 0.741103 0.256213 0.055018
C116  C     C_R   0.920543 0.678617 0.186609 -0.005875
C117  C     C_R   0.999062 0.683343 0.187524 -0.158409
C118  C     C_R   0.845747 0.728409 0.260683 -0.207573
C119  C     C_R   0.765972 0.660270 0.194780 -0.235617
C120  C     C_R   0.761273 0.603523 0.121168 0.446507
C121  C     C_3   0.687366 0.498618 0.688493 -0.165772
C122  C     C_R   0.258151 0.253906 0.583172 0.024374
C123  C     C_R   0.837846 0.613339 0.117103 -0.165713
C124  C     C_3   0.541529 0.283216 0.551437 0.129743
C125  C     C_3   0.529945 0.219286 0.585155 -0.357265
C126  C     C_3   0.435539 0.169729 0.562408 -0.957005
C127  C     C_3   0.836160 0.630694 0.640923 0.095496
C128  C     C_3   0.930486 0.700850 0.701105 -0.305001
C129  C     C_3   0.969677 0.737295 0.653122 -0.923113
C130  C     C_3   0.456363 0.525510 0.738652 0.173279
C131  C     C_3   0.364280 0.517048 0.709074 -0.425654
C132  C     C_3   0.367329 0.602430 0.751424 -0.972975
Cu1   Cu    Cu3+1 0.500360 0.438220 0.438540 0.933771
Cu2   Cu    Cu3+1 0.499640 0.561780 0.561460 0.954909
Cu3   Cu    Cu3+1 0.935530 0.438290 0.997340 0.989979
Cu4   Cu    Cu3+1 0.059130 0.561800 0.997250 1.005088
Cu5   Cu    Cu3+1 0.937870 0.000030 0.437890 0.931526
Cu6   Cu    Cu3+1 0.062130 0.000000 0.562130 0.907921
H1    H     H_    0.140372 0.225592 0.226216 0.135160
H2    H     H_    0.388573 0.565148 0.093474 0.135695
H3    H     H_    0.116909 0.587520 0.863695 0.229182
H4    H     H_    0.276730 0.682976 0.936031 0.252139
H5    H     H_    0.218706 0.740327 0.959920 0.257969
H6    H     H_    0.257634 0.744700 0.883765 0.256834
H7    H     H_    0.858296 0.364046 0.703466 0.162541
H8    H     H_    0.774632 0.370257 0.626564 0.198380
H9    H     H_    0.773414 0.210027 0.630334 0.215899
H10   H     H_    0.684389 0.212689 0.557328 0.232021
H11   H     H_    0.779148 0.276995 0.501970 0.259491
H12   H     H_    0.771715 0.176602 0.489211 0.252890
H13   H     H_    0.471292 0.578521 0.336161 0.133807
H14   H     H_    0.868038 0.273265 0.574274 0.267952
H15   H     H_    0.022888 0.264020 0.451976 0.170306
H16   H     H_    0.944630 0.275563 0.487799 0.129514
H17   H     H_    0.930352 0.113661 0.362982 0.239041
H18   H     H_    0.863684 0.112323 0.415777 0.225282
H19   H     H_    0.808184 0.192478 0.354863 0.266146
H20   H     H_    0.793627 0.099644 0.270728 0.264536
H21   H     H_    0.880654 0.202565 0.308188 0.262572
H22   H     H_    0.966349 0.936844 0.853331 0.180389
H23   H     H_    0.039322 0.047613 0.909806 0.124074
H24   H     H_    0.810266 0.520746 0.400686 0.131305
H25   H     H_    0.996708 0.920174 0.728728 0.239578
H26   H     H_    0.074261 0.031165 0.786842 0.217717
H27   H     H_    0.161698 0.012147 0.903893 0.257997
H28   H     H_    0.147878 0.944449 0.801314 0.254124
H29   H     H_    0.084483 0.900299 0.846336 0.261400
H30   H     H_    0.046447 0.285400 0.014821 0.314476
H31   H     H_    0.635374 0.539442 0.065247 0.313638
H32   H     H_    0.132564 0.644775 0.241239 0.320072
H33   H     H_    0.269895 0.060214 0.563572 0.177982
H34   H     H_    0.309366 0.000478 0.509149 0.124543
H35   H     H_    0.702977 0.391346 0.785258 0.128011
H36   H     H_    0.187332 0.948055 0.582741 0.238526
H37   H     H_    0.194787 0.868893 0.503539 0.214237
H38   H     H_    0.354286 0.937295 0.598204 0.262226
H39   H     H_    0.294089 0.910023 0.652668 0.261039
H40   H     H_    0.347873 0.018843 0.676544 0.260095
H41   H     H_    0.918011 0.533716 0.698779 0.320474
H42   H     H_    0.644933 0.588260 0.842972 0.312285
H43   H     H_    0.538890 0.706851 0.479100 0.156261
H44   H     H_    0.544714 0.842567 0.541084 0.157020
H45   H     H_    0.669757 0.970631 0.582902 0.136136
H46   H     H_    0.920501 0.772381 0.445136 0.140567
H47   H     H_    0.918964 0.638171 0.402056 0.134760
H48   H     H_    0.706432 0.537107 0.441694 0.168640
H49   H     H_    0.468635 0.409858 0.801864 0.165483
H50   H     H_    0.980043 0.143548 0.938298 0.134042
H51   H     H_    0.008331 0.449499 0.777208 0.204357
H52   H     H_    0.099144 0.391101 0.598075 0.159863
H53   H     H_    0.935845 0.037982 0.681094 0.187438
H54   H     H_    0.293208 0.839505 0.297405 0.173156
H55   H     H_    0.292459 0.967791 0.380715 0.156189
H56   H     H_    0.761729 0.484519 0.620837 0.093388
H57   H     H_    0.844401 0.770659 0.314826 0.162838
H58   H     H_    0.707658 0.653147 0.200415 0.132127
H59   H     H_    0.830480 0.569515 0.057834 0.170676
H60   H     H_    0.344939 0.304174 0.794681 0.161376
H61   H     H_    0.735085 0.626034 0.793264 0.219064
H62   H     H_    0.738893 0.518671 0.878717 0.138777
H63   H     H_    0.519248 0.248300 0.481578 0.153619
H64   H     H_    0.499414 0.313217 0.558031 0.136405
H65   H     H_    0.551905 0.174179 0.557192 0.208347
H66   H     H_    0.569218 0.251866 0.655972 0.243234
H67   H     H_    0.411628 0.213302 0.589384 0.267877
H68   H     H_    0.431544 0.127356 0.591221 0.251281
H69   H     H_    0.394101 0.131406 0.491710 0.259257
H70   H     H_    0.811873 0.657043 0.951304 0.321743
H71   H     H_    0.208583 0.220216 0.666055 0.172265
H72   H     H_    0.802253 0.655909 0.605230 0.174099
H73   H     H_    0.834039 0.574895 0.593552 0.100191
H74   H     H_    0.933286 0.752704 0.753742 0.249525
H75   H     H_    0.970619 0.675162 0.729442 0.206070
H76   H     H_    0.963786 0.686062 0.597710 0.265124
H77   H     H_    0.039590 0.783366 0.696511 0.258249
H78   H     H_    0.935913 0.770209 0.629929 0.271655
H79   H     H_    0.967391 0.641208 0.840237 0.340827
H80   H     H_    0.499088 0.582409 0.739304 0.182896
H81   H     H_    0.484297 0.537516 0.805967 0.118712
H82   H     H_    0.063962 0.066870 0.333170 0.179987
H83   H     H_    0.329672 0.489239 0.638553 0.244003
H84   H     H_    0.325938 0.473284 0.725711 0.213768
H85   H     H_    0.393363 0.626725 0.821648 0.266250
H86   H     H_    0.300791 0.594695 0.723747 0.249626
H87   H     H_    0.408649 0.649227 0.739463 0.250838
H88   H     H_    0.924901 0.039737 0.076394 0.172862
H89   H     H_    0.026194 0.124226 0.112987 0.122648
H90   H     H_    0.888207 0.121896 0.175581 0.228019
H91   H     H_    0.993416 0.213245 0.231028 0.231288
H92   H     H_    0.967307 0.225853 0.098448 0.252319
H93   H     H_    0.602611 0.394400 0.693364 0.134705
H94   H     H_    0.885061 0.229559 0.129750 0.253297
H95   H     H_    0.860815 0.133919 0.041249 0.259033
H96   H     H_    0.347931 0.573350 0.576986 0.184230
H97   H     H_    0.236005 0.532776 0.546561 0.154774
H98   H     H_    0.338122 0.647493 0.488968 0.245304
H99   H     H_    0.225679 0.613831 0.461982 0.198817
H100  H     H_    0.267210 0.687983 0.617595 0.253111
H101  H     H_    0.317209 0.758667 0.582920 0.266717
H102  H     H_    0.380663 0.724505 0.644280 0.253541
H103  H     H_    0.024014 0.391050 0.477222 0.150235
H104  H     H_    0.263683 0.328871 0.359141 0.172249
H105  H     H_    0.970942 0.383529 0.378488 0.134095
H106  H     H_    0.119586 0.540756 0.552152 0.219950
H107  H     H_    0.086466 0.547707 0.454789 0.202435
H108  H     H_    0.935192 0.499928 0.435412 0.234955
H109  H     H_    0.014103 0.595560 0.535311 0.253755
H110  H     H_    0.970292 0.495855 0.534856 0.282787
H111  H     H_    0.979829 0.582778 0.260364 0.154823
H112  H     H_    0.998934 0.532011 0.320783 0.122717
H113  H     H_    0.860939 0.451136 0.130101 0.248480
H114  H     H_    0.879455 0.388024 0.178021 0.196138
H115  H     H_    0.504609 0.609660 0.232212 0.155284
H116  H     H_    0.840821 0.457102 0.287746 0.242108
H117  H     H_    0.754967 0.411287 0.180653 0.264955
H118  H     H_    0.824945 0.524366 0.241601 0.271990
H119  H     H_    0.175666 0.364308 0.933740 0.184558
H120  H     H_    0.288981 0.416613 0.000630 0.115708
H121  H     H_    0.185417 0.475694 0.890281 0.249621
H122  H     H_    0.300284 0.533919 0.958184 0.201610
H123  H     H_    0.320098 0.417858 0.874765 0.255458
H124  H     H_    0.255902 0.443845 0.803367 0.256187
H125  H     H_    0.203592 0.350143 0.809613 0.261704
H126  H     H_    0.990339 0.401337 0.281193 0.164233
H127  H     H_    0.802078 0.066571 0.499840 0.182882
H128  H     H_    0.714839 0.034395 0.519873 0.115480
H129  H     H_    0.734369 0.929606 0.366542 0.240615
H130  H     H_    0.642507 0.888867 0.383628 0.215065
H131  H     H_    0.610963 0.006007 0.376021 0.261549
H132  H     H_    0.608286 0.939579 0.279494 0.263622
H133  H     H_    0.700857 0.042815 0.354242 0.256751
H134  H     H_    0.185270 0.614585 0.739989 0.161664
H135  H     H_    0.203739 0.552031 0.789386 0.135041
H136  H     H_    0.097219 0.647811 0.810598 0.218086
O1    O     O_R   0.410140 0.357660 0.448100 -0.620217
O2    O     O_R   0.052970 0.909860 0.462770 -0.578848
O3    O     O_R   0.037700 0.090200 0.447550 -0.590545
O4    O     O_R   0.409530 0.462000 0.551910 -0.539873
O5    O     O_R   0.142640 0.090170 0.552470 -0.598177
O6    O     O_R   0.947030 0.090160 0.537260 -0.548687
O7    O     O_R   0.051970 0.090130 0.642170 -0.625852
O8    O     O_R   0.857360 0.909860 0.447560 -0.578693
O9    O     O_R   0.962300 0.909830 0.552480 -0.615811
O10   O     O_R   0.590960 0.447830 0.538760 -0.593272
O11   O     O_R   0.590350 0.552170 0.642570 -0.549021
O12   O     O_R   0.049980 0.462000 0.907580 -0.622954
O13   O     O_R   0.590470 0.538000 0.448090 -0.608974
O14   O     O_R   0.589860 0.642340 0.551900 -0.579816
O15   O     O_R   0.409650 0.447830 0.357430 -0.596922
O16   O     O_R   0.409040 0.552170 0.461240 -0.580831
O17   O     O_R   0.945600 0.357690 0.907660 -0.545490
O18   O     O_3   0.629899 0.345226 0.591999 -0.597542
O19   O     O_3   0.838908 0.632768 0.918737 -0.676041
O20   O     O_3   0.792733 0.612846 0.687722 -0.596271
O21   O     O_3   0.906008 0.629684 0.817970 -0.642433
O22   O     O_3   0.460260 0.455334 0.683853 -0.578637
O23   O     O_R   0.854480 0.447890 0.906670 -0.613809
O24   O     O_3   0.015288 0.072911 0.194820 -0.617036
O25   O     O_3   0.267976 0.479524 0.452494 -0.596497
O26   O     O_3   0.099607 0.402187 0.417880 -0.606011
O27   O     O_3   0.035061 0.509643 0.221332 -0.609723
O28   O     O_3   0.216679 0.476201 0.038146 -0.598731
O29   O     O_3   0.794448 0.975720 0.537423 -0.629795
O30   O     O_3   0.074891 0.506355 0.694529 -0.613999
O31   O     O_3   0.747301 0.336003 0.714534 -0.593998
O32   O     O_3   0.020946 0.225622 0.542360 -0.593009
O33   O     O_3   0.923357 0.001560 0.798123 -0.602272
O34   O     O_R   0.958860 0.552200 0.906600 -0.569793
O35   O     O_3   0.044667 0.303503 0.970810 -0.727972
O36   O     O_3   0.683150 0.537601 0.052357 -0.751495
O37   O     O_3   0.173606 0.687642 0.235103 -0.723002
O38   O     O_3   0.178557 0.970758 0.438162 -0.609676
O39   O     O_3   0.896991 0.505923 0.729680 -0.852581
O40   O     O_3   0.630998 0.540057 0.789474 -0.739515
O41   O     O_R   0.944670 0.538090 0.087010 -0.608155
O42   O     O_R   0.049050 0.642400 0.086940 -0.541618
O43   O     O_R   0.035800 0.447890 0.088000 -0.539843
O44   O     O_R   0.140170 0.552200 0.087920 -0.523509
O45   O     O_R   0.948030 0.909890 0.357850 -0.601536

loop_
_geom_bond_atom_site_label_1
_geom_bond_atom_site_label_2
_ccdc_geom_bond_type
Cu5   O6    S    
C36   O38   S    
C19   C20   S    
C114  C115  A    
C90   C95   A    
C18   H124  S    
C72   C79   A    
C106  O37   S    
C106  C107  A    
C55   C62   A    
C130  O22   S    
C60   C62   A    
H30   O35   S    
C86   O3    A    
C129  H76   S    
H79   O21   S    
C7    H99   S    
C45   C56   S    
C107  H54   S    
Cu2   O14   S    
C30   H18   S    
C59   C60   A    
C50   O27   S    
C20   H129  S    
C104  C105  A    
C21   H132  S    
C77   C79   A    
C78   C89   A    
C66   O29   S    
C51   C52   A    
C84   O45   A    
C67   H62   S    
C14   H113  S    
C98   C102  A    
C83   O43   A    
C12   H111  S    
Cu1   O15   S    
C22   O30   S    
C75   C76   A    
C37   C38   S    
H41   O39   S    
C37   H37   S    
C16   H120  S    
C38   H38   S    
C126  H69   S    
C115  C118  A    
C102  H53   S    
C110  O38   S    
C69   C74   A    
C17   H122  S    
C94   C96   A    
C118  H57   S    
C31   H19   S    
C19   H128  S    
Cu3   O41   S    
C99   C101  A    
Cu5   O8    S    
C73   C121  S    
C84   O2    A    
C109  H61   S    
C34   H29   S    
C91   C92   A    
C41   H82   S    
C77   H24   S    
C7    H98   S    
C84   C114  S    
C45   C81   S    
C4    C5    S    
C124  O18   S    
C88   O8    A    
C57   C61   S    
C6    C7    S    
C8    H100  S    
H32   O37   S    
C80   O12   A    
C124  H63   S    
C129  H78   S    
C47   O26   S    
C64   C65   A    
C109  C121  S    
C59   H2    S    
Cu6   O7    S    
C24   C121  S    
C130  C131  S    
C73   O18   S    
C87   O6    A    
H31   O36   S    
C2    C40   A    
C20   C21   S    
C100  C111  A    
C98   C99   A    
C22   C23   S    
C23   H3    S    
C100  H60   S    
C125  H66   S    
C63   H43   S    
C116  C123  A    
C109  O40   S    
C132  H85   S    
C25   H4    S    
C9    H103  S    
C128  C129  S    
C112  C114  A    
C44   H104  S    
C7    C8    S    
C15   H117  S    
C53   C54   A    
Cu5   O3    S    
C36   C37   S    
C33   H25   S    
C13   C35   A    
C6    O25   S    
C126  H67   S    
C115  C116  A    
C26   H8    S    
C60   H115  S    
C9    O26   S    
C97   C121  S    
C105  O35   S    
C63   C69   A    
Cu4   O44   S    
C96   C98   A    
C107  C108  A    
C131  H84   S    
C34   H27   S    
C9    C10   S    
C22   H135  S    
C64   H44   S    
C6    H96   S    
C28   H11   S    
C38   H39   S    
C32   H23   S    
C111  C122  A    
C130  H81   S    
C56   C97   S    
C75   H46   S    
C8    H102  S    
C104  H50   S    
C36   H34   S    
C106  C113  A    
C39   C40   A    
C16   C17   S    
C51   C53   A    
Cu6   O9    S    
C29   C30   S    
Cu4   O34   S    
C82   O41   A    
C17   C18   S    
C3    H88   S    
C73   C85   S    
C113  C117  A    
C25   H6    S    
C3    C4    S    
C9    H105  S    
C73   H93   S    
C54   C55   A    
C120  O36   S    
C123  H59   S    
C39   C44   A    
C4    H91   S    
C18   H125  S    
C48   C50   A    
C108  C110  A    
C29   O32   S    
C102  C103  A    
C35   C41   A    
C110  C112  A    
C10   C11   S    
C63   C64   A    
C14   C15   S    
Cu5   O45   S    
C76   H47   S    
C95   C101  A    
C29   H16   S    
C93   O32   S    
C49   O14   A    
Cu1   O1    S    
C79   H48   S    
C41   C42   A    
C20   H130  S    
C21   H131  S    
Cu3   Cu4   S    
C32   O33   S    
C26   C27   S    
C27   H10   S    
C11   H110  S    
C29   H15   S    
Cu3   O23   S    
C54   C58   A    
C30   C31   S    
C14   H114  S    
C61   O16   A    
C12   H112  S    
C37   H36   S    
C12   O27   S    
C45   C67   S    
C70   C71   A    
C17   H121  S    
C120  C123  A    
C19   H127  S    
C70   C88   S    
C89   H49   S    
C92   H52   S    
C2    C122  A    
C62   H13   S    
C89   C100  A    
Cu2   O4    S    
C10   H106  S    
C46   O25   S    
C18   H123  S    
C72   C74   A    
Cu3   O43   S    
C42   O24   S    
C58   C59   A    
C97   O20   S    
C124  H64   S    
C97   H56   S    
C129  H77   S    
C35   C39   A    
C127  H72   S    
C78   O22   S    
C50   C51   A    
C5    H94   S    
C131  H83   S    
C10   H107  S    
C58   O28   S    
C30   H17   S    
C125  C126  S    
C19   O29   S    
C42   C43   A    
C127  C128  S    
C3    H89   S    
H70   O19   S    
C56   O39   S    
C21   H133  S    
C22   H134  S    
C46   C47   A    
C125  H65   S    
C132  H86   S    
C11   H108  S    
Cu2   O16   S    
C119  C120  A    
Cu1   O10   S    
C83   O44   A    
C53   C83   S    
C32   C33   S    
C1    O4    A    
C128  H74   S    
C16   H119  S    
C90   C91   A    
C126  H68   S    
C92   C93   A    
C4    H90   S    
C94   C95   A    
C31   H20   S    
C52   C57   A    
C71   C72   A    
C103  C104  A    
C49   C74   S    
C82   C117  S    
C34   H28   S    
C66   C68   A    
C6    H97   S    
C28   H12   S    
C93   C94   A    
C38   H40   S    
Cu6   O5    S    
C87   O7    A    
C43   C44   A    
Cu4   O12   S    
Cu4   O42   S    
C2    C78   A    
C23   H136  S    
C46   C52   A    
Cu2   O11   S    
C116  C117  A    
C130  H80   S    
C119  H58   S    
C118  C119  A    
C1    C40   S    
C68   C69   A    
C67   C109  S    
C24   O10   A    
C82   O42   A    
Cu1   O13   S    
C13   C86   S    
C85   H35   S    
C43   H1    S    
C128  H75   S    
C5    H95   S    
C25   H5    S    
C112  C113  A    
C15   H118  S    
C99   C105  A    
C33   H26   S    
C76   C77   A    
C48   H126  S    
Cu6   O2    S    
C26   H7    S    
C45   C85   S    
C111  H71   S    
C3    O24   S    
C81   O23   A    
C47   C48   A    
C87   C96   S    
C67   O19   S    
C33   C34   S    
C86   O5    A    
C127  O20   S    
C56   O21   S    
C127  H73   S    
C12   C14   S    
C91   O30   S    
C28   H14   S    
C103  O33   S    
C88   O9    A    
C85   O31   S    
C65   H45   S    
C8    H101  S    
C24   O11   A    
C49   O13   A    
C36   H33   S    
C5    H92   S    
C80   O17   A    
Cu5   Cu6   S    
C80   C101  S    
C11   H109  S    
C55   C57   A    
C132  H87   S    
C71   C75   A    
C13   C122  A    
Cu1   Cu2   S    
H42   O40   S    
C61   O15   A    
C23   C25   S    
C1    O1    A    
C27   H9    S    
C65   C66   A    
C26   O31   S    
C16   O28   S    
C27   C28   S    
C68   C70   A    
C108  H55   S    
Cu3   O17   S    
C15   H116  S    
C31   H21   S    
C131  C132  S    
C81   O34   A    
C124  C125  S    
C32   H22   S    
C90   H51   S    
