data_mof_unit_29731.cif
_audit_creation_date              2012-12-10T17:15:50-0500
_audit_creation_method            fapswitch 2.2
_symmetry_space_group_name_H-M    P1
_symmetry_Int_Tables_number       1
_space_group_crystal_system       triclinic
_cell_length_a                    10.187333
_cell_length_b                    10.697954
_cell_length_c                    10.741463
_cell_angle_alpha                 92.215477
_cell_angle_beta                  93.647752
_cell_angle_gamma                 84.257615
_cell_volume                      1161.79442021

loop_
_atom_site_label
_atom_site_type_symbol
_atom_type_description
_atom_site_fract_x
_atom_site_fract_y
_atom_site_fract_z
_atom_type_partial_charge
C1    C     C_R   0.446508 0.518199 0.269565 0.973778
C2    C     C_R   0.557311 0.056099 0.388631 0.037173
C3    C     C_R   0.485556 0.130591 0.476867 -0.092545
C4    C     C_R   0.418728 0.078349 0.567482 -0.305880
C5    C     C_R   0.422714 0.949753 0.573910 0.517545
C6    C     C_R   0.509440 0.873994 0.498839 -0.139928
C7    C     C_2   0.422618 0.576430 0.151284 -0.141063
C8    C     C_2   0.448715 0.505696 0.049818 0.332351
C9    C     C_2   0.574907 0.495278 0.867044 -0.405978
C10   C     C_2   0.482305 0.560309 0.933685 0.447231
C11   C     C_2   0.062983 0.530744 0.467498 0.546106
C12   C     C_R   0.494704 0.261759 0.489323 0.893131
C13   C     C_2   0.922951 0.523329 0.505952 0.138785
C14   C     C_R   0.553551 0.497353 0.732940 0.991219
C15   C     C_R   0.503744 0.740162 0.500973 0.945822
C16   C     C_R   0.607134 0.105224 0.281988 -0.351344
C17   C     C_R   0.680075 0.024187 0.197597 0.503658
C18   C     C_R   0.709867 0.897766 0.226641 0.470478
C19   C     C_R   0.686691 0.861822 0.346554 0.057898
C20   C     C_R   0.583320 0.928006 0.410346 -0.079904
H1    H     H_    0.365855 0.137670 0.635742 0.178512
H2    H     H_    0.877745 0.395965 0.373536 0.185315
H3    H     H_    0.588346 0.204349 0.264292 0.193028
H4    H     H_    0.637990 0.416500 0.905633 0.125646
N1    N     N_2   0.157290 0.551390 0.551110 -0.101180
N2    N     N_2   0.842740 0.448550 0.448960 -0.209884
O1    O     O_R   0.568950 0.489660 0.307530 -0.642496
O2    O     O_R   0.348880 0.522640 0.340350 -0.554310
O3    O     O_R   0.610060 0.300270 0.483590 -0.603511
O4    O     O_R   0.389990 0.333260 0.516410 -0.592879
O5    O     O_R   0.651120 0.477360 0.659650 -0.577571
O6    O     O_R   0.431050 0.510340 0.692470 -0.593565
O7    O     O_R   0.610010 0.666740 0.483590 -0.598708
O8    O     O_R   0.389940 0.699730 0.516410 -0.584228
Zn1   Zn    Zn3+2 0.646940 0.477980 0.478090 0.992279
Zn2   Zn    Zn3+2 0.353060 0.522020 0.521910 1.035116
I1    I     I_    0.381822 0.775712 0.165212 -0.435641
I2    I     I_    0.865402 0.638037 0.667200 -0.284771
O9    O     O_3   0.095249 0.497095 0.346845 -0.607040
C21   C     C_3   0.037578 0.590648 0.266257 -0.229301
H5    H     H_    0.075607 0.682902 0.291266 0.212689
H6    H     H_    0.927989 0.598715 0.265660 0.164743
H7    H     H_    0.065482 0.564039 0.169924 0.192307
I3    I     I_    0.151603 0.431716 0.701792 -0.379460
O10   O     O_3   0.744108 0.065511 0.098472 -0.564948
C22   C     C_3   0.668275 0.162443 0.034754 -0.208760
H8    H     H_    0.679032 0.253718 0.085104 0.200003
H9    H     H_    0.563488 0.142455 0.018800 0.181264
H10   H     H_    0.707787 0.168823 0.941579 0.190003
O11   O     O_3   0.800403 0.825161 0.156986 -0.565849
C23   C     C_3   0.736733 0.726737 0.096473 -0.268457
H11   H     H_    0.655177 0.764220 0.030182 0.223163
H12   H     H_    0.699517 0.665012 0.164662 0.159015
H13   H     H_    0.809362 0.667845 0.041201 0.197370
I4    I     I_    0.871533 0.867485 0.446404 -0.348427
O12   O     O_3   0.353545 0.897430 0.662841 -0.591236
C24   C     C_3   0.216382 0.927699 0.637381 -0.200016
H14   H     H_    0.161610 0.868256 0.693815 0.184008
H15   H     H_    0.186031 0.908391 0.537521 0.184361
H16   H     H_    0.185924 0.027110 0.664574 0.169748
O13   O     O_3   0.425756 0.676843 0.892647 -0.590072
C25   C     C_3   0.286438 0.681689 0.876692 -0.093146
H17   H     H_    0.243294 0.776259 0.907383 0.198633
H18   H     H_    0.240740 0.611294 0.929127 0.122290
H19   H     H_    0.257504 0.671804 0.776151 0.209314
O14   O     O_3   0.458239 0.376117 0.059134 -0.679296
C26   C     C_3   0.351466 0.329374 0.988191 -0.325983
H20   H     H_    0.371516 0.323794 0.887645 0.193934
H21   H     H_    0.255477 0.385784 0.003801 0.191827
H22   H     H_    0.341166 0.232737 0.017427 0.207634

loop_
_geom_bond_atom_site_label_1
_geom_bond_atom_site_label_2
_ccdc_geom_bond_type
C1    O2    A    
C23   H12   S    
C9    C14   S    
C9    H4    S    
C8    O14   S    
C25   H17   S    
C12   O3    A    
C6    C20   A    
C9    C10   D    
O3    Zn1   S    
C15   O8    A    
C19   C20   A    
O4    Zn2   S    
C14   O5    A    
C26   H22   S    
O1    Zn1   S    
C23   H13   S    
C21   H6    S    
C2    C3    A    
C7    I1    S    
C7    C8    D    
O11   C23   S    
O10   C22   S    
C11   O9    S    
C4    H1    S    
C11   C13   S    
C22   H10   S    
C18   O11   S    
C24   H14   S    
O13   C25   S    
C2    C16   A    
C26   H20   S    
O6    Zn2   S    
N1    I3    S    
C21   H5    S    
O7    Zn1   S    
C13   I2    S    
C17   C18   A    
C16   H3    S    
O8    Zn2   S    
C5    C6    A    
O5    Zn1   S    
C13   N2    D    
C24   H15   S    
C10   O13   S    
C11   N1    D    
N1    Zn2   S    
C2    C20   A    
C23   H11   S    
C22   H9    S    
N2    Zn1   S    
O14   C26   S    
O12   C24   S    
O2    Zn2   S    
C8    C10   S    
C18   C19   A    
H2    N2    S    
C19   I4    S    
O9    C21   S    
C1    O1    A    
C22   H8    S    
C16   C17   A    
C24   H16   S    
C25   H18   S    
C3    C12   S    
C5    O12   S    
C25   H19   S    
C12   O4    A    
C6    C15   S    
C1    C7    S    
C14   O6    A    
C15   O7    A    
C21   H7    S    
C3    C4    A    
C17   O10   S    
C4    C5    A    
C26   H21   S    
