data_mof_unit_37864.cif
_audit_creation_date              2012-12-10T17:46:57-0500
_audit_creation_method            fapswitch 2.2
_symmetry_space_group_name_H-M    P1
_symmetry_Int_Tables_number       1
_space_group_crystal_system       triclinic
_cell_length_a                    9.893481
_cell_length_b                    10.707108
_cell_length_c                    13.56473
_cell_angle_alpha                 90.785071
_cell_angle_beta                  82.10351
_cell_angle_gamma                 93.176242
_cell_volume                      1421.08116452

loop_
_atom_site_label
_atom_site_type_symbol
_atom_type_description
_atom_site_fract_x
_atom_site_fract_y
_atom_site_fract_z
_atom_type_partial_charge
C1    C     C_R   0.504789 0.739681 0.493625 0.873900
C2    C     C_R   0.599055 0.937688 0.545859 -0.221742
C3    C     C_R   0.589902 0.064959 0.561323 0.065769
C4    C     C_R   0.474959 0.502199 0.685874 0.894952
C5    C     C_R   0.482979 0.124634 0.522979 -0.124616
C6    C     C_R   0.850745 0.658508 0.632718 -0.287174
C7    C     C_R   0.919702 0.733512 0.698483 -0.066383
C8    C     C_R   0.054488 0.703822 0.711700 -0.024233
C9    C     C_R   0.104733 0.592836 0.667354 -0.046720
C10   C     C_R   0.059570 0.556518 0.576913 0.133468
C11   C     C_R   0.919631 0.570107 0.569772 0.140598
C12   C     C_1   0.456173 0.516214 0.789674 -0.141363
C13   C     C_R   0.938321 0.440458 0.427964 -0.105592
C14   C     C_R   0.082396 0.444901 0.425770 -0.094003
C15   C     C_R   0.494522 0.259460 0.508726 0.883981
C16   C     C_R   0.525309 0.499927 0.314083 0.887785
C17   C     C_1   0.545664 0.503469 0.209794 -0.197084
C18   C     C_2   0.555168 0.513021 0.017754 -0.194381
C19   C     C_2   0.442799 0.544313 0.981320 0.112060
C20   C     C_1   0.445183 0.530270 0.877301 0.020845
C21   C     C_1   0.556176 0.507705 0.121677 0.004988
C22   C     C_3   0.313931 0.585077 0.044291 -0.357490
C23   C     C_R   0.341435 0.874340 0.372600 -0.140016
C24   C     C_3   0.220341 0.471819 0.081887 -0.313777
C25   C     C_3   0.091390 0.512718 0.146380 -0.880161
C26   C     C_2   0.843846 0.834009 0.755661 0.888459
C27   C     C_3   0.141545 0.779040 0.777442 -0.348048
C28   C     C_3   0.216912 0.889939 0.720057 -0.285179
C29   C     C_3   0.300750 0.969465 0.786266 -0.816697
C30   C     C_2   0.109963 0.488905 0.739076 0.933096
C31   C     C_2   0.167917 0.159494 0.555967 1.006984
C32   C     C_3   0.693508 0.130469 0.621031 -0.343620
C33   C     C_3   0.625254 0.188210 0.718136 -0.356939
C34   C     C_R   0.224181 0.924959 0.348506 -0.128099
C35   C     C_3   0.727459 0.271332 0.767385 -0.776698
C36   C     C_R   0.171858 0.027216 0.402046 -0.241294
C37   C     C_R   0.244937 0.088237 0.472883 -0.114697
C38   C     C_R   0.380423 0.051911 0.479870 0.024980
C39   C     C_R   0.414027 0.933212 0.444462 0.074197
C40   C     C_R   0.512994 0.872978 0.487747 -0.153701
H1    H     H_    0.747546 0.677619 0.626500 0.237063
H2    H     H_    0.032406 0.571401 0.102598 0.274421
H3    H     H_    0.026091 0.428978 0.173103 0.243764
H4    H     H_    0.190618 0.416622 0.017476 0.251490
H5    H     H_    0.275198 0.410604 0.126747 0.220222
H6    H     H_    0.340334 0.643035 0.108300 0.193269
H7    H     H_    0.258356 0.645328 0.999028 0.209403
H8    H     H_    0.848300 0.999277 0.828627 0.341595
H9    H     H_    0.232928 0.008609 0.849924 0.268731
H10   H     H_    0.377483 0.912597 0.814735 0.256841
H11   H     H_    0.355486 0.047867 0.742430 0.273010
H12   H     H_    0.144629 0.398422 0.366005 0.137928
H13   H     H_    0.286786 0.854677 0.655824 0.220955
H14   H     H_    0.143250 0.948625 0.690398 0.278431
H15   H     H_    0.079178 0.808825 0.847204 0.233782
H16   H     H_    0.221765 0.721859 0.800607 0.219960
H17   H     H_    0.071529 0.305994 0.770182 0.360356
H18   H     H_    0.009089 0.202415 0.483099 0.273762
H19   H     H_    0.812879 0.216229 0.784741 0.269232
H20   H     H_    0.769520 0.349684 0.717550 0.294325
H21   H     H_    0.675554 0.310851 0.837727 0.224913
H22   H     H_    0.539511 0.245015 0.704160 0.218654
H23   H     H_    0.644778 0.483881 0.969106 0.146431
H24   H     H_    0.583593 0.112086 0.770347 0.229385
H25   H     H_    0.766674 0.063255 0.641503 0.216613
H26   H     H_    0.759281 0.200740 0.575207 0.253336
H27   H     H_    0.672800 0.888037 0.580120 0.175505
H28   H     H_    0.373863 0.788117 0.336378 0.134719
H29   H     H_    0.167294 0.878185 0.294677 0.139131
H30   H     H_    0.070549 0.051214 0.391170 0.129703
H31   H     H_    0.892328 0.390332 0.370138 0.134771
H32   H     H_    0.118479 0.566829 0.212024 0.257474
N1    N     N_R   0.857120 0.501200 0.500900 -0.099006
N2    N     N_R   0.142720 0.501280 0.500940 -0.091128
O1    O     O_R   0.385310 0.683220 0.500000 -0.621883
O2    O     O_R   0.912561 0.939695 0.790245 -0.824194
O3    O     O_2   0.138920 0.510123 0.822690 -0.685658
O4    O     O_R   0.071672 0.366740 0.713446 -0.734082
O5    O     O_2   0.215693 0.173625 0.633868 -0.602836
O6    O     O_R   0.039605 0.205939 0.550985 -0.765690
O7    O     O_R   0.614640 0.683250 0.500010 -0.638378
O8    O     O_R   0.368830 0.499960 0.640340 -0.603610
O9    O     O_R   0.598160 0.499980 0.640350 -0.626894
O10   O     O_R   0.385360 0.316750 0.499990 -0.603372
O11   O     O_R   0.614690 0.316780 0.500000 -0.622652
O12   O     O_R   0.401840 0.500020 0.359650 -0.626231
O13   O     O_R   0.631170 0.500040 0.359660 -0.607484
O14   O     O_2   0.718907 0.824841 0.771549 -0.665794
Zn1   Zn    Zn3+2 0.346870 0.499980 0.499990 0.975724
Zn2   Zn    Zn3+2 0.653130 0.500020 0.500010 0.937638

loop_
_geom_bond_atom_site_label_1
_geom_bond_atom_site_label_2
_ccdc_geom_bond_type
C8    C9    A    
C18   C21   S    
H8    O2    S    
C19   C20   S    
C25   H3    S    
C31   O6    S    
C29   H9    S    
O8    Zn1   S    
C24   H5    S    
C14   N2    A    
N2    Zn1   S    
C36   C37   A    
N1    Zn2   S    
C38   C39   A    
C27   H15   S    
C18   H23   S    
C1    O7    A    
C35   H19   S    
C18   C19   D    
C1    C40   S    
C30   O3    D    
C14   H12   S    
C16   C17   S    
C6    H1    S    
C16   O13   A    
C26   O2    S    
C4    C12   S    
C9    C10   A    
H18   O6    S    
C15   O11   A    
C22   H7    S    
C5    C38   A    
C16   O12   A    
C36   H30   S    
C29   H10   S    
C1    O1    A    
C7    C8    A    
C19   C22   S    
C24   C25   S    
C2    H27   S    
C11   N1    A    
C39   C40   A    
C28   H14   S    
C27   H16   S    
C33   H22   S    
C13   H31   S    
C17   C21   T    
C31   C37   S    
C35   H20   S    
C23   H28   S    
C37   C38   A    
C28   H13   S    
C23   C34   A    
C12   C20   T    
C35   H21   S    
C25   H32   S    
C7    C26   S    
C34   H29   S    
C15   O10   A    
C9    C30   S    
O7    Zn2   S    
C22   H6    S    
C13   N1    A    
C24   H4    S    
C22   C24   S    
O10   Zn1   S    
C6    C11   A    
C32   H26   S    
C29   H11   S    
O9    Zn2   S    
C28   C29   S    
H17   O4    S    
C3    C5    A    
O12   Zn1   S    
C25   H2    S    
O11   Zn2   S    
C31   O5    D    
C6    C7    A    
C32   C33   S    
C2    C3    A    
C10   N2    A    
C4    O9    A    
C33   H24   S    
C23   C39   A    
C33   C35   S    
C34   C36   A    
C3    C32   S    
C5    C15   S    
C10   C11   A    
O1    Zn1   S    
C30   O4    S    
C2    C40   A    
C4    O8    A    
C26   O14   D    
O13   Zn2   S    
C27   C28   S    
C8    C27   S    
C13   C14   A    
C32   H25   S    
