data_mof_unit_20681.cif
_audit_creation_date              2012-12-10T18:04:04-0500
_audit_creation_method            fapswitch 2.2
_symmetry_space_group_name_H-M    P1
_symmetry_Int_Tables_number       1
_space_group_crystal_system       triclinic
_cell_length_a                    10.922757
_cell_length_b                    9.645948
_cell_length_c                    11.01905
_cell_angle_alpha                 87.858229
_cell_angle_beta                  92.435302
_cell_angle_gamma                 90.513018
_cell_volume                      1159.0805269

loop_
_atom_site_label
_atom_site_type_symbol
_atom_type_description
_atom_site_fract_x
_atom_site_fract_y
_atom_site_fract_z
_atom_type_partial_charge
C1    C     C_R   0.262981 0.499383 0.506453 0.809306
C2    C     C_R   0.737658 0.501537 0.498043 0.819284
C3    C     C_R   0.413091 0.074251 0.433257 0.267191
C4    C     C_R   0.589034 0.069690 0.563648 0.229432
C5    C     C_R   0.412129 0.926841 0.436303 0.048966
C6    C     C_R   0.588708 0.923026 0.561572 -0.034220
C7    C     C_R   0.506674 0.501884 0.263459 0.838659
C8    C     C_R   0.500905 0.497069 0.737924 0.828012
C9    C     C_R   0.475976 0.614682 0.058183 -0.000203
C10   C     C_R   0.477889 0.611031 0.933495 0.030762
C11   C     C_R   0.516250 0.501967 0.130953 -0.152763
C12   C     C_R   0.501251 0.490638 0.872548 -0.142849
C13   C     C_R   0.550017 0.380023 0.073154 -0.086909
C14   C     C_R   0.528553 0.368988 0.946052 -0.102404
C15   C     C_3   0.524618 0.755837 0.919056 0.159826
C16   C     C_3   0.512672 0.764279 0.057632 0.221897
C17   C     C_R   0.061537 0.381510 0.483263 -0.112953
C18   C     C_R   0.934730 0.383981 0.477270 -0.105109
C19   C     C_R   0.872198 0.506090 0.498757 -0.094890
C20   C     C_R   0.129304 0.499719 0.514366 -0.119649
C21   C     C_R   0.940005 0.627385 0.528637 -0.048581
C22   C     C_R   0.067362 0.619435 0.547237 -0.081496
Cu1   Cu    Cu3+1 0.500000 0.640660 0.500000 1.037896
Cu2   Cu    Cu3+1 0.500000 0.359340 0.500000 1.052112
H1    H     H_    0.105999 0.285933 0.464415 0.194793
H2    H     H_    0.885677 0.290181 0.453280 0.190879
H3    H     H_    0.341265 0.872063 0.385869 0.183660
H4    H     H_    0.659057 0.865211 0.611124 0.198117
N1    N     N_R   0.500000 0.852070 0.500000 -0.198175
N2    N     N_R   0.500000 0.147940 0.500000 -0.211991
O1    O     O_R   0.319640 0.618740 0.499990 -0.572875
O2    O     O_R   0.680360 0.618740 0.500010 -0.575244
O3    O     O_R   0.319620 0.381170 0.499990 -0.560578
O4    O     O_R   0.680380 0.381170 0.500010 -0.575075
O5    O     O_R   0.499990 0.618810 0.319660 -0.559542
O6    O     O_R   0.500010 0.618810 0.680340 -0.560510
O7    O     O_R   0.499960 0.381240 0.319650 -0.573890
O8    O     O_R   0.500040 0.381240 0.680350 -0.549176
C23   C     C_2   0.615636 0.268625 0.144817 0.977411
O9    O     O_2   0.720638 0.288807 0.183396 -0.565479
O10   O     O_R   0.554944 0.145010 0.174260 -0.709549
H5    H     H_    0.603732 0.085972 0.236521 0.340727
C24   C     C_2   0.528983 0.229432 0.896182 0.939212
O11   O     O_2   0.440321 0.190212 0.835215 -0.526198
O12   O     O_R   0.625445 0.139032 0.927343 -0.708220
H6    H     H_    0.611082 0.043152 0.895750 0.364414
I1    I     I_    0.710085 0.756159 0.856396 -0.198722
I2    I     I_    0.358626 0.875244 0.116441 -0.197153
I3    I     I_    0.401296 0.875931 0.801372 -0.199496
I4    I     I_    0.676869 0.809012 0.166329 -0.172720
C25   C     C_2   0.883741 0.766460 0.532394 0.877769
O13   O     O_2   0.886464 0.828573 0.627085 -0.558270
O14   O     O_R   0.836827 0.830425 0.424818 -0.706493
H7    H     H_    0.809353 0.928999 0.436219 0.332697
C26   C     C_2   0.129585 0.729795 0.616616 0.922458
O15   O     O_2   0.173630 0.830878 0.563837 -0.567971
O16   O     O_R   0.121847 0.725039 0.742926 -0.697211
H8    H     H_    0.141631 0.817402 0.780013 0.378034
I5    I     I_    0.280712 0.168030 0.310820 -0.197390
I6    I     I_    0.738531 0.150225 0.668621 -0.219557

loop_
_geom_bond_atom_site_label_1
_geom_bond_atom_site_label_2
_ccdc_geom_bond_type
C3    N2    A    
Cu2   O8    S    
C26   O15   D    
C22   C26   S    
C6    H4    S    
C11   C13   A    
O10   H5    S    
Cu1   O5    S    
Cu2   O3    S    
C18   H2    S    
C15   I1    S    
C8    C12   S    
C14   C24   S    
C17   H1    S    
Cu1   O2    S    
C4    I6    S    
C26   O16   S    
Cu2   O7    S    
C7    O7    A    
C1    O3    A    
C23   O10   S    
C5    H3    S    
O14   H7    S    
C7    C11   S    
C24   O12   S    
C16   I2    S    
O16   H8    S    
C8    O8    A    
C10   C12   A    
C9    C10   A    
C21   C22   A    
C19   C21   A    
C9    C16   S    
C16   I4    S    
C17   C18   A    
C5    N1    A    
C10   C15   S    
C15   I3    S    
C24   O11   D    
C2    O4    A    
Cu2   N2    S    
C13   C23   S    
C21   C25   S    
Cu1   Cu2   S    
C4    C6    A    
C15   C16   S    
Cu1   N1    S    
C12   C14   A    
C1    O1    A    
C6    N1    A    
C2    O2    A    
Cu1   O6    S    
C8    O6    A    
C23   O9    D    
C9    C11   A    
Cu2   O4    S    
C18   C19   A    
C1    C20   S    
C3    C5    A    
C2    C19   S    
C13   C14   A    
C7    O5    A    
C17   C20   A    
C4    N2    A    
C25   O13   D    
C20   C22   A    
O12   H6    S    
C25   O14   S    
Cu1   O1    S    
C3    I5    S    
