data_mof_unit_36902.cif
_audit_creation_date              2013-03-05T15:51:41-0500
_audit_creation_method            fapswitch 2.2
_symmetry_space_group_name_H-M    P1
_symmetry_Int_Tables_number       1
_space_group_crystal_system       triclinic
_cell_length_a                    11.552161
_cell_length_b                    11.559895
_cell_length_c                    19.553691
_cell_angle_alpha                 90.302603
_cell_angle_beta                  90.034013
_cell_angle_gamma                 60.032567
_cell_volume                      2262.09928735

loop_
_atom_site_label
_atom_site_type_symbol
_atom_site_description
_atom_site_fract_x
_atom_site_fract_y
_atom_site_fract_z
_atom_type_partial_charge
O1    O     O_R   0.267750 0.231960 0.575440 -0.504511
O2    O     O_R   0.527290 0.186640 0.570530 -0.492113
C1    C     C_R   0.640442 0.116960 0.599301 0.548821
O3    O     O_R   0.728110 0.003450 0.576380 -0.503966
O4    O     O_R   0.682980 0.789190 0.570500 -0.493362
C2    C     C_R   0.612459 0.745966 0.598621 0.547765
O5    O     O_R   0.499300 0.771880 0.575540 -0.503355
O6    O     O_R   0.285350 0.030870 0.569740 -0.493753
C3    C     C_R   0.241226 0.145035 0.598206 0.546213
O7    O     O_R   0.270960 0.227070 0.423890 -0.520957
O8    O     O_R   0.530270 0.182120 0.430040 -0.508985
C4    C     C_R   0.639984 0.107105 0.399689 0.547154
O9    O     O_R   0.731320 0.998570 0.424830 -0.516742
O10   O     O_R   0.685950 0.784660 0.430010 -0.510465
C5    C     C_R   0.613281 0.746382 0.400234 0.545770
O11   O     O_R   0.502510 0.767000 0.423980 -0.520561
O12   O     O_R   0.288320 0.026340 0.429250 -0.505735
C6    C     C_R   0.245484 0.140335 0.400765 0.540341
Cr1   Cr    Cr6+3 0.404720 0.198220 0.499960 1.026923
Cr2   Cr    Cr6+3 0.698290 0.897110 0.500380 1.026771
Cr3   Cr    Cr6+3 0.396970 0.904720 0.499610 1.025509
O13   O     O_3   0.499990 0.000020 0.499980 -0.259250
C7    C     C_1   0.670416 0.646538 0.860143 0.006622
C8    C     C_1   0.654779 0.683644 0.728439 -0.030988
C9    C     C_1   0.663465 0.666714 0.799695 -0.030266
C10   C     C_1   0.641227 0.703837 0.667995 0.004406
C11   C     C_1   0.126482 0.199347 0.859292 0.004902
C12   C     C_1   0.171636 0.170088 0.727736 -0.030230
C13   C     C_1   0.150077 0.182589 0.798965 -0.030040
C14   C     C_1   0.195532 0.160443 0.667407 0.004143
C15   C     C_1   0.678505 0.191656 0.860753 0.006492
C16   C     C_1   0.658759 0.166870 0.729023 -0.030563
C17   C     C_1   0.665698 0.181014 0.800322 -0.029684
C18   C     C_1   0.653232 0.149097 0.668660 0.003607
C19   C     C_R   0.648378 0.694049 0.186127 0.023584
C20   C     C_R   0.526508 0.735460 0.220206 0.015422
C21   C     C_R   0.520610 0.749006 0.289591 -0.000778
C22   C     C_R   0.742987 0.714868 0.293094 -0.154427
C23   C     C_R   0.750259 0.701842 0.221788 -0.163767
C24   C     C_3   0.420314 0.694765 0.223075 0.101036
C25   C     C_3   0.420134 0.706324 0.300124 -0.227523
C26   C     C_R   0.631857 0.724053 0.327731 0.032218
H1    H     H_    0.825723 0.711755 0.320791 0.130672
H2    H     H_    0.840623 0.683972 0.196005 0.126380
H3    H     H_    0.324528 0.768584 0.198888 0.096637
H4    H     H_    0.324880 0.784285 0.321689 0.102851
H5    H     H_    0.462588 0.609974 0.328006 0.173801
C27   C     C_R   0.158294 0.190364 0.188277 0.018334
C28   C     C_R   0.187952 0.276176 0.224930 0.016702
C29   C     C_R   0.209687 0.260833 0.294046 0.028705
C30   C     C_R   0.187444 0.065155 0.292602 -0.167069
C31   C     C_R   0.171867 0.076444 0.221432 -0.170925
C32   C     C_3   0.113190 0.425288 0.231230 -0.267343
C33   C     C_3   0.137609 0.407811 0.307366 -0.275882
C34   C     C_R   0.201957 0.160648 0.329945 0.021199
H6    H     H_    0.180045 0.987680 0.318877 0.117490
H7    H     H_    0.156252 0.004160 0.193774 0.119797
H8    H     H_    0.006010 0.469304 0.218211 0.162791
H9    H     H_    0.166083 0.471627 0.205881 0.163328
H10   H     H_    0.204855 0.443917 0.326128 0.141956
H11   H     H_    0.044640 0.442190 0.337816 0.141261
C35   C     C_R   0.669322 0.165869 0.187964 0.031731
C36   C     C_R   0.770103 0.055690 0.223138 0.021054
C37   C     C_R   0.758240 0.037171 0.291215 0.024277
C38   C     C_R   0.533847 0.222484 0.290210 -0.130027
C39   C     C_R   0.544027 0.237551 0.219586 -0.100456
C40   C     C_3   0.915843 0.009003 0.231055 -0.259193
C41   C     C_3   0.902209 0.985901 0.305816 -0.277215
C42   C     C_R   0.647113 0.129573 0.327501 0.019403
H12   H     H_    0.439922 0.286130 0.315725 0.142952
H13   H     H_    0.458389 0.311305 0.191897 0.186207
H14   H     H_    0.935627 0.092409 0.222955 0.168532
H15   H     H_    0.980472 0.915544 0.201953 0.139678
H16   H     H_    0.955257 0.878458 0.319846 0.138094
H17   H     H_    0.919301 0.052253 0.340692 0.143129
O14   O     O_R   0.821590 0.119350 0.952850 -0.507551
O15   O     O_R   0.037230 0.162540 0.957390 -0.494831
C43   C     C_R   0.081471 0.231509 0.928568 0.545435
O16   O     O_R   0.056530 0.344750 0.951370 -0.502873
O17   O     O_R   0.798000 0.560370 0.957490 -0.498372
C44   C     C_R   0.683938 0.604453 0.929526 0.535558
O18   O     O_R   0.596230 0.579400 0.952760 -0.508829
O19   O     O_R   0.639160 0.321170 0.958690 -0.499255
C45   C     C_R   0.708458 0.206917 0.930108 0.537251
O20   O     O_R   0.821370 0.124220 0.104400 -0.535729
O21   O     O_R   0.037020 0.167050 0.097880 -0.509317
C46   C     C_R   0.085384 0.234867 0.124409 0.547331
O22   O     O_R   0.056310 0.349620 0.102920 -0.514518
O23   O     O_R   0.797790 0.564880 0.097980 -0.518501
C47   C     C_R   0.680302 0.616240 0.123814 0.561672
O24   O     O_R   0.596000 0.584270 0.104310 -0.445521
O25   O     O_R   0.638950 0.325690 0.099180 -0.423241
C48   C     C_R   0.706557 0.207610 0.125186 0.567631
Cr4   Cr    Cr6+3 0.926290 0.152010 0.028150 1.027704
Cr5   Cr    Cr6+3 0.921440 0.451830 0.027490 1.033152
Cr6   Cr    Cr6+3 0.626370 0.446880 0.028730 1.103249
O26   O     O_3   0.824700 0.350240 0.028120 -0.263824
N1    N     N_R   0.465057 0.558004 0.202574 0.090474
O27   O     O_R   0.394881 0.534274 0.158576 -0.383655
O28   O     O_R   0.578441 0.461259 0.224731 -0.367968

loop_
_geom_bond_atom_site_label_1
_geom_bond_atom_site_label_2
_geom_bond_distance
_ccdc_geom_bond_type
C46   O22   1.268728 A    
C24   C25   1.511722 S    
O11   Cr3   2.060628 S    
C11   C13   1.203542 T    
C19   C20   1.407031 A    
C4    C42   1.446411 S    
C11   C43   1.430370 S    
O14   C45   1.269996 A    
C44   O18   1.269633 A    
C32   H9    1.111814 S    
O4    Cr2   1.925189 S    
C33   H10   1.110960 S    
C32   C33   1.510788 S    
C41   H17   1.112642 S    
O8    Cr1   1.933245 S    
C29   C33   1.493378 S    
C37   C41   1.488401 S    
C20   C21   1.362754 A    
C8    C10   1.200864 T    
C30   H6    1.074609 S    
C24   N1    1.450665 S    
O4    C2    1.275061 A    
C38   C42   1.414403 A    
C41   H16   1.111962 S    
C38   H12   1.080178 S    
O15   Cr4   1.931694 S    
O25   Cr6   1.923065 S    
C40   H14   1.108485 S    
C21   C26   1.386274 A    
C28   C29   1.370616 A    
O21   Cr4   1.934733 S    
O14   Cr4   2.054654 S    
O24   Cr6   2.061253 S    
O20   C48   1.254124 A    
O19   C45   1.278296 A    
O6    C3    1.277444 A    
C25   H4    1.098492 S    
C15   C17   1.204051 T    
C40   H15   1.112046 S    
O22   Cr5   2.043420 S    
Cr3   O13   1.984882 S    
O6    Cr3   1.942208 S    
C24   H3    1.112020 S    
C36   C40   1.497543 S    
O1    Cr1   2.052869 S    
O18   Cr6   2.040897 S    
C35   C39   1.400509 A    
C30   C31   1.401496 A    
O10   Cr2   1.941506 S    
C20   C24   1.518658 S    
Cr1   O13   1.985350 S    
O1    C3    1.270533 A    
C8    C9    1.404563 S    
O21   C46   1.276227 A    
Cr4   O26   1.985378 S    
O15   C43   1.275386 A    
O12   Cr3   1.923614 S    
C15   C45   1.431055 S    
C40   C41   1.509818 S    
C16   C18   1.204103 T    
O23   Cr5   1.940743 S    
C19   C23   1.408489 A    
O16   Cr5   2.058279 S    
C35   C36   1.406280 A    
O20   Cr4   2.047303 S    
C39   H13   1.077201 S    
O7    Cr1   2.049171 S    
C32   H8    1.108309 S    
Cr6   O26   1.985033 S    
O12   C6    1.283593 A    
C25   H5    1.112966 S    
C27   C46   1.451338 S    
C37   C42   1.384040 A    
O17   Cr5   1.926041 S    
C2    O5    1.269566 A    
C3    C14   1.430298 S    
C6    C34   1.452672 S    
C27   C28   1.395282 A    
Cr2   O13   1.985089 S    
C38   C39   1.405140 A    
N1    O28   1.301966 A    
C1    O3    1.270850 A    
C12   C13   1.408932 S    
C7    C44   1.425643 S    
O9    Cr2   2.041969 S    
O2    Cr1   1.933195 S    
C43   O16   1.269894 A    
C5    C26   1.436573 S    
O17   C44   1.275225 A    
O8    C4    1.268084 A    
Cr5   O26   1.984825 S    
C22   C26   1.407905 A    
C23   H2    1.081971 S    
C33   H11   1.112549 S    
C29   C34   1.397849 A    
C1    C18   1.431250 S    
C16   C17   1.409755 S    
C12   C14   1.203521 T    
O2    C1    1.275151 A    
C22   H1    1.083215 S    
O5    Cr3   2.041667 S    
C47   O24   1.260195 A    
C2    C10   1.425669 S    
O7    C6    1.259455 A    
C28   C32   1.497642 S    
O19   Cr6   1.942670 S    
C22   C23   1.399680 A    
O25   C48   1.293677 A    
C30   C34   1.398613 A    
C7    C9    1.200856 T    
C21   C25   1.485463 S    
C31   H7    1.081176 S    
C36   C37   1.367164 A    
O3    Cr2   2.059462 S    
C19   C47   1.444719 S    
C27   C31   1.407740 A    
C4    O9    1.269836 A    
N1    O27   1.300560 A    
C35   C48   1.462517 S    
O10   C5    1.267791 A    
O23   C47   1.281561 A    
C5    O11   1.266784 A    
