data_mof_unit_40873.cif
_audit_creation_date              2012-12-11T20:10:37-0500
_audit_creation_method            fapswitch 2.2
_symmetry_space_group_name_H-M    P1
_symmetry_Int_Tables_number       1
_space_group_crystal_system       triclinic
_cell_length_a                    8.483202
_cell_length_b                    16.390182
_cell_length_c                    18.80602
_cell_angle_alpha                 113.419357
_cell_angle_beta                  91.860717
_cell_angle_gamma                 83.63113
_cell_volume                      2384.40298821

loop_
_atom_site_label
_atom_site_type_symbol
_atom_type_description
_atom_site_fract_x
_atom_site_fract_y
_atom_site_fract_z
_atom_type_partial_charge
Ba1   Ba    Ba6+2 0.333520 0.539550 0.472180 1.624685
Ba2   Ba    Ba6+2 0.856270 0.460520 0.527840 1.639423
C1    C     C_3   0.897691 0.798308 0.277164 -0.325283
C2    C     C_R   0.415231 0.431908 0.083360 0.010097
C3    C     C_R   0.267343 0.401582 0.054793 -0.069381
C4    C     C_3   0.478480 0.744576 0.319247 0.346119
C5    C     C_R   0.202657 0.411039 0.988945 -0.083819
C6    C     C_R   0.285856 0.448548 0.948403 0.029647
C7    C     C_R   0.430926 0.481973 0.977179 0.032470
C8    C     C_R   0.228713 0.449461 0.877970 -0.108753
C9    C     C_R   0.318712 0.478459 0.832347 -0.023844
C10   C     C_R   0.460814 0.516790 0.862528 0.016567
C11   C     C_R   0.515536 0.518732 0.935623 0.005983
C12   C     C_3   0.979123 0.756301 0.329655 0.329056
C13   C     C_R   0.276255 0.464280 0.755485 0.026057
C14   C     C_R   0.379463 0.485659 0.708969 -0.226269
C15   C     C_R   0.507960 0.536427 0.740888 0.052376
C16   C     C_3   0.423944 0.785102 0.260879 -0.174477
C17   C     C_R   0.549808 0.551462 0.819504 -0.058802
C18   C     C_R   0.638417 0.508944 0.075396 0.000852
C19   C     C_R   0.699084 0.504855 0.145760 -0.001481
C20   C     C_R   0.620061 0.460583 0.184091 -0.040683
C21   C     C_R   0.492167 0.412413 0.143751 -0.001605
C22   C     C_R   0.681766 0.596161 0.855827 -0.047878
C23   C     C_3   0.016012 0.286627 0.273454 0.313689
C24   C     C_R   0.739725 0.594511 0.926587 0.019193
C25   C     C_R   0.658433 0.553797 0.965711 0.012641
C26   C     C_R   0.720198 0.548560 0.035209 0.023532
C27   C     C_R   0.880576 0.631080 0.958201 -0.060751
C28   C     C_3   0.627687 0.747797 0.678048 0.262976
C29   C     C_R   0.944022 0.623679 0.025215 -0.093810
C30   C     C_R   0.864915 0.582290 0.063980 0.018483
C31   C     C_R   0.842753 0.541658 0.175405 -0.037384
C32   C     C_R   0.927093 0.576217 0.131908 -0.122801
C33   C     C_R   0.896988 0.544099 0.248104 -0.006841
C34   C     C_3   0.956383 0.222034 0.196325 -0.307098
C35   C     C_R   0.807037 0.511707 0.290689 -0.281990
C36   C     C_R   0.673746 0.466411 0.259904 0.066358
C37   C     C_2   0.402875 0.232627 0.476231 -0.242816
C38   C     C_R   0.812003 0.745325 0.511113 -0.296245
C39   C     C_2   0.242244 0.109930 0.405826 -0.129018
C40   C     C_3   0.593651 0.850173 0.727630 -0.128984
C41   C     C_2   0.258480 0.198693 0.433218 -0.048752
C42   C     C_2   0.513157 0.181758 0.498170 -0.023662
C43   C     C_3   0.482006 0.087255 0.484467 -0.123827
C44   C     C_3   0.372603 0.045519 0.416444 0.100157
C45   C     C_3   0.676860 0.212257 0.677071 0.329616
C46   C     C_2   0.624758 0.021582 0.477787 -0.077658
C47   C     C_2   0.613383 0.964557 0.512498 -0.075015
C48   C     C_R   0.883093 0.918929 0.544852 0.090953
C49   C     C_R   0.736873 0.893406 0.511856 -0.022292
C50   C     C_R   0.991617 0.859267 0.561643 -0.160825
C51   C     C_R   0.953957 0.773228 0.547257 0.110512
C52   C     C_3   0.533412 0.247033 0.298341 0.278012
C53   C     C_R   0.701030 0.805375 0.495008 -0.035117
C54   C     C_3   0.499050 0.162409 0.226355 -0.125230
C55   C     C_3   0.115266 0.730374 0.746246 0.230390
C56   C     C_3   0.760912 0.157194 0.720053 -0.202106
C57   C     C_3   0.088777 0.806338 0.829283 -0.183908
C58   C     C_3   0.705246 0.884097 0.795928 -0.433223
C59   C     C_2   0.599733 0.904606 0.680503 0.446447
C60   C     C_2   0.642846 0.225421 0.353255 0.447467
C61   C     C_3   0.435985 0.087370 0.242378 -0.466744
C62   C     C_3   0.286761 0.711840 0.726045 -0.318898
C63   C     C_2   0.059636 0.645124 0.741792 0.494586
C64   C     C_2   0.194961 0.796511 0.892065 0.496042
C65   C     C_3   0.098602 0.357301 0.260595 -0.311351
C66   C     C_3   0.632425 0.309058 0.733728 -0.291067
C67   C     C_3   0.200853 0.245861 0.684854 0.363601
C68   C     C_2   0.660233 0.151684 0.781792 0.410411
C69   C     C_3   0.153852 0.170278 0.610913 -0.228284
C70   C     C_3   0.359801 0.443619 0.623178 -0.280834
C71   C     C_2   0.481224 0.321219 0.138688 0.568474
C72   C     C_2   0.111984 0.069457 0.353861 0.549535
C73   C     C_2   0.753312 0.010784 0.422196 0.513818
C74   C     C_3   0.463793 0.719928 0.177937 -0.495143
C75   C     C_3   0.254768 0.208067 0.744945 -0.357586
C76   C     C_R   0.493312 0.476053 0.046333 0.011659
H1    H     H_    0.027920 0.809442 0.380284 0.120449
H2    H     H_    0.794695 0.845745 0.307756 0.080440
H3    H     H_    0.912061 0.319122 0.312722 0.067444
H4    H     H_    0.874497 0.258846 0.169560 0.144360
H5    H     H_    0.892761 0.171533 0.205850 0.151949
H6    H     H_    0.057450 0.186732 0.155644 0.107893
H7    H     H_    0.852751 0.746396 0.224771 0.084679
H8    H     H_    0.482150 0.846891 0.273729 0.106996
H9    H     H_    0.568989 0.180843 0.649048 -0.039887
H10   H     H_    0.871022 0.186831 0.746596 0.133687
H11   H     H_    0.796994 0.088068 0.677667 0.045870
H12   H     H_    0.474097 0.865874 0.754284 0.114695
H13   H     H_    0.303450 0.273965 0.670866 -0.068376
H14   H     H_    0.348123 0.151510 0.719538 0.092716
H15   H     H_    0.154250 0.183344 0.764022 0.130348
H16   H     H_    0.432388 0.678535 0.302335 0.091301
H17   H     H_    0.302537 0.260453 0.796409 0.105089
H18   H     H_    0.200237 0.370766 0.083486 0.062491
H19   H     H_    0.089532 0.386174 0.968255 0.089505
H20   H     H_    0.117330 0.422654 0.857558 0.102247
H21   H     H_    0.743944 0.629609 0.828169 0.155431
H22   H     H_    0.943083 0.664861 0.930951 0.185295
H23   H     H_    0.420724 0.283662 0.328186 -0.027726
H24   H     H_    0.054612 0.651214 0.047167 0.101640
H25   H     H_    0.040281 0.601077 0.151139 0.112641
H26   H     H_    0.610371 0.735350 0.318818 -0.073403
H27   H     H_    0.847998 0.516826 0.347256 0.063660
H28   H     H_    0.099530 0.882714 0.591140 0.133406
H29   H     H_    0.424601 0.299416 0.484263 0.020369
H30   H     H_    0.781693 0.679481 0.501969 0.073686
H31   H     H_    0.503778 0.970178 0.543176 0.141579
H32   H     H_    0.293616 0.803796 0.266385 0.183635
H33   H     H_    0.750055 0.731175 0.654588 0.016462
H34   H     H_    0.411258 0.182584 0.189733 0.113423
H35   H     H_    0.543744 0.727728 0.629001 0.044316
H36   H     H_    0.703448 0.844465 0.831876 0.159731
H37   H     H_    0.826829 0.881596 0.775143 0.145440
H38   H     H_    0.665575 0.954920 0.833444 0.133628
H39   H     H_    0.712506 0.909945 0.658767 -0.036036
H40   H     H_    0.650994 0.275740 0.411127 0.035354
H41   H     H_    0.508988 0.068426 0.284386 0.147990
H42   H     H_    0.312634 0.106512 0.263459 0.150644
H43   H     H_    0.436224 0.027116 0.187377 0.146674
H44   H     H_    0.320974 0.769584 0.717528 0.125489
H45   H     H_    0.609654 0.133768 0.190993 0.161485
H46   H     H_    0.354910 0.698866 0.772123 0.037699
H47   H     H_    0.306513 0.652119 0.671348 0.068865
H48   H     H_    0.060261 0.589081 0.686312 0.032033
H49   H     H_    0.319672 0.805966 0.892674 -0.008897
H50   H     H_    0.102943 0.416333 0.315980 0.136200
H51   H     H_    0.220729 0.329547 0.240130 0.125169
H52   H     H_    0.038071 0.377855 0.216311 0.032951
H53   H     H_    0.578417 0.348110 0.701460 0.072370
H54   H     H_    0.545252 0.312593 0.777750 0.068908
H55   H     H_    0.739143 0.339958 0.763584 0.159099
H56   H     H_    0.982027 0.833977 0.259337 0.177653
H57   H     H_    0.571537 0.105150 0.766288 0.055933
H58   H     H_    0.256905 0.119786 0.586479 0.053921
H59   H     H_    0.059490 0.135782 0.623182 0.144300
H60   H     H_    0.110806 0.197434 0.567549 0.133410
H61   H     H_    0.267805 0.483418 0.603582 0.130186
H62   H     H_    0.461723 0.432695 0.588153 0.159828
H63   H     H_    0.344369 0.372671 0.607397 0.048701
H64   H     H_    0.367752 0.297956 0.139746 -0.070810
H65   H     H_    0.014539 0.110325 0.342393 0.096152
H66   H     H_    0.726933 0.030412 0.374209 0.051901
H67   H     H_    0.105619 0.871533 0.826917 0.054899
H68   H     H_    0.593762 0.701476 0.170757 0.133755
H69   H     H_    0.402676 0.658886 0.163513 0.148561
H70   H     H_    0.423601 0.751709 0.137278 0.162254
H71   H     H_    0.964558 0.810774 0.847863 0.119755
H72   H     H_    0.887734 0.728707 0.352270 -0.069162
O1    O     O_2   0.402610 0.439360 0.314250 -0.483807
O2    O     O_2   0.829939 0.192169 0.483903 -0.444612
O3    O     O_3   0.786512 0.210937 0.622057 -0.563237
O4    O     O_3   0.648560 0.446300 0.404730 -0.503199
O5    O     O_3   0.025080 0.609480 0.556050 -0.506835
O6    O     O_2   0.948320 0.280590 0.426090 -0.442217
O7    O     O_3   0.127170 0.236818 0.301259 -0.661334
O8    O     O_2   0.940995 0.470198 0.750395 -0.437741
O9    O     O_3   0.067263 0.308689 0.715020 -0.577748
O10   O     O_3   0.108870 0.604000 0.387500 -0.464144
O11   O     O_2   0.232286 0.528885 0.246285 -0.497704
O12   O     O_3   0.030424 0.761992 0.694732 -0.669246
O13   O     O_3   0.615695 0.297600 0.270626 -0.649792
O14   O     O_3   0.106269 0.693620 0.288824 -0.605377
O15   O     O_2   0.241370 0.719440 0.573960 -0.460630
O16   O     O_3   0.507090 0.652150 0.432150 -0.486941
O17   O     O_2   0.388526 0.812740 0.532039 -0.438396
O18   O     O_2   0.479921 0.947122 0.670436 -0.595836
O19   O     O_2   0.733390 0.156821 0.331895 -0.624811
O20   O     O_2   0.024093 0.635804 0.800060 -0.620669
O21   O     O_2   0.140825 0.781401 0.944392 -0.572753
O22   O     O_2   0.680433 0.197827 0.850007 -0.556139
O23   O     O_3   0.417701 0.803028 0.392502 -0.588498
O24   O     O_2   0.599038 0.267109 0.122343 -0.589423
O25   O     O_2   0.114491 0.988335 0.321504 -0.578779
O26   O     O_2   0.889156 0.983063 0.430232 -0.573109
O27   O     O_2   0.787080 0.560670 0.685800 -0.438001
O28   O     O_3   0.541120 0.553770 0.595290 -0.520062
O29   O     O_3   0.080800 0.396070 0.612520 -0.474890
O30   O     O_3   0.608087 0.703199 0.726736 -0.640035
O31   O     O_3   0.164600 0.390590 0.443970 -0.484124
O32   O     O_3   0.682580 0.347920 0.567870 -0.488334
P1    P     P_3+3 0.582960 0.413890 0.320860 0.960404
P2    P     P_3+3 0.071690 0.707860 0.593450 0.955655
P3    P     P_3+3 0.504682 0.768137 0.462615 0.975395
P4    P     P_3+3 0.606720 0.586180 0.679160 0.965949
P5    P     P_3+3 0.696047 0.232514 0.545272 0.975192
P6    P     P_3+3 0.085354 0.589791 0.291254 0.944038
P7    P     P_3+3 0.126538 0.277139 0.402426 0.930583
P8    P     P_3+3 0.092771 0.410903 0.709948 0.996516

loop_
_geom_bond_atom_site_label_1
_geom_bond_atom_site_label_2
_ccdc_geom_bond_type
C6    C7    A    
C72   H65   S    
C75   H14   S    
Ba2   O5    S    
C1    H7    S    
O16   P3    S    
Ba1   O5    S    
C52   H23   S    
C58   H36   S    
C23   C65   S    
Ba2   P4    S    
Ba1   P1    S    
O31   P7    S    
C5    C6    A    
C69   H59   S    
C43   C44   S    
C42   C43   S    
C37   H29   S    
O23   P3    S    
C24   C25   A    
C16   H8    S    
C66   H55   S    
C33   C35   A    
O32   P5    S    
C22   C24   A    
C42   P5    S    
O11   P6    D    
O8    P8    D    
C57   C64   S    
C55   C57   S    
C19   C31   A    
C34   H5    S    
C13   C14   A    
O17   P3    D    
C64   H49   S    
C67   C69   S    
Ba1   Ba2   S    
Ba2   O32   S    
C71   O24   D    
C8    H20   S    
C68   O22   D    
C7    C11   A    
C67   O9    S    
C39   C72   S    
C67   C75   S    
C70   H61   S    
C55   O12   S    
C74   H69   S    
C34   H4    S    
C14   C15   A    
C47   C49   S    
C14   C70   S    
O12   P2    S    
C20   C36   A    
C48   C50   A    
C39   C44   S    
Ba2   O27   S    
C4    H26   S    
C52   O13   S    
C38   H30   S    
Ba2   O6    S    
O6    P7    D    
C74   H68   S    
Ba2   O4    S    
C19   C20   A    
C23   H3    S    
C39   C41   D    
C46   C73   S    
C65   H51   S    
C9    C13   A    
C21   C71   S    
O2    P5    D    
C1    H2    S    
C61   H43   S    
Ba1   P2    S    
C48   C49   A    
C69   H60   S    
C71   H64   S    
C57   H71   S    
C70   H63   S    
C4    C16   S    
C52   C54   S    
C59   H39   S    
C50   H28   S    
C54   H45   S    
C64   O21   D    
C26   C30   A    
C22   H21   S    
C8    C9    A    
C51   P2    S    
C40   C58   S    
C69   H58   S    
C3    C5    A    
C2    C21   A    
Ba1   O31   S    
O5    P2    S    
C56   C68   S    
C37   C41   S    
C52   C60   S    
C4    H16   S    
C62   H46   S    
O13   P1    S    
C75   H17   S    
O27   P4    D    
C40   H12   S    
Ba2   O31   S    
C45   H9    S    
C66   H53   S    
C29   H24   S    
C35   H27   S    
C35   C36   A    
C61   H41   S    
Ba1   O28   S    
C45   O3    S    
C29   C30   A    
Ba1   O15   S    
C15   P4    S    
C38   C53   A    
O4    P1    S    
C12   H72   S    
C31   C32   A    
C54   C61   S    
C66   H54   S    
C12   H1    S    
C10   C11   A    
C40   C59   S    
C74   H70   S    
C1    C12   S    
O30   P4    S    
C57   H67   S    
C46   C47   D    
C13   P8    S    
C62   H47   S    
C23   O7    S    
C68   H57   S    
C58   H38   S    
C65   H52   S    
Ba2   O29   S    
O10   P6    S    
C15   C17   A    
C45   C66   S    
C3    H18   S    
C50   C51   A    
C55   C62   S    
C47   H31   S    
C43   C46   S    
C60   O19   D    
C16   C74   S    
C5    H19   S    
C27   H22   S    
C73   O26   D    
O15   P2    D    
Ba1   O10   S    
C28   C40   S    
C16   H32   S    
C55   C63   S    
C2    C3    A    
O14   P6    S    
C56   H10   S    
C9    C10   A    
O1    P1    D    
C37   C42   D    
C4    O23   S    
C2    C76   A    
C18   C26   A    
C63   O20   D    
C32   H25   S    
C18   C76   A    
C28   H33   S    
C59   O18   D    
C63   H48   S    
C1    H56   S    
C17   C22   A    
C72   O25   D    
C27   C29   A    
C65   H50   S    
C45   C56   S    
C61   H42   S    
O29   P8    S    
Ba1   O16   S    
C34   H6    S    
C62   H44   S    
C10   C17   A    
C75   H15   S    
C31   C33   A    
Ba1   O1    S    
C49   C53   A    
C7    C76   A    
C53   P3    S    
C12   O14   S    
Ba1   O4    S    
C56   H11   S    
O7    P7    S    
C60   H40   S    
C73   H66   S    
C36   P1    S    
C23   C34   S    
O3    P5    S    
O28   P4    S    
C70   H62   S    
C18   C19   A    
C41   P7    S    
C24   C27   A    
C6    C8    A    
C38   C51   A    
C33   P6    S    
C25   C26   A    
C28   O30   S    
C20   C21   A    
C11   C25   A    
C58   H37   S    
Ba2   O28   S    
C67   H13   S    
C54   H34   S    
C30   C32   A    
C28   H35   S    
O9    P8    S    
