data_mof_unit_6350.cif
_audit_creation_date              2012-12-11T15:44:53-0500
_audit_creation_method            fapswitch 2.2
_symmetry_space_group_name_H-M    P1
_symmetry_Int_Tables_number       1
_space_group_crystal_system       triclinic
_cell_length_a                    6.935331
_cell_length_b                    16.768724
_cell_length_c                    17.095897
_cell_angle_alpha                 100.284077
_cell_angle_beta                  89.470775
_cell_angle_gamma                 90.777074
_cell_volume                      1956.02774741

loop_
_atom_site_label
_atom_site_type_symbol
_atom_type_description
_atom_site_fract_x
_atom_site_fract_y
_atom_site_fract_z
_atom_type_partial_charge
O1    O     O_R   0.494370 0.415690 0.413450 -0.541378
O2    O     O_R   0.819420 0.429360 0.578420 -0.540346
O3    O     O_R   0.994280 0.584310 0.586550 -0.542343
C1    C     C_R   0.651389 0.414305 0.605708 0.700789
O4    O     O_R   0.823790 0.406230 0.413570 -0.542630
O5    O     O_R   0.998670 0.561000 0.420530 -0.537094
C2    C     C_R   0.654740 0.383067 0.384931 0.685805
O6    O     O_R   0.489970 0.439000 0.579470 -0.535935
O7    O     O_3   0.662300 0.550810 0.502470 -0.368485
V1    V     V_3+5 0.935380 0.490570 0.499540 1.401111
O8    O     O_R   0.328650 0.570640 0.421580 -0.542860
C3    C     C_R   0.162729 0.586317 0.394710 0.700330
O9    O     O_R   0.324290 0.593770 0.586430 -0.538463
C4    C     C_R   0.156003 0.618099 0.614156 0.694255
V2    V     V_3+5 0.435930 0.509430 0.500460 1.396645
O10   O     O_3   0.159140 0.449190 0.497530 -0.367284
C5    C     C_R   0.302631 0.744957 0.700697 0.156263
C6    C     C_R   0.287143 0.807491 0.767213 -0.147501
H1    H     H_    0.405468 0.850423 0.781164 0.119062
C7    C     C_R   0.120563 0.816468 0.815070 -0.085235
C8    C     C_R   0.966686 0.761679 0.795368 -0.160438
H2    H     H_    0.836085 0.767063 0.831056 0.130229
C9    C     C_R   0.981053 0.698050 0.730405 -0.192856
H3    H     H_    0.861274 0.655674 0.718590 0.124554
C10   C     C_R   0.148030 0.687983 0.682179 -0.059807
C11   C     C_R   0.170433 0.639139 0.333198 -0.069784
C12   C     C_R   0.094432 0.860823 0.166787 -0.069526
C13   C     C_R   0.899290 0.803161 0.263634 -0.200168
C14   C     C_R   0.923389 0.858254 0.211816 -0.161810
C15   C     C_R   0.243808 0.807704 0.176379 -0.241334
C16   C     C_R   0.219505 0.751331 0.228167 0.159934
C17   C     C_R   0.045411 0.748687 0.271883 0.159872
C18   C     C_R   0.021093 0.692295 0.323654 -0.241452
C19   C     C_R   0.341501 0.641737 0.288193 -0.162048
C20   C     C_R   0.365631 0.696860 0.236413 -0.200447
H4    H     H_    0.889447 0.691704 0.358255 0.123483
H5    H     H_    0.459394 0.601457 0.293829 0.129042
H6    H     H_    0.765217 0.802677 0.296637 0.122704
H7    H     H_    0.499714 0.697355 0.203419 0.122716
H8    H     H_    0.805492 0.898526 0.206162 0.128743
H9    H     H_    0.375461 0.808292 0.141782 0.123188
C21   C     C_R   0.654542 0.364056 0.669242 -0.067763
C22   C     C_R   0.610254 0.136112 0.830888 -0.067835
C23   C     C_R   0.425795 0.179517 0.724753 -0.188433
C24   C     C_R   0.454032 0.126100 0.777606 -0.159735
C25   C     C_R   0.741461 0.200285 0.828822 -0.239017
C26   C     C_R   0.712333 0.255142 0.776155 0.155643
C27   C     C_R   0.552457 0.245024 0.723975 0.155426
C28   C     C_R   0.523326 0.299884 0.671311 -0.238887
C29   C     C_R   0.810786 0.374054 0.722511 -0.160067
C30   C     C_R   0.839013 0.320641 0.775368 -0.188726
H10   H     H_    0.404285 0.290622 0.629889 0.120460
H11   H     H_    0.914685 0.422828 0.722081 0.122087
H12   H     H_    0.302969 0.170193 0.685299 0.121676
H13   H     H_    0.961854 0.329956 0.814814 0.121510
H14   H     H_    0.350167 0.077310 0.778019 0.121918
H15   H     H_    0.860505 0.209547 0.870242 0.120335
C31   C     C_R   0.811492 0.276288 0.282411 -0.155192
H16   H     H_    0.952060 0.295520 0.306241 0.116554
C32   C     C_R   0.800526 0.212512 0.217300 -0.153039
H17   H     H_    0.933129 0.184490 0.193159 0.118146
C33   C     C_R   0.621242 0.185272 0.183983 -0.047031
C34   C     C_R   0.453229 0.223621 0.217710 -0.155216
H18   H     H_    0.312663 0.204390 0.193876 0.116495
C35   C     C_R   0.464194 0.287398 0.282822 -0.153006
H19   H     H_    0.331595 0.315424 0.306962 0.118220
C36   C     C_R   0.643482 0.314642 0.316134 -0.047292
O11   O     O_R   0.774880 0.061150 0.920630 -0.536344
O12   O     O_R   0.440980 0.093710 0.086500 -0.542811
O13   O     O_R   0.266190 0.938890 0.079390 -0.537430
C37   C     C_R   0.610012 0.116870 0.115163 0.685023
O14   O     O_R   0.445420 0.070740 0.921670 -0.540858
O15   O     O_R   0.270660 0.915760 0.913380 -0.541778
C38   C     C_R   0.613442 0.085840 0.894402 0.700667
O16   O     O_R   0.770400 0.084270 0.086640 -0.541790
O17   O     O_3   0.602590 0.949210 0.997500 -0.368576
V3    V     V_3+5 0.329470 0.009420 0.000470 1.401821
O18   O     O_R   0.940650 0.906250 0.913470 -0.542115
C39   C     C_R   0.109457 0.883522 0.884690 0.694650
O19   O     O_R   0.936210 0.929220 0.078300 -0.542779
C40   C     C_R   0.102123 0.913597 0.105225 0.701357
V4    V     V_3+5 0.828930 0.990510 0.999490 1.401553
O20   O     O_3   0.105680 0.050790 0.002500 -0.368326
C41   C     C_3   0.482897 0.742718 0.650226 -0.753140
H20   H     H_    0.578199 0.796221 0.669766 0.192367
H21   H     H_    0.567466 0.688096 0.654642 0.217660
H22   H     H_    0.444055 0.742670 0.587346 0.204112

loop_
_geom_bond_atom_site_label_1
_geom_bond_atom_site_label_2
_ccdc_geom_bond_type
C34   C35   A    
C12   C14   A    
C19   H5    S    
O12   V3    S    
C41   H22   S    
C1    O6    A    
O14   V3    S    
C13   C14   A    
C41   H21   S    
C6    H1    S    
O5    C3    A    
C15   C16   A    
V3    O20   S    
C31   C32   A    
V2    O10   S    
C18   H4    S    
C32   C33   A    
C19   C20   A    
O12   C37   A    
O13   C40   A    
O8    V2    S    
C11   C19   A    
C16   C17   A    
C24   H14   S    
C35   C36   A    
C9    H3    S    
C15   H9    S    
O1    V2    S    
O7    V1    S    
C6    C7    A    
C22   C38   S    
O9    C4    A    
O13   V3    S    
C13   C17   A    
C29   C30   A    
C29   H11   S    
C12   C40   S    
C41   H20   S    
O14   C38   A    
O17   V4    S    
O4    C2    A    
O18   C39   A    
C26   C30   A    
C31   H16   S    
C3    C11   S    
C32   H17   S    
C20   H7    S    
C33   C34   A    
O18   V4    S    
C11   C18   A    
C26   C27   A    
C13   H6    S    
C28   H10   S    
C5    C6    A    
O15   C39   A    
O17   V3    S    
C22   C24   A    
O3    C4    A    
C21   C29   A    
O19   V4    S    
C27   C28   A    
V4    O20   S    
O6    V2    S    
O9    V2    S    
C25   H15   S    
C16   C20   A    
O2    V1    S    
C23   C24   A    
C25   C26   A    
C7    C39   S    
O1    C2    A    
O19   C40   A    
O5    V1    S    
O8    C3    A    
O16   V4    S    
C5    C41   S    
C5    C10   A    
C17   C18   A    
C8    C9    A    
O7    V2    S    
O11   V4    S    
O4    V1    S    
O3    V1    S    
V1    O10   S    
C37   O16   A    
C1    C21   S    
O2    C1    A    
C14   H8    S    
C33   C37   S    
C30   H13   S    
C9    C10   A    
C4    C10   S    
C22   C25   A    
C21   C28   A    
C2    C36   S    
C34   H18   S    
C23   H12   S    
C31   C36   A    
C7    C8    A    
C35   H19   S    
O15   V3    S    
C8    H2    S    
O11   C38   A    
C23   C27   A    
C12   C15   A    
