data_mof_unit_41889.cif
_audit_creation_date              2013-03-05T16:10:46-0500
_audit_creation_method            fapswitch 2.2
_symmetry_space_group_name_H-M    P1
_symmetry_Int_Tables_number       1
_space_group_crystal_system       triclinic
_cell_length_a                    22.445436
_cell_length_b                    7.084968
_cell_length_c                    19.441505
_cell_angle_alpha                 90.000583
_cell_angle_beta                  99.230942
_cell_angle_gamma                 90.00056
_cell_volume                      3051.65108119

loop_
_atom_site_label
_atom_site_type_symbol
_atom_site_description
_atom_site_fract_x
_atom_site_fract_y
_atom_site_fract_z
_atom_type_partial_charge
O1    O     O_R   0.443980 0.494320 0.557430 -0.595950
O2    O     O_R   0.556020 0.994320 0.442570 -0.595935
O3    O     O_R   0.441210 0.822520 0.414610 -0.579897
O4    O     O_R   0.558790 0.322520 0.585390 -0.579927
C1    C     C_R   0.426517 0.655054 0.389212 1.054463
C2    C     C_R   0.573481 0.155059 0.610791 1.054477
O5    O     O_R   0.436920 0.823940 0.555180 -0.581550
O6    O     O_R   0.563080 0.323940 0.444820 -0.581564
O7    O     O_R   0.551700 0.995760 0.584140 -0.595771
O8    O     O_R   0.448300 0.495760 0.415860 -0.595788
C3    C     C_R   0.421634 0.655436 0.574955 1.019718
C4    C     C_R   0.578366 0.155436 0.425045 1.019764
O9    O     O_3   0.537660 0.661290 0.509340 -0.277692
O10   O     O_3   0.462340 0.161290 0.490660 -0.277689
V1    V     V_3+5 0.493010 0.935560 0.498270 1.238813
V2    V     V_3+5 0.506990 0.435560 0.501730 1.238783
H1    H     H_    0.667515 0.878153 0.240703 0.150231
H2    H     H_    0.332481 0.378129 0.759288 0.150229
C5    C     C_R   0.746466 0.970258 0.200269 -0.160638
C6    C     C_R   0.253537 0.470245 0.799732 -0.160660
H3    H     H_    0.743125 0.857274 0.162284 0.167298
H4    H     H_    0.256874 0.357250 0.837711 0.167321
C7    C     C_R   0.793606 0.102203 0.204603 0.098087
C8    C     C_R   0.206402 0.602204 0.795407 0.098029
C9    C     C_R   0.796802 0.249207 0.254393 0.172977
C10   C     C_R   0.203211 0.749226 0.745626 0.173059
C11   C     C_R   0.753581 0.258248 0.299705 -0.213736
C12   C     C_R   0.246430 0.758268 0.700312 -0.213770
H5    H     H_    0.756347 0.370051 0.338135 0.151483
H6    H     H_    0.243668 0.870084 0.661888 0.151472
C13   C     C_R   0.706644 0.125621 0.295155 0.135202
C14   C     C_R   0.293360 0.625624 0.704851 0.135204
C15   C     C_R   0.703380 0.981902 0.245067 -0.126655
C16   C     C_R   0.296621 0.481889 0.754931 -0.126664
C17   C     C_1   0.838779 0.083837 0.158741 0.066718
C18   C     C_1   0.161229 0.583834 0.841269 0.066764
C19   C     C_1   0.661747 0.137329 0.341518 0.043948
C20   C     C_1   0.338255 0.637330 0.658486 0.043930
C21   C     C_1   0.623974 0.146279 0.379846 -0.216101
C22   C     C_1   0.376028 0.646279 0.620155 -0.216127
C23   C     C_1   0.876708 0.071870 0.120790 -0.289850
C24   C     C_1   0.123298 0.571868 0.879218 -0.289740
C25   C     C_R   0.626026 0.109909 0.802734 0.424344
C26   C     C_R   0.373976 0.609619 0.197281 0.424349
H7    H     H_    0.541196 0.118991 0.733971 0.167227
H8    H     H_    0.458804 0.618752 0.266045 0.167228
C27   C     C_R   0.615135 0.143130 0.677597 -0.295813
C28   C     C_R   0.384863 0.643099 0.322407 -0.295806
C29   C     C_R   0.909106 0.081252 0.761366 0.012138
C30   C     C_R   0.090886 0.581513 0.238620 0.012199
C31   C     C_R   0.871909 0.072540 0.696028 0.349922
C32   C     C_R   0.128072 0.572849 0.303964 0.350034
C33   C     C_R   0.809270 0.074248 0.692428 -0.199826
C34   C     C_R   0.190713 0.574425 0.307575 -0.199842
C35   C     C_R   0.781324 0.091391 0.752135 0.064763
C36   C     C_R   0.218670 0.591389 0.247870 0.064772
C37   C     C_R   0.818366 0.064733 0.818336 0.018197
C38   C     C_R   0.181633 0.564648 0.181671 0.018209
C39   C     C_R   0.717027 0.116098 0.746843 -0.050554
C40   C     C_R   0.282971 0.616024 0.253163 -0.050542
C41   C     C_R   0.689842 0.090704 0.807825 -0.199010
C42   C     C_R   0.310159 0.590469 0.192191 -0.198994
C43   C     C_R   0.726230 0.038006 0.871428 0.313694
C44   C     C_R   0.273772 0.537674 0.128599 0.313704
C45   C     C_R   0.789507 0.023539 0.876463 -0.042530
C46   C     C_R   0.210493 0.523301 0.123558 -0.042569
C47   C     C_R   0.678284 0.164417 0.682769 0.296090
C48   C     C_R   0.321715 0.664434 0.317227 0.296103
C49   C     C_R   0.589915 0.117821 0.737546 -0.311476
C50   C     C_R   0.410084 0.617636 0.262466 -0.311443
C51   C     C_R   0.883118 0.069488 0.822942 -0.268189
C52   C     C_R   0.116881 0.569519 0.177054 -0.268326
H9    H     H_    0.782872 0.050484 0.641893 0.205971
H10   H     H_    0.217103 0.550722 0.358119 0.205969
O11   O     O_R   0.051730 0.724670 0.084120 -0.590948
O12   O     O_R   0.948270 0.224670 0.915880 -0.590941
O13   O     O_R   0.063080 0.393540 0.944820 -0.591708
O14   O     O_R   0.936920 0.893540 0.055180 -0.591663
C53   C     C_R   0.077728 0.562038 0.924312 0.961303
C54   C     C_R   0.922276 0.062037 0.075692 0.961499
O15   O     O_R   0.058800 0.395030 0.085390 -0.585772
O16   O     O_R   0.941200 0.895030 0.914610 -0.585790
O17   O     O_R   0.943980 0.223310 0.057440 -0.585323
O18   O     O_R   0.056020 0.723310 0.942560 -0.585323
C55   C     C_R   0.074728 0.563719 0.109725 0.988847
C56   C     C_R   0.925279 0.063713 0.890267 0.988882
O19   O     O_3   0.962360 0.556290 0.990650 -0.286679
O20   O     O_3   0.037640 0.056290 0.009350 -0.286733
V3    V     V_3+5 0.006980 0.281990 0.001730 1.141528
V4    V     V_3+5 0.993020 0.781990 0.998270 1.141538
N1    N     N_R   0.897151 0.059235 0.632508 0.250298
O21   O     O_R   0.948752 0.976158 0.631717 -0.341616
O22   O     O_R   0.866440 0.117468 0.573832 -0.330690
N2    N     N_R   0.102816 0.559733 0.367479 0.250243
O23   O     O_R   0.051190 0.476817 0.368273 -0.341685
O24   O     O_R   0.133536 0.617977 0.426150 -0.330724
N3    N     N_2   0.822662 0.938591 0.937135 -0.123330
H11   H     H_    0.813954 0.994296 0.983354 0.189357
C57   C     C_3   0.821811 0.733954 0.936322 -0.709390
H12   H     H_    0.849748 0.679101 0.984375 0.246913
H13   H     H_    0.840343 0.679704 0.890457 0.239973
H14   H     H_    0.775248 0.679631 0.934516 0.257409
N4    N     N_2   0.177330 0.438337 0.062893 -0.123307
H15   H     H_    0.186043 0.493997 0.016669 0.189353
C58   C     C_3   0.178156 0.233701 0.063722 -0.709228
H16   H     H_    0.150226 0.178847 0.015664 0.246898
H17   H     H_    0.159604 0.179513 0.109582 0.239945
H18   H     H_    0.224714 0.179316 0.065549 0.257358
N5    N     N_2   0.844180 0.385192 0.260709 -0.101849
H19   H     H_    0.854444 0.448644 0.308930 0.204915
C59   C     C_3   0.843294 0.515135 0.202879 -0.862534
H20   H     H_    0.838870 0.662401 0.220973 0.235880
H21   H     H_    0.805244 0.486432 0.159981 0.259078
H22   H     H_    0.886288 0.502717 0.181962 0.253795
N6    N     N_2   0.155841 0.885232 0.739323 -0.101864
H23   H     H_    0.145582 0.948723 0.691109 0.204853
C60   C     C_3   0.156731 0.015132 0.797168 -0.862813
H24   H     H_    0.161148 0.162414 0.779088 0.235869
H25   H     H_    0.194788 0.986416 0.840056 0.259141
H26   H     H_    0.113742 0.002676 0.818093 0.253846
N7    N     N_R   0.698889 0.974784 0.929364 0.246841
O25   O     O_R   0.708569 0.064766 0.988465 -0.355968
O26   O     O_R   0.665714 0.823177 0.923651 -0.327345
N8    N     N_R   0.301113 0.474261 0.070689 0.246843
O27   O     O_R   0.291451 0.564101 0.011558 -0.355960
O28   O     O_R   0.334277 0.322630 0.076458 -0.327385
N9    N     N_R   0.597028 0.135085 0.862742 0.266739
O29   O     O_R   0.546487 0.048654 0.866505 -0.307121
O30   O     O_R   0.613893 0.273146 0.905604 -0.287803
N10   N     N_R   0.402979 0.634628 0.137268 0.266744
O31   O     O_R   0.453514 0.548130 0.133533 -0.307139
O32   O     O_R   0.386126 0.772607 0.094366 -0.287763
N11   N     N_R   0.701156 0.258860 0.626972 0.223452
O33   O     O_R   0.686315 0.202093 0.562851 -0.427816
O34   O     O_R   0.735095 0.407627 0.640050 -0.364410
N12   N     N_R   0.298848 0.759000 0.373000 0.223459
O35   O     O_R   0.313682 0.702339 0.437134 -0.427800
O36   O     O_R   0.264926 0.907788 0.359887 -0.364430
N13   N     N_2   0.972928 0.096309 0.764516 -0.082685
H27   H     H_    0.998826 0.023560 0.804472 0.161751
C61   C     C_3   0.994313 0.286295 0.756191 -0.734466
H28   H     H_    0.985907 0.376413 0.800431 0.220484
H29   H     H_    0.971287 0.348598 0.706503 0.269980
H30   H     H_    0.043597 0.283427 0.754896 0.232883
N14   N     N_2   0.027066 0.596845 0.235440 -0.082660
H31   H     H_    0.001151 0.524209 0.195466 0.161727
C62   C     C_3   0.005771 0.786939 0.243755 -0.734545
H32   H     H_    0.014578 0.877270 0.199760 0.220596
H33   H     H_    0.028539 0.848726 0.293646 0.270203
H34   H     H_    0.956426 0.784480 0.244586 0.232520

loop_
_geom_bond_atom_site_label_1
_geom_bond_atom_site_label_2
_geom_bond_distance
_ccdc_geom_bond_type
C43   C45   1.411617 A    
C35   C39   1.440967 A    
C11   H5    1.083814 S    
C60   H24   1.110599 S    
C18   C24   1.215673 T    
C59   H20   1.110602 S    
O1    C3    1.313584 A    
C52   C55   1.487601 S    
O2    C4    1.313583 A    
C23   C54   1.451684 S    
N14   H31   1.030597 S    
C62   H32   1.111090 S    
O14   V4    1.970102 S    
O5    C3    1.316478 A    
C58   H17   1.111232 S    
O13   V3    1.970103 S    
C8    C18   1.459464 S    
H1    C15   1.083335 S    
C28   C50   1.386594 A    
C5    H3    1.083511 S    
C8    C10   1.415843 A    
C60   H25   1.112562 S    
C53   O18   1.313116 A    
O14   C54   1.316920 A    
C26   N10   1.435314 S    
N6    H23   1.031883 S    
C39   C47   1.441404 A    
C40   C42   1.429118 A    
C41   C43   1.418266 A    
C30   C52   1.415755 A    
C10   N6    1.425562 S    
C27   C49   1.386608 A    
C42   C44   1.418252 A    
O11   V4    1.995388 S    
C31   N1    1.442024 S    
C34   H10   1.076071 S    
C38   C46   1.420110 A    
C6    C8    1.404248 A    
N6    C60   1.450829 S    
C30   C32   1.405045 A    
C13   C15   1.402692 A    
C26   C50   1.391617 A    
C14   C20   1.458176 S    
C9    N5    1.425560 S    
O12   V3    1.995374 S    
N2    O24   1.301708 A    
C6    C16   1.403853 A    
O5    V1    1.970139 S    
O15   V3    2.008160 S    
O6    V2    1.970137 S    
N2    O23   1.301466 A    
O18   V4    1.958792 S    
C2    O7    1.303831 A    
C54   O17   1.313112 A    
C27   C47   1.412857 A    
C1    C28   1.475990 S    
C32   C34   1.396515 A    
N3    H11   1.028464 S    
C33   C35   1.410396 A    
O17   V3    1.958786 S    
C58   H18   1.109005 S    
C34   C36   1.410408 A    
C39   C41   1.429111 A    
H8    C50   1.084580 S    
C2    C27   1.476005 S    
N14   C62   1.446820 S    
C11   C13   1.403838 A    
C12   C14   1.403840 A    
C62   H34   1.110426 S    
N12   O36   1.301426 A    
C5    C15   1.403855 A    
C61   H30   1.110705 S    
C25   N9    1.435320 S    
N1    O21   1.301483 A    
C5    C7    1.404247 A    
C29   C31   1.405049 A    
O16   C56   1.313671 A    
H7    C49   1.084582 S    
C37   C51   1.442134 A    
C36   C40   1.440980 A    
C31   C33   1.396488 A    
C61   H29   1.111299 S    
C44   C46   1.411604 A    
O4    V2    2.007982 S    
N10   O32   1.301248 A    
N9    O30   1.301254 A    
N1    O22   1.301710 A    
C51   C56   1.487622 S    
C57   H12   1.108630 S    
C48   N12   1.437577 S    
O6    C4    1.316478 A    
C43   N7    1.437950 S    
O13   C53   1.316920 A    
C59   H21   1.112562 S    
O1    V2    1.958964 S    
C28   C48   1.412862 A    
C32   N2    1.441997 S    
O2    V1    1.958961 S    
H2    C16   1.083336 S    
N7    O25   1.301443 A    
C30   N14   1.427985 S    
O4    C2    1.306928 A    
C57   H13   1.111233 S    
O20   V4    2.181056 S    
C7    C17   1.459463 S    
C35   C37   1.428332 A    
N11   O33   1.301348 A    
N4    C58   1.450019 S    
C60   H26   1.109183 S    
C6    H4    1.083510 S    
N9    O29   1.301482 A    
O12   C56   1.316151 A    
O3    V1    2.007960 S    
C25   C41   1.426382 A    
N8    O28   1.301549 A    
N3    C57   1.450023 S    
C47   N11   1.437587 S    
C46   N4    1.423308 S    
C33   H9    1.076071 S    
C37   C45   1.420100 A    
N12   O35   1.301344 A    
O3    C1    1.306939 A    
N13   H27   1.030600 S    
O9    V2    1.738047 S    
C9    C11   1.412602 A    
C62   H33   1.111108 S    
C58   H16   1.108630 S    
C10   C12   1.412602 A    
O16   V4    2.008184 S    
C26   C42   1.426374 A    
C4    C21   1.453583 S    
C29   N13   1.427963 S    
N10   O31   1.301468 A    
O7    V1    1.999674 S    
C45   N3    1.423308 S    
C1    O8    1.303818 A    
C19   C21   1.216889 T    
C44   N8    1.437959 S    
C61   H28   1.111339 S    
O11   C55   1.316137 A    
C20   C22   1.216890 T    
N13   C61   1.446845 S    
C38   C52   1.442115 A    
N5    C59   1.450826 S    
C12   H6    1.083813 S    
C36   C38   1.428326 A    
C59   H22   1.109177 S    
C7    C9    1.415842 A    
C3    C22   1.453585 S    
C17   C23   1.215671 T    
N7    O26   1.301546 A    
C13   C19   1.458177 S    
C24   C53   1.451682 S    
C57   H14   1.109009 S    
O20   V3    1.737786 S    
C40   C48   1.441403 A    
C25   C49   1.391640 A    
C29   C51   1.415759 A    
O19   V4    1.737771 S    
N4    H15   1.028469 S    
N11   O34   1.301431 A    
O19   V3    2.181077 S    
O10   V1    1.738063 S    
O8    V2    1.999688 S    
N5    H19   1.031880 S    
O15   C55   1.313683 A    
C14   C16   1.402693 A    
N8    O27   1.301446 A    
