data_mof_unit_34483.cif
_audit_creation_date              2012-12-10T19:42:55-0500
_audit_creation_method            fapswitch 2.2
_symmetry_space_group_name_H-M    P1
_symmetry_Int_Tables_number       1
_space_group_crystal_system       triclinic
_cell_length_a                    10.937741
_cell_length_b                    13.025086
_cell_length_c                    11.711698
_cell_angle_alpha                 100.42845
_cell_angle_beta                  95.48504
_cell_angle_gamma                 91.607356
_cell_volume                      1631.67913192

loop_
_atom_site_label
_atom_site_type_symbol
_atom_type_description
_atom_site_fract_x
_atom_site_fract_y
_atom_site_fract_z
_atom_type_partial_charge
C1    C     C_R   0.499627 0.299307 0.478587 0.843816
C2    C     C_R   0.500667 0.700622 0.521401 0.843189
C3    C     C_R   0.872437 0.501737 0.505800 -0.100975
C4    C     C_R   0.127614 0.496497 0.494761 -0.109029
C5    C     C_R   0.953423 0.517389 0.610514 0.016586
C6    C     C_R   0.046851 0.481651 0.390419 0.053584
C7    C     C_R   0.508749 0.813562 0.532142 -0.077174
C8    C     C_R   0.492559 0.186170 0.467612 -0.074284
C9    C     C_R   0.382740 0.022992 0.382968 -0.207889
C10   C     C_R   0.620315 0.976223 0.615117 -0.207720
C11   C     C_R   0.403201 0.128855 0.386355 -0.283900
C12   C     C_R   0.600229 0.870291 0.611538 -0.280486
C13   C     C_R   0.565843 0.136709 0.545228 0.188591
C14   C     C_R   0.434659 0.863127 0.455240 0.187783
C15   C     C_R   0.547834 0.028320 0.540073 0.082110
C16   C     C_R   0.453997 0.971186 0.459139 0.080807
C17   C     C_R   0.423008 0.376401 0.015038 0.005212
C18   C     C_R   0.578523 0.623381 0.984592 0.011873
C19   C     C_R   0.423969 0.391361 0.138590 0.356503
C20   C     C_R   0.578323 0.607679 0.860980 0.355904
C21   C     C_R   0.529659 0.555749 0.160004 -0.039234
C22   C     C_R   0.468964 0.445082 0.839961 -0.041747
C23   C     C_R   0.261783 0.497826 0.497874 0.784836
C24   C     C_R   0.738249 0.501748 0.502230 0.794861
C25   C     C_R   0.526947 0.545594 0.036491 -0.014103
C26   C     C_R   0.472389 0.455115 0.963382 -0.016678
C27   C     C_R   0.152713 0.524148 0.104699 -0.221896
C28   C     C_R   0.836937 0.479731 0.894201 -0.192751
C29   C     C_R   0.133594 0.539963 0.222498 -0.182510
C30   C     C_R   0.855787 0.464836 0.776362 -0.145921
C31   C     C_R   0.084775 0.458596 0.270397 0.078547
C32   C     C_R   0.916841 0.542494 0.731454 0.012297
C33   C     C_R   0.051384 0.360623 0.197663 0.201341
C34   C     C_R   0.964623 0.635099 0.808847 0.231580
C35   C     C_R   0.069173 0.345375 0.077469 0.223069
C36   C     C_R   0.947010 0.648575 0.928920 0.265313
C37   C     C_R   0.120141 0.427948 0.032553 -0.147651
C38   C     C_R   0.883607 0.570022 0.970176 -0.236094
C39   C     C_R   0.921143 0.484636 0.398101 -0.199237
C40   C     C_R   0.078852 0.510753 0.602252 -0.227177
Cu1   Cu    Cu3+1 0.509250 0.507730 0.615930 0.957976
Cu2   Cu    Cu3+1 0.490750 0.492270 0.384070 0.963859
H1    H     H_    0.137020 0.417096 0.941635 0.158847
H2    H     H_    0.869860 0.579054 0.061761 0.154973
H3    H     H_    0.422060 0.378007 0.783191 0.181750
H4    H     H_    0.575571 0.623319 0.216741 0.179969
H5    H     H_    0.191511 0.587088 0.068595 0.153592
H6    H     H_    0.787820 0.420314 0.927678 0.150232
H7    H     H_    0.154207 0.616409 0.276270 0.155018
H8    H     H_    0.824973 0.391536 0.720022 0.162884
H9    H     H_    0.860695 0.472713 0.317346 0.163367
H10   H     H_    0.139345 0.518769 0.682586 0.176888
H11   H     H_    0.660100 0.831652 0.667780 0.166980
H12   H     H_    0.345070 0.167093 0.328596 0.168018
H13   H     H_    0.309696 0.982995 0.320902 0.160418
H14   H     H_    0.694512 0.015915 0.675973 0.157049
N1    N     N_R   0.523180 0.519350 0.790130 -0.193391
N2    N     N_R   0.476820 0.480650 0.209870 -0.192094
O1    O     O_R   0.506570 0.354460 0.582000 -0.569847
O2    O     O_R   0.493430 0.645540 0.418000 -0.570983
O3    O     O_R   0.490940 0.341410 0.386200 -0.562774
O4    O     O_R   0.509060 0.658590 0.613800 -0.566278
O5    O     O_R   0.327460 0.506540 0.597900 -0.597767
O6    O     O_R   0.672540 0.493460 0.402100 -0.594525
O7    O     O_R   0.311830 0.493480 0.402100 -0.557395
O8    O     O_R   0.688170 0.506520 0.597900 -0.559794
N3    N     N_3   0.635189 0.685640 0.809559 -0.539646
H15   H     H_    0.591769 0.755783 0.832481 0.188858
H16   H     H_    0.727114 0.697042 0.842742 0.195544
N4    N     N_3   0.372947 0.310297 0.189349 -0.541073
H17   H     H_    0.422783 0.243422 0.167886 0.191054
H18   H     H_    0.282368 0.292490 0.154406 0.198479
N5    N     N_3   0.376329 0.279835 0.942158 -0.639368
H19   H     H_    0.284460 0.266728 0.954497 0.247185
H20   H     H_    0.427035 0.218868 0.966030 0.213674
N6    N     N_3   0.628830 0.718813 0.057266 -0.641939
H21   H     H_    0.580796 0.781160 0.033386 0.213584
H22   H     H_    0.721027 0.728969 0.044167 0.233178
N7    N     N_2   0.994074 0.280428 0.245054 -0.438995
H23   H     H_    0.927087 0.234682 0.189153 0.252912
C41   C     C_3   0.077983 0.220686 0.306964 -0.703229
H24   H     H_    0.024840 0.167733 0.350326 0.230550
H25   H     H_    0.139796 0.273152 0.375062 0.240314
H26   H     H_    0.133930 0.172723 0.245071 0.202678
N8    N     N_2   0.029983 0.714540 0.766536 -0.432029
H27   H     H_    0.006935 0.720840 0.680701 0.247193
C42   C     C_3   0.160082 0.731285 0.805780 -0.638178
H28   H     H_    0.179839 0.814988 0.844598 0.233804
H29   H     H_    0.215081 0.710748 0.730557 0.213766
H30   H     H_    0.189835 0.683314 0.872066 0.224552
N9    N     N_2   0.049487 0.244827 0.004496 -0.457265
H31   H     H_    0.051375 0.181821 0.046476 0.253410
C43   C     C_3   0.951761 0.235637 0.910659 -0.727501
H32   H     H_    0.862469 0.251299 0.946733 0.219716
H33   H     H_    0.946277 0.155095 0.858666 0.226085
H34   H     H_    0.970285 0.290415 0.851447 0.246036
N10   N     N_2   0.995632 0.739405 0.009314 -0.427472
H35   H     H_    0.009438 0.731209 0.095542 0.240590
C44   C     C_3   0.946847 0.838779 0.993258 -0.683641
H36   H     H_    0.889606 0.868119 0.064593 0.203236
H37   H     H_    0.889396 0.833001 0.908625 0.231725
H38   H     H_    0.024301 0.896398 0.996308 0.236499
N11   N     N_2   0.339470 0.803952 0.376862 -0.442973
H39   H     H_    0.252049 0.829293 0.387301 0.233600
C45   C     C_3   0.364936 0.775573 0.256153 -0.660274
H40   H     H_    0.346403 0.690505 0.226602 0.245589
H41   H     H_    0.303963 0.816607 0.199558 0.197933
H42   H     H_    0.462290 0.794707 0.244878 0.240865
N12   N     N_2   0.656988 0.196749 0.627561 -0.439931
H43   H     H_    0.745882 0.174083 0.620001 0.235570
C46   C     C_3   0.625763 0.221229 0.746752 -0.660687
H44   H     H_    0.649811 0.304653 0.782219 0.237260
H45   H     H_    0.525952 0.206756 0.752019 0.245689
H46   H     H_    0.678631 0.173823 0.802227 0.194752

loop_
_geom_bond_atom_site_label_1
_geom_bond_atom_site_label_2
_ccdc_geom_bond_type
C39   H9    S    
C42   H28   S    
C43   H32   S    
C27   C29   A    
C1    C8    S    
Cu1   Cu2   S    
C20   N3    S    
C2    C7    S    
Cu2   N2    S    
C22   N1    A    
C41   H24   S    
C29   H7    S    
N8    H27   S    
C45   H41   S    
C8    C13   A    
C17   C26   A    
C35   C37   A    
C9    C16   A    
N6    H22   S    
C10   C15   A    
N12   C46   S    
C2    O2    A    
C15   C16   A    
N5    H19   S    
C13   N12   S    
N10   C44   S    
N11   C45   S    
C7    C14   A    
C4    C40   A    
Cu2   O7    S    
C31   C33   A    
N4    H17   S    
C9    H13   S    
C10   H14   S    
C18   C20   A    
C12   H11   S    
C24   O8    A    
C5    C32   S    
C23   O5    A    
C6    C31   S    
C30   H8    S    
C3    C39   A    
C24   O6    A    
C17   N5    S    
N5    H20   S    
C3    C24   S    
C18   C25   A    
Cu1   O4    S    
C41   H25   S    
N10   H35   S    
N8    C42   S    
C19   N2    A    
C7    C12   A    
C45   H42   S    
N3    H15   S    
N6    H21   S    
Cu1   O1    S    
C4    C6    A    
Cu2   O2    S    
N9    H31   S    
N7    C41   S    
C4    C23   S    
C33   N7    S    
C25   C26   A    
C40   H10   S    
N3    H16   S    
C34   N8    S    
C32   C34   A    
C37   H1    S    
C38   H2    S    
N9    C43   S    
C44   H36   S    
C28   C38   A    
C22   H3    S    
C46   H45   S    
C9    C11   A    
Cu2   O3    S    
C36   N10   S    
C11   H12   S    
C10   C12   A    
C44   H37   S    
C43   H34   S    
C13   C15   A    
C14   C16   A    
C5    C40   A    
Cu1   O5    S    
C17   C19   A    
C36   C38   A    
Cu2   O6    S    
C41   H26   S    
C21   H4    S    
C27   H5    S    
C21   C25   A    
C28   H6    S    
C18   N6    S    
C46   H44   S    
C3    C5    A    
C1    O3    A    
Cu1   O8    S    
C45   H40   S    
C23   O7    A    
C1    O1    A    
Cu1   N1    S    
C21   N2    A    
C29   C31   A    
N12   H43   S    
C30   C32   A    
C14   N11   S    
C27   C37   A    
C8    C11   A    
C28   C30   A    
C33   C35   A    
C46   H46   S    
C34   C36   A    
N7    H23   S    
C44   H38   S    
C43   H33   S    
C22   C26   A    
C42   H30   S    
N11   H39   S    
C42   H29   S    
C6    C39   A    
C19   N4    S    
N4    H18   S    
C20   N1    A    
C2    O4    A    
C35   N9    S    
