data_mof_unit_59519.cif
_audit_creation_date              2012-12-10T17:18:14-0500
_audit_creation_method            fapswitch 2.2
_symmetry_space_group_name_H-M    P1
_symmetry_Int_Tables_number       1
_space_group_crystal_system       triclinic
_cell_length_a                    10.128445
_cell_length_b                    10.527796
_cell_length_c                    14.967183
_cell_angle_alpha                 90.175448
_cell_angle_beta                  81.406319
_cell_angle_gamma                 94.890454
_cell_volume                      1572.21510894

loop_
_atom_site_label
_atom_site_type_symbol
_atom_type_description
_atom_site_fract_x
_atom_site_fract_y
_atom_site_fract_z
_atom_type_partial_charge
C1    C     C_R   0.555036 0.734597 0.489596 0.842128
C2    C     C_2   0.072045 0.485521 0.495303 -0.110301
C3    C     C_R   0.500645 0.500411 0.673159 1.020518
C4    C     C_R   0.499177 0.498528 0.327263 0.951347
C5    C     C_R   0.502263 0.386908 0.185797 0.458787
C6    C     C_R   0.455716 0.602841 0.820022 0.416675
C7    C     C_R   0.500229 0.502133 0.231893 -0.322862
C8    C     C_R   0.503126 0.500631 0.768827 -0.286063
C9    C     C_R   0.502080 0.619476 0.187266 0.359878
C10   C     C_R   0.559129 0.401189 0.807291 0.365342
C11   C     C_R   0.491230 0.618812 0.095112 -0.044382
C12   C     C_R   0.444760 0.265367 0.502005 0.876138
C13   C     C_R   0.552493 0.395496 0.901769 -0.041397
C14   C     C_R   0.512740 0.504684 0.046072 -0.157113
C15   C     C_R   0.515975 0.504650 0.952469 -0.155617
C16   C     C_R   0.527851 0.389848 0.091061 -0.069912
C17   C     C_R   0.481431 0.613827 0.909308 -0.100731
C18   C     C_R   0.468115 0.730958 0.049697 0.353272
C19   C     C_R   0.581259 0.284964 0.946157 0.336189
C20   C     C_3   0.361376 0.206920 0.228398 0.157388
C21   C     C_3   0.248713 0.257079 0.295534 -0.471673
C22   C     C_3   0.117209 0.174477 0.296427 -0.873584
C23   C     C_R   0.470123 0.729730 0.955885 0.386145
C24   C     C_3   0.252502 0.689363 0.825569 0.177622
C25   C     C_3   0.156424 0.674388 0.756127 -0.362101
C26   C     C_3   0.011944 0.688466 0.799017 -0.951283
C27   C     C_R   0.564376 0.280809 0.041359 0.326467
C28   C     C_2   0.582624 0.870840 0.468966 0.189691
C29   C     C_2   0.416176 0.128928 0.488232 0.173543
C30   C     C_2   0.493152 0.929925 0.428892 0.365878
C31   C     C_2   0.502103 0.069264 0.427814 0.366960
C32   C     C_2   0.926902 0.510067 0.507900 -0.114461
H1    H     H_    0.107005 0.410816 0.450006 0.164240
H2    H     H_    0.037706 0.213314 0.345486 0.267666
H3    H     H_    0.128635 0.075191 0.317032 0.271639
H4    H     H_    0.238845 0.781677 0.860373 0.199395
H5    H     H_    0.223128 0.611681 0.877321 0.089415
H6    H     H_    0.186685 0.747738 0.702002 0.255282
H7    H     H_    0.161627 0.578185 0.725980 0.234189
H8    H     H_    0.979107 0.615241 0.852858 0.268062
H9    H     H_    0.945083 0.675472 0.746655 0.267689
H10   H     H_    0.002706 0.784865 0.828446 0.281114
H11   H     H_    0.557665 0.722727 0.286662 0.333813
H12   H     H_    0.890784 0.580664 0.556463 0.161508
H13   H     H_    0.704903 0.301862 0.764701 0.368044
H14   H     H_    0.363233 0.814942 0.146265 0.368537
H15   H     H_    0.684205 0.137369 0.926767 0.346583
H16   H     H_    0.467373 0.915615 0.947435 0.381109
H17   H     H_    0.556652 0.096630 0.053424 0.359994
H18   H     H_    0.654328 0.075606 0.331866 0.362640
H19   H     H_    0.334450 0.922825 0.369971 0.341378
H20   H     H_    0.260459 0.119373 0.581429 0.348200
H21   H     H_    0.743203 0.881719 0.525730 0.346894
H22   H     H_    0.121119 0.624902 0.576006 0.172409
H23   H     H_    0.880163 0.382200 0.417610 0.185962
H24   H     H_    0.369077 0.105217 0.244806 0.192812
H25   H     H_    0.334669 0.208715 0.158853 0.133714
H26   H     H_    0.276570 0.257134 0.364277 0.246718
H27   H     H_    0.233649 0.356301 0.276870 0.225066
H28   H     H_    0.085914 0.173983 0.228382 0.269564
N1    N     N_2   0.842700 0.448880 0.462930 -0.176613
N2    N     N_2   0.157300 0.551120 0.537070 -0.188242
O1    O     O_R   0.431060 0.692470 0.507460 -0.535333
O2    O     O_3   0.387058 0.691558 0.780953 -0.577701
O3    O     O_3   0.518654 0.734721 0.230859 -0.706715
O4    O     O_3   0.612633 0.308257 0.751416 -0.678937
O5    O     O_3   0.435219 0.840453 0.095489 -0.750403
O6    O     O_3   0.619260 0.179941 0.896357 -0.729766
O7    O     O_3   0.463895 0.840578 0.907609 -0.709525
O8    O     O_3   0.586859 0.172449 0.086751 -0.712021
O9    O     O_3   0.604291 0.137074 0.371037 -0.706108
O10   O     O_3   0.387141 0.861740 0.396832 -0.733097
O11   O     O_3   0.308155 0.060270 0.538881 -0.767578
O12   O     O_R   0.568940 0.307530 0.492540 -0.524125
O13   O     O_3   0.693226 0.940112 0.494206 -0.759031
O14   O     O_R   0.651120 0.659650 0.483670 -0.642355
O15   O     O_R   0.348880 0.340350 0.516330 -0.651483
O16   O     O_R   0.389960 0.516440 0.644050 -0.613093
O17   O     O_R   0.610040 0.483560 0.355950 -0.583992
O18   O     O_R   0.610030 0.483620 0.620260 -0.595931
O19   O     O_R   0.389970 0.516380 0.379740 -0.612169
O20   O     O_3   0.487270 0.273756 0.235192 -0.561872
Zn1   Zn    Zn3+2 0.353060 0.521920 0.515880 0.987291
Zn2   Zn    Zn3+2 0.646940 0.478080 0.484120 1.022673

loop_
_geom_bond_atom_site_label_1
_geom_bond_atom_site_label_2
_ccdc_geom_bond_type
N2    Zn1   S    
C11   C18   A    
C20   O20   S    
C12   C29   S    
C23   O7    S    
H16   O7    S    
O18   Zn2   S    
O14   Zn2   S    
C22   H3    S    
C24   H4    S    
C32   N1    D    
C21   H27   S    
C12   O12   A    
C22   H28   S    
O17   Zn2   S    
C11   C14   A    
C29   O11   S    
O15   Zn1   S    
C2    C32   S    
C6    O2    S    
C5    C16   A    
O16   Zn1   S    
C4    O19   A    
C1    C28   S    
C19   C27   A    
C20   H24   S    
C16   C27   A    
C31   O9    S    
C24   O2    S    
C21   C22   S    
H21   O13   S    
C4    C7    S    
C3    O18   A    
C1    O1    A    
O19   Zn1   S    
C10   O4    S    
C22   H2    S    
C13   C19   A    
C18   C23   A    
C24   C25   S    
C4    O17   A    
C3    C8    S    
C5    C7    A    
C6    C8    A    
H22   N2    S    
C25   C26   S    
C10   C13   A    
O1    Zn1   S    
H18   O9    S    
C25   H6    S    
H11   O3    S    
C12   O15   A    
C24   H5    S    
C32   H12   S    
C19   O6    S    
C17   C23   A    
C9    C11   A    
C27   O8    S    
C2    H1    S    
H20   O11   S    
H17   O8    S    
C13   C15   A    
C14   C16   A    
H19   O10   S    
H15   O6    S    
C26   H10   S    
C7    C9    A    
C6    C17   A    
C1    O14   A    
O12   Zn2   S    
N1    Zn2   S    
C30   O10   S    
C15   C17   A    
C28   C30   D    
C18   O5    S    
C21   H26   S    
C29   C31   D    
C25   H7    S    
C5    O20   S    
C3    O16   A    
C26   H8    S    
C30   C31   S    
H23   N1    S    
C9    O3    S    
H14   O5    S    
C20   C21   S    
C8    C10   A    
H13   O4    S    
C14   C15   A    
C20   H25   S    
C28   O13   S    
C2    N2    D    
C26   H9    S    
