data_mof_unit_9087.cif
_audit_creation_date              2012-12-10T17:28:33-0500
_audit_creation_method            fapswitch 2.2
_symmetry_space_group_name_H-M    P1
_symmetry_Int_Tables_number       1
_space_group_crystal_system       triclinic
_cell_length_a                    10.687659
_cell_length_b                    12.060088
_cell_length_c                    12.908558
_cell_angle_alpha                 94.274815
_cell_angle_beta                  92.984805
_cell_angle_gamma                 84.714832
_cell_volume                      1650.44134228

loop_
_atom_site_label
_atom_site_type_symbol
_atom_type_description
_atom_site_fract_x
_atom_site_fract_y
_atom_site_fract_z
_atom_type_partial_charge
C1    C     C_R   0.496710 0.522600 0.700732 1.030478
C2    C     C_R   0.502070 0.477346 0.300405 0.912803
C3    C     C_R   0.510973 0.462568 0.190346 -0.353687
C4    C     C_R   0.491217 0.536175 0.813056 -0.283015
C5    C     C_R   0.389384 0.621826 0.965795 0.535120
C6    C     C_R   0.630409 0.395234 0.042144 0.478977
C7    C     C_R   0.413174 0.623750 0.860992 0.219447
C8    C     C_R   0.614282 0.396707 0.147792 0.351266
C9    C     C_R   0.551596 0.451436 0.871912 0.403904
C10   C     C_R   0.427198 0.530153 0.128897 0.397973
C11   C     C_R   0.545826 0.461448 0.979607 -0.338154
C12   C     C_R   0.453272 0.538560 0.025283 -0.191604
C13   C     C_R   0.366510 0.955555 0.411957 0.437521
C14   C     C_R   0.633384 0.044632 0.588565 0.430678
C15   C     C_R   0.383529 0.839014 0.418788 -0.154943
C16   C     C_R   0.617051 0.161026 0.580665 -0.203816
C17   C     C_R   0.559384 0.857458 0.537308 0.561267
C18   C     C_R   0.440399 0.142567 0.463110 0.575012
C19   C     C_R   0.549195 0.975193 0.531669 -0.156257
C20   C     C_R   0.450763 0.024850 0.468765 -0.159627
C21   C     C_R   0.740819 0.498559 0.499764 0.955051
C22   C     C_R   0.261730 0.504630 0.514585 0.948150
C23   C     C_R   0.887050 0.380706 0.664637 0.452865
C24   C     C_R   0.084845 0.713675 0.483326 0.502923
C25   C     C_R   0.956802 0.299289 0.719000 -0.196109
C26   C     C_R   0.021707 0.775322 0.406191 -0.175351
C27   C     C_R   0.086683 0.291379 0.719399 -0.332444
C28   C     C_R   0.923220 0.732048 0.346283 -0.323369
C29   C     C_R   0.147942 0.367257 0.666939 0.498701
C30   C     C_R   0.876580 0.632706 0.371821 0.501999
C31   C     C_R   0.076993 0.438530 0.597468 0.028228
C32   C     C_R   0.933707 0.576361 0.457701 0.016153
C33   C     C_R   0.944829 0.438704 0.590701 -0.134466
C34   C     C_R   0.051110 0.604117 0.496566 -0.154383
C35   C     C_R   0.130364 0.518272 0.541998 -0.156127
C36   C     C_R   0.875719 0.499051 0.511881 -0.140500
H1    H     H_    0.879471 0.778560 0.283388 0.162332
H2    H     H_    0.139289 0.233957 0.769615 0.164418
H3    H     H_    0.910630 0.250046 0.769791 0.189161
H4    H     H_    0.048515 0.857310 0.393167 0.178878
H5    H     H_    0.680363 0.214828 0.623147 0.211792
H6    H     H_    0.320834 0.785116 0.375455 0.173807
N1    N     N_R   0.523130 0.207800 0.519340 -0.177381
N2    N     N_R   0.476870 0.792200 0.480660 -0.173461
O1    O     O_R   0.506170 0.421700 0.658830 -0.501263
O2    O     O_R   0.493830 0.578300 0.341170 -0.582682
O3    O     O_R   0.491330 0.609310 0.646410 -0.689504
O4    O     O_R   0.508670 0.390690 0.353590 -0.652628
O5    O     O_R   0.690650 0.406190 0.506220 -0.598328
O6    O     O_R   0.309350 0.593810 0.493780 -0.617899
O7    O     O_R   0.675800 0.593810 0.493800 -0.602823
O8    O     O_R   0.324200 0.406190 0.506200 -0.584323
Zn1   Zn    Zn3+2 0.509910 0.374730 0.508290 1.013380
Zn2   Zn    Zn3+2 0.490090 0.625270 0.491710 0.976773
O9    O     O_3   0.268248 0.002111 0.350992 -0.688091
H7    H     H_    0.217137 0.942489 0.320182 0.311154
O10   O     O_3   0.730698 0.998571 0.650911 -0.673858
H8    H     H_    0.779510 0.058750 0.684262 0.327955
O11   O     O_3   0.768865 0.413203 0.697616 -0.717734
H9    H     H_    0.757433 0.495830 0.698601 0.297943
O12   O     O_3   0.168199 0.767070 0.550670 -0.734525
H10   H     H_    0.182164 0.725038 0.614053 0.372204
O13   O     O_3   0.272958 0.379885 0.691321 -0.760641
H11   H     H_    0.306411 0.325543 0.742155 0.333697
O14   O     O_3   0.780147 0.587651 0.312119 -0.793680
H12   H     H_    0.752633 0.637040 0.255602 0.323129
O15   O     O_3   0.320390 0.588551 0.168563 -0.713396
H13   H     H_    0.293286 0.550639 0.227993 0.323026
O16   O     O_3   0.609371 0.356114 0.822642 -0.675642
H14   H     H_    0.590547 0.290908 0.859773 0.356640
O17   O     O_3   0.704654 0.335987 0.206275 -0.701701
H15   H     H_    0.711207 0.370960 0.277792 0.362321
O18   O     O_3   0.348659 0.705833 0.805634 -0.718286
H16   H     H_    0.412649 0.744382 0.772878 0.349013
O19   O     O_3   0.302979 0.702416 0.008809 -0.516075
C37   C     C_3   0.366837 0.795226 0.047998 0.148043
H17   H     H_    0.417450 0.829542 0.985899 0.131409
H18   H     H_    0.435324 0.772078 0.112545 0.140627
C38   C     C_3   0.271360 0.886361 0.090245 -0.729913
H19   H     H_    0.215754 0.853077 0.149301 0.255613
H20   H     H_    0.206487 0.916147 0.026124 0.258486
H21   H     H_    0.320522 0.957644 0.126654 0.221624
O20   O     O_3   0.737088 0.335983 0.003060 -0.561899
C39   C     C_3   0.832246 0.409419 0.997689 0.166154
H22   H     H_    0.828061 0.479226 0.059790 0.122211
H23   H     H_    0.824361 0.445645 0.920682 0.175576
C40   C     C_3   0.960433 0.344397 0.009911 -0.747099
H24   H     H_    0.968437 0.271783 0.951894 0.246830
H25   H     H_    0.035766 0.399304 0.998485 0.210522
H26   H     H_    0.973265 0.313760 0.089137 0.274863
O21   O     O_3   0.345884 0.190040 0.399937 -0.684389
H27   H     H_    0.371192 0.261236 0.380050 0.367904
O22   O     O_3   0.653852 0.810017 0.600559 -0.694205
H28   H     H_    0.628879 0.738537 0.619996 0.359273

loop_
_geom_bond_atom_site_label_1
_geom_bond_atom_site_label_2
_ccdc_geom_bond_type
C40   H24   S    
C29   O13   S    
C24   O12   S    
C27   C29   A    
O18   H16   S    
C19   C20   A    
C39   C40   S    
O9    H7    S    
C1    O1    A    
C21   O5    A    
C7    O18   S    
C21   C36   S    
C10   O15   S    
C2    O2    A    
C23   O11   S    
C22   C35   S    
O22   H28   S    
C18   O21   S    
C32   C36   A    
C24   C26   A    
C15   N2    A    
C27   H2    S    
C33   C36   A    
C34   C35   A    
N1    Zn1   S    
C23   C33   A    
C31   C33   A    
C18   C20   A    
O21   H27   S    
C22   O6    A    
O1    Zn1   S    
O11   H9    S    
O16   H14   S    
C4    C7    A    
C5    C7    A    
O4    Zn1   S    
C37   H18   S    
O15   H13   S    
C37   H17   S    
C5    C12   A    
C3    C8    A    
C6    C11   A    
C38   H20   S    
C1    O3    A    
C6    C8    A    
C2    O4    A    
C24   C34   A    
O13   H11   S    
C32   C34   A    
C5    O19   S    
O19   C37   S    
O20   C39   S    
O2    Zn2   S    
O6    Zn2   S    
C39   H22   S    
C9    C11   A    
C16   N1    A    
C10   C12   A    
O3    Zn2   S    
C13   C15   A    
C14   C16   A    
C17   O22   S    
C21   O7    A    
O8    Zn1   S    
C22   O8    A    
C14   O10   S    
C8    O17   S    
C6    O20   S    
C13   C20   A    
C14   C19   A    
C15   H6    S    
C9    O16   S    
C38   H21   S    
C11   C12   A    
C25   C27   A    
C26   C28   A    
O7    Zn2   S    
C1    C4    S    
C40   H25   S    
C2    C3    S    
C17   N2    A    
O17   H15   S    
C29   C31   A    
C3    C10   A    
C18   N1    A    
C25   H3    S    
C30   C32   A    
C26   H4    S    
O10   H8    S    
C28   H1    S    
O5    Zn1   S    
C28   C30   A    
C17   C19   A    
C31   C35   A    
C23   C25   A    
O12   H10   S    
C30   O14   S    
C38   H19   S    
N2    Zn2   S    
C37   C38   S    
O14   H12   S    
C40   H26   S    
C39   H23   S    
C4    C9    A    
C16   H5    S    
C13   O9    S    
