data_mof_unit_66607.cif
_audit_creation_date              2012-12-10T19:24:08-0500
_audit_creation_method            fapswitch 2.2
_symmetry_space_group_name_H-M    P1
_symmetry_Int_Tables_number       1
_space_group_crystal_system       triclinic
_cell_length_a                    10.645475
_cell_length_b                    10.799444
_cell_length_c                    9.976684
_cell_angle_alpha                 90.182135
_cell_angle_beta                  87.905583
_cell_angle_gamma                 89.965695
_cell_volume                      1146.19927444

loop_
_atom_site_label
_atom_site_type_symbol
_atom_type_description
_atom_site_fract_x
_atom_site_fract_y
_atom_site_fract_z
_atom_type_partial_charge
C1    C     C_R   0.510565 0.258539 0.498937 0.862587
C2    C     C_R   0.489422 0.741299 0.500219 0.857490
C3    C     C_3   0.425713 0.967563 0.604932 0.160847
C4    C     C_3   0.573782 0.032824 0.387639 0.169710
C5    C     C_3   0.473056 0.391868 0.048397 0.120722
C6    C     C_3   0.526213 0.608785 0.953300 0.189414
C7    C     C_3   0.582976 0.423705 0.949571 0.129982
C8    C     C_3   0.417550 0.576356 0.052099 0.131728
C9    C     C_3   0.393445 0.469541 0.956749 0.133092
C10   C     C_3   0.606935 0.531778 0.044654 0.131958
C11   C     C_R   0.259300 0.487333 0.501282 0.876415
C12   C     C_R   0.741420 0.506819 0.498061 0.869186
C13   C     C_3   0.029324 0.421405 0.600751 0.060696
C14   C     C_3   0.970572 0.562892 0.393785 0.079250
C15   C     C_3   0.948728 0.379450 0.483549 0.131130
C16   C     C_3   0.050813 0.605574 0.510706 0.122163
C17   C     C_3   0.876588 0.503263 0.494614 -0.161761
C18   C     C_3   0.124003 0.482290 0.501248 -0.178727
C19   C     C_3   0.957819 0.543546 0.611396 0.085329
C20   C     C_3   0.042985 0.441130 0.383603 0.101475
C21   C     C_3   0.553497 0.034730 0.607840 0.072019
C22   C     C_3   0.447418 0.963551 0.383954 0.081323
C23   C     C_3   0.609395 0.946017 0.502608 0.084671
C24   C     C_3   0.389955 0.053660 0.488684 0.068394
C25   C     C_3   0.484109 0.876670 0.498829 -0.186518
C26   C     C_3   0.516283 0.122870 0.495423 -0.190308
N1    N     N_3   0.499910 0.500030 0.863290 -0.144885
N2    N     N_3   0.500090 0.499970 0.136710 -0.160489
O1    O     O_R   0.500010 0.313960 0.616610 -0.628828
O2    O     O_R   0.499990 0.686040 0.383390 -0.608229
O3    O     O_R   0.500060 0.313950 0.383350 -0.650131
O4    O     O_R   0.499940 0.686050 0.616650 -0.627121
O5    O     O_R   0.313930 0.499970 0.616610 -0.614993
O6    O     O_R   0.686070 0.500030 0.383390 -0.621560
O7    O     O_R   0.313980 0.499960 0.383350 -0.631766
O8    O     O_R   0.686020 0.500040 0.616650 -0.640574
Zn1   Zn    Zn3+2 0.499970 0.500010 0.655740 0.921336
Zn2   Zn    Zn3+2 0.500030 0.499990 0.344260 0.921186
C27   C     C_3   0.877228 0.258315 0.469276 -0.378743
C28   C     C_3   0.963352 0.146751 0.468049 -0.914932
H1    H     H_    0.017754 0.141017 0.371335 0.248311
H2    H     H_    0.027276 0.150828 0.552839 0.288423
H3    H     H_    0.905838 0.062210 0.480447 0.274152
H4    H     H_    0.808172 0.250329 0.554653 0.202769
H5    H     H_    0.825420 0.261190 0.374990 0.188657
C29   C     C_3   0.114850 0.730044 0.527450 -0.401489
C30   C     C_3   0.020347 0.834637 0.529151 -0.886879
H6    H     H_    0.953261 0.826039 0.616314 0.291339
H7    H     H_    0.070649 0.922523 0.536954 0.250606
H8    H     H_    0.970314 0.837306 0.434106 0.256389
H9    H     H_    0.163824 0.729069 0.623342 0.210330
H10   H     H_    0.185024 0.743844 0.443842 0.192363
N3    N     N_3   0.055491 0.341133 0.713003 -0.457627
H11   H     H_    0.064981 0.396624 0.797601 0.190909
H12   H     H_    0.141170 0.297381 0.690983 0.190291
N4    N     N_3   0.938894 0.634437 0.276328 -0.455182
H13   H     H_    0.017616 0.686909 0.247460 0.190104
H14   H     H_    0.866862 0.695665 0.304287 0.188039
N5    N     N_3   0.914437 0.599808 0.737309 -0.472386
H15   H     H_    0.993780 0.622495 0.790926 0.187514
H16   H     H_    0.866356 0.531677 0.792422 0.201131
N6    N     N_3   0.090547 0.387604 0.257520 -0.458950
H17   H     H_    0.012928 0.360891 0.203175 0.187360
H18   H     H_    0.139444 0.307056 0.279989 0.174124
N7    N     N_3   0.731148 0.885838 0.509516 -0.474901
H19   H     H_    0.745525 0.837639 0.419529 0.178394
H20   H     H_    0.724655 0.818470 0.583651 0.202615
N8    N     N_3   0.270038 0.115657 0.473010 -0.474493
H21   H     H_    0.208839 0.049555 0.436497 0.179199
H22   H     H_    0.282205 0.180754 0.396636 0.176449
N9    N     N_3   0.625427 0.061965 0.724341 -0.469831
H23   H     H_    0.561861 0.078631 0.803698 0.186213
H24   H     H_    0.679180 0.140419 0.702805 0.191880
N10   N     N_3   0.381160 0.927335 0.265437 -0.460650
H25   H     H_    0.354337 0.008921 0.219080 0.190036
H26   H     H_    0.297185 0.886114 0.299038 0.168669
C31   C     C_3   0.343687 0.939901 0.731269 -0.404200
C32   C     C_3   0.239116 0.033868 0.759586 -0.853646
H27   H     H_    0.275454 0.129468 0.748636 0.271555
H28   H     H_    0.161736 0.021447 0.691018 0.267043
H29   H     H_    0.199434 0.020616 0.862987 0.249489
H30   H     H_    0.302953 0.846171 0.724140 0.203663
H31   H     H_    0.403685 0.942839 0.819038 0.197995
C33   C     C_3   0.673085 0.062266 0.276915 -0.426288
C34   C     C_3   0.662070 0.980558 0.153296 -0.847111
H32   H     H_    0.664503 0.881251 0.181836 0.277002
H33   H     H_    0.573839 0.000733 0.102494 0.265415
H34   H     H_    0.741860 0.999433 0.081486 0.250622
H35   H     H_    0.668593 0.160900 0.250353 0.194368
H36   H     H_    0.767925 0.047892 0.315248 0.225229
C35   C     C_3   0.677557 0.329015 0.893239 -0.382306
C36   C     C_3   0.787165 0.301598 0.982899 -0.950098
H37   H     H_    0.858133 0.376518 0.976106 0.251617
H38   H     H_    0.753748 0.289272 0.088415 0.258692
H39   H     H_    0.834236 0.214702 0.948612 0.270774
H40   H     H_    0.624596 0.243558 0.885957 0.217137
H41   H     H_    0.714578 0.355645 0.792809 0.244282
C37   C     C_3   0.309449 0.651274 0.116975 -0.349167
C38   C     C_3   0.248167 0.739811 0.019911 -0.950391
H42   H     H_    0.309681 0.820742 0.999921 0.258689
H43   H     H_    0.227889 0.692566 0.924101 0.281622
H44   H     H_    0.158433 0.774920 0.065692 0.253094
H45   H     H_    0.236821 0.586088 0.156718 0.236585
H46   H     H_    0.345156 0.703147 0.202474 0.246035
C39   C     C_3   0.430649 0.266802 0.104560 -0.345036
C40   C     C_3   0.373302 0.184264 0.998822 -1.014102
H47   H     H_    0.269805 0.196805 0.000516 0.263078
H48   H     H_    0.412765 0.206143 0.897647 0.277344
H49   H     H_    0.393026 0.085544 0.017646 0.258669
H50   H     H_    0.512959 0.219958 0.142904 0.235008
H51   H     H_    0.360278 0.281551 0.187737 0.227039
C41   C     C_3   0.549509 0.741125 0.909326 -0.400362
C42   C     C_3   0.680923 0.762486 0.850835 -0.846313
H52   H     H_    0.751467 0.759136 0.929397 0.255043
H53   H     H_    0.701871 0.693473 0.771395 0.302418
H54   H     H_    0.686792 0.856084 0.807644 0.270678
H55   H     H_    0.479761 0.761857 0.835187 0.235484
H56   H     H_    0.533546 0.803766 0.996402 0.209267
N11   N     N_3   0.271039 0.440947 0.905559 -0.449016
H57   H     H_    0.213501 0.410472 0.985841 0.181766
H58   H     H_    0.283742 0.367450 0.838596 0.205737
N12   N     N_3   0.726438 0.570195 0.097482 -0.425037
H59   H     H_    0.791187 0.577419 0.017045 0.172798
H60   H     H_    0.758969 0.497590 0.155141 0.231424

loop_
_geom_bond_atom_site_label_1
_geom_bond_atom_site_label_2
_ccdc_geom_bond_type
C7    C10   S    
C14   N4    S    
C39   H50   S    
C11   C18   S    
C21   C26   S    
C30   H7    S    
C5    C39   S    
N3    H11   S    
N10   H26   S    
C13   C18   S    
C21   N9    S    
O8    Zn1   S    
C24   C26   S    
C41   H55   S    
C32   H28   S    
C40   H47   S    
C31   H31   S    
C37   H45   S    
C29   H10   S    
C1    O3    A    
C7    N1    S    
N4    H13   S    
O2    Zn2   S    
C2    O4    A    
C8    C37   S    
N6    H18   S    
C35   H40   S    
C28   H3    S    
C30   H6    S    
C8    C9    S    
N7    H20   S    
C22   C25   S    
C12   C17   S    
C12   O8    A    
C18   C20   S    
C31   C32   S    
C27   H5    S    
C42   H54   S    
N3    H12   S    
C39   H51   S    
N5    H15   S    
C14   C17   S    
C3    C24   S    
C33   H36   S    
C1    O1    A    
C41   C42   S    
C30   H8    S    
C13   N3    S    
N11   H58   S    
C15   C20   S    
N5    H16   S    
N10   H25   S    
C13   C19   S    
C34   H33   S    
C14   C20   S    
C11   O5    A    
O7    Zn2   S    
C33   C34   S    
C16   C29   S    
C35   C36   S    
N9    H24   S    
C4    C23   S    
C32   H27   S    
N8    H21   S    
C6    C8    S    
C19   N5    S    
C34   H32   S    
C29   H9    S    
C36   H39   S    
O5    Zn1   S    
C5    C9    S    
N6    H17   S    
C5    N2    S    
C4    C22   S    
C6    N1    S    
C4    C33   S    
N2    Zn2   S    
C7    C35   S    
C38   H44   S    
C36   H38   S    
O4    Zn1   S    
C35   H41   S    
C15   C27   S    
C16   C18   S    
C28   H1    S    
C38   H43   S    
C37   C38   S    
C21   C23   S    
C1    C26   S    
C9    N11   S    
C14   C16   S    
C3    C21   S    
C33   H35   S    
C22   N10   S    
N12   H60   S    
C3    C31   S    
C27   C28   S    
C9    N1    S    
C5    C7    S    
C42   H52   S    
C34   H34   S    
C10   N2    S    
C15   C17   S    
C29   C30   S    
O6    Zn2   S    
C6    C41   S    
C28   H2    S    
C10   N12   S    
C6    C10   S    
C4    C26   S    
N11   H57   S    
C27   H4    S    
C39   C40   S    
O3    Zn2   S    
C2    O2    A    
C23   N7    S    
C13   C15   S    
N9    H23   S    
C38   H42   S    
C41   H56   S    
C32   H29   S    
C40   H48   S    
C31   H30   S    
N1    Zn1   S    
C16   C19   S    
C37   H46   S    
C11   O7    A    
C36   H37   S    
C17   C19   S    
N4    H14   S    
C2    C25   S    
C22   C24   S    
C23   C25   S    
C20   N6    S    
C24   N8    S    
C3    C25   S    
C8    N2    S    
N8    H22   S    
N7    H19   S    
O1    Zn1   S    
N12   H59   S    
C12   O6    A    
C42   H53   S    
C40   H49   S    
