data_mof_unit_58063.cif
_audit_creation_date              2012-12-10T20:11:27-0500
_audit_creation_method            fapswitch 2.2
_symmetry_space_group_name_H-M    P1
_symmetry_Int_Tables_number       1
_space_group_crystal_system       triclinic
_cell_length_a                    15.917208
_cell_length_b                    15.917712
_cell_length_c                    51.472474
_cell_angle_alpha                 89.999803
_cell_angle_beta                  89.999913
_cell_angle_gamma                 90.005842
_cell_volume                      13041.350731

loop_
_atom_site_label
_atom_site_type_symbol
_atom_type_description
_atom_site_fract_x
_atom_site_fract_y
_atom_site_fract_z
_atom_type_partial_charge
C1    C     C_R   0.075397 0.491457 0.637099 -0.238711
C2    C     C_R   0.425437 0.014424 0.862876 -0.254364
C3    C     C_1   0.276588 0.223411 0.250000 -0.127501
C4    C     C_1   0.223411 0.723410 0.750000 -0.127716
C5    C     C_1   0.776589 0.276590 0.250000 -0.128060
C6    C     C_1   0.276589 0.223411 0.750000 -0.127293
C7    C     C_1   0.723412 0.776589 0.250000 -0.127501
C8    C     C_1   0.776589 0.723411 0.250000 -0.127305
C9    C     C_1   0.223412 0.276589 0.750000 -0.127491
C10   C     C_1   0.723411 0.223410 0.250000 -0.127760
C11   C     C_1   0.276589 0.776590 0.750000 -0.128003
C12   C     C_1   0.223411 0.276589 0.250000 -0.127301
C13   C     C_R   0.984664 0.425631 0.137118 -0.248980
C14   C     C_1   0.776588 0.723411 0.750000 -0.127490
C15   C     C_1   0.276589 0.776590 0.250000 -0.127747
C16   C     C_1   0.723411 0.223410 0.750000 -0.127998
C17   C     C_R   0.518312 0.072512 0.944959 0.710090
C18   C     C_R   0.480768 0.927674 0.054959 0.687705
C19   C     C_R   0.926955 0.516118 0.944987 0.709302
C20   C     C_R   0.072929 0.483408 0.054998 0.704581
C21   C     C_R   0.481686 0.927450 0.944960 0.710050
C22   C     C_R   0.519228 0.072299 0.054958 0.687686
C23   C     C_R   0.073040 0.483881 0.944987 0.709299
C24   C     C_R   0.012629 0.574885 0.862893 -0.253854
C25   C     C_R   0.927063 0.516594 0.054997 0.704585
C26   C     C_R   0.018204 0.572496 0.444960 0.710168
C27   C     C_R   0.980922 0.427606 0.554961 0.687926
C28   C     C_R   0.426979 0.016294 0.444986 0.709320
C29   C     C_R   0.572854 0.983149 0.554997 0.704388
C30   C     C_R   0.981793 0.427381 0.444962 0.710001
C31   C     C_R   0.019071 0.572314 0.554958 0.687833
C32   C     C_R   0.572983 0.983692 0.444987 0.709307
C33   C     C_R   0.427100 0.016842 0.554997 0.704402
C34   C     C_R   0.485216 0.924102 0.972439 -0.165616
C35   C     C_R   0.424612 0.008603 0.137099 -0.238678
C36   C     C_R   0.523983 0.073453 0.027477 -0.161586
C37   C     C_R   0.076312 0.487590 0.972469 -0.166200
C38   C     C_R   0.925726 0.521384 0.027516 -0.168998
C39   C     C_R   0.514779 0.075863 0.972438 -0.165570
C40   C     C_R   0.476011 0.926518 0.027478 -0.161581
C41   C     C_R   0.923682 0.512409 0.972469 -0.166205
C42   C     C_R   0.074267 0.478618 0.027516 -0.168996
C43   C     C_R   0.985354 0.424036 0.472440 -0.165771
C44   C     C_R   0.023820 0.573480 0.527476 -0.161638
C45   C     C_R   0.576262 0.987387 0.472469 -0.166203
C46   C     C_R   0.574562 0.985559 0.862875 -0.254264
C47   C     C_R   0.425770 0.021605 0.527515 -0.168792
C48   C     C_R   0.014636 0.575850 0.472438 -0.165605
C49   C     C_R   0.976169 0.426432 0.527479 -0.161599
C50   C     C_R   0.423697 0.012597 0.472468 -0.166202
C51   C     C_R   0.574184 0.978381 0.527515 -0.168797
C52   C     C_R   0.015331 0.574371 0.137118 -0.248978
C53   C     C_R   0.987370 0.425113 0.862893 -0.253850
C54   C     C_R   0.499998 0.999983 0.986186 -0.086689
C55   C     C_R   0.499998 0.999985 0.013731 -0.065021
C56   C     C_R   0.999997 0.500000 0.986219 -0.081763
C57   C     C_R   0.925375 0.514081 0.362878 -0.254924
C58   C     C_R   0.999996 0.500000 0.013765 -0.077611
C59   C     C_R   0.999996 0.499946 0.486187 -0.086706
C60   C     C_R   0.999995 0.499952 0.513732 -0.065083
C61   C     C_R   0.499979 0.999992 0.486218 -0.081840
C62   C     C_R   0.499978 0.999993 0.513765 -0.077414
C63   C     C_R   0.470967 0.848653 0.986600 0.345333
C64   C     C_R   0.548007 0.146358 0.013318 0.326705
C65   C     C_R   0.152213 0.475775 0.986625 0.342942
C66   C     C_R   0.852078 0.543154 0.013366 0.337686
C67   C     C_R   0.529023 0.151314 0.986598 0.345323
C68   C     C_R   0.484608 0.925640 0.637119 -0.248660
C69   C     C_R   0.451983 0.853613 0.013320 0.326699
C70   C     C_R   0.847781 0.524224 0.986625 0.342946
C71   C     C_R   0.147915 0.456845 0.013367 0.337679
C72   C     C_R   0.971280 0.348553 0.486600 0.345336
C73   C     C_R   0.047672 0.646443 0.513316 0.326773
C74   C     C_R   0.652130 0.975374 0.486625 0.343131
C75   C     C_R   0.352175 0.043556 0.513363 0.337468
C76   C     C_R   0.028694 0.651340 0.486595 0.345305
C77   C     C_R   0.952303 0.353467 0.513322 0.326751
C78   C     C_R   0.347827 0.024605 0.486624 0.343094
C79   C     C_R   0.512772 0.074859 0.362893 -0.253931
C80   C     C_R   0.647778 0.956424 0.513364 0.337481
C81   C     C_R   0.076184 0.490405 0.609859 0.357841
C82   C     C_R   0.924692 0.514966 0.390124 0.349533
C83   C     C_R   0.483889 0.924917 0.609868 0.348417
C84   C     C_R   0.513582 0.075569 0.390141 0.349900
C85   C     C_R   0.923813 0.509543 0.609858 0.357868
C86   C     C_R   0.075304 0.484929 0.390122 0.350099
C87   C     C_R   0.516073 0.075082 0.609867 0.348419
C88   C     C_R   0.486392 0.924425 0.390141 0.349971
C89   C     C_R   0.576173 0.990336 0.109859 0.357958
C90   C     C_R   0.924601 0.508513 0.637099 -0.238699
C91   C     C_R   0.424758 0.015320 0.890122 0.350074
C92   C     C_R   0.983972 0.424904 0.109867 0.348283
C93   C     C_R   0.013435 0.575599 0.890142 0.349962
C94   C     C_R   0.423825 0.009645 0.109859 0.357963
C95   C     C_R   0.575240 0.984649 0.890121 0.350226
C96   C     C_R   0.016020 0.575098 0.109867 0.348284
C97   C     C_R   0.986562 0.424399 0.890142 0.349979
C98   C     C_R   0.999998 0.499969 0.595974 0.031114
C99   C     C_R   0.999998 0.499942 0.403960 0.047307
C100  C     C_R   0.499978 0.999999 0.596020 0.044115
C101  C     C_R   0.074624 0.485865 0.362877 -0.254565
C102  C     C_R   0.499984 0.999996 0.403980 0.047161
C103  C     C_R   0.499999 0.999989 0.095974 0.030989
C104  C     C_R   0.499999 0.999982 0.903958 0.047017
C105  C     C_R   0.999996 0.500001 0.096020 0.044388
C106  C     C_R   0.999998 0.499999 0.903981 0.047136
C107  C     C_R   1.000000 0.500000 0.820253 0.854576
C108  C     C_R   1.000000 0.500000 0.179750 0.852765
C109  C     C_R   0.500000 1.000000 0.820249 0.854523
C110  C     C_R   0.500000 1.000000 0.179746 0.855654
C111  C     C_R   0.499999 1.000000 0.320253 0.854546
C112  C     C_R   0.515369 0.074360 0.637118 -0.248658
C113  C     C_R   0.499999 0.000000 0.679750 0.852800
C114  C     C_R   1.000000 0.500000 0.320249 0.854512
C115  C     C_R   1.000000 0.499999 0.679746 0.855655
C116  C     C_R   0.839682 0.660317 0.750000 0.858583
C117  C     C_R   0.160318 0.339682 0.250000 0.858782
C118  C     C_R   0.339683 0.839684 0.750000 0.858132
C119  C     C_R   0.660317 0.160316 0.250000 0.858672
C120  C     C_R   0.160318 0.339682 0.750000 0.858584
C121  C     C_R   0.839682 0.660318 0.250000 0.858799
C122  C     C_R   0.660317 0.160316 0.750000 0.858138
C123  C     C_R   0.487212 0.925137 0.362892 -0.253923
C124  C     C_R   0.339683 0.839684 0.250000 0.858675
C125  C     C_R   0.839683 0.339684 0.250000 0.858111
C126  C     C_R   0.160317 0.660316 0.750000 0.858683
C127  C     C_R   0.339682 0.160317 0.250000 0.858584
C128  C     C_R   0.660318 0.839682 0.750000 0.858779
C129  C     C_R   0.160317 0.660316 0.250000 0.858124
C130  C     C_R   0.839683 0.339684 0.750000 0.858683
C131  C     C_R   0.660318 0.839682 0.250000 0.858583
C132  C     C_R   0.339682 0.160318 0.750000 0.858783
C133  C     C_R   1.000000 0.499991 0.650929 -0.146652
C134  C     C_R   0.575387 0.991386 0.137099 -0.238680
C135  C     C_R   0.000001 0.499992 0.349058 -0.132662
C136  C     C_R   0.499993 0.000000 0.650938 -0.137665
C137  C     C_R   0.499995 0.999999 0.349068 -0.133543
C138  C     C_R   0.500000 0.999997 0.150929 -0.146687
C139  C     C_R   0.500000 0.999997 0.849056 -0.132968
C140  C     C_R   0.999999 0.500001 0.150938 -0.137430
C141  C     C_R   1.000000 0.499999 0.849069 -0.133627
C142  C     C_1   0.776589 0.276590 0.750000 -0.127712
C143  C     C_1   0.223411 0.723410 0.250000 -0.128042
C144  C     C_1   0.723411 0.776589 0.750000 -0.127290
H1    H     H_    0.134036 0.485208 0.647584 0.218109
H2    H     H_    0.367667 0.025754 0.852352 0.216503
H3    H     H_    0.972484 0.368058 0.147653 0.217552
H4    H     H_    0.022542 0.632921 0.852374 0.216874
H5    H     H_    0.365979 0.014922 0.147583 0.218077
H6    H     H_    0.632330 0.974223 0.852351 0.216512
H7    H     H_    0.027512 0.631943 0.147653 0.217552
H8    H     H_    0.977458 0.367078 0.852374 0.216876
H9    H     H_    0.530343 0.625079 0.986698 0.397502
H10   H     H_    0.712801 0.308279 0.013040 0.412774
H11   H     H_    0.374844 0.538935 0.986555 0.399766
H12   H     H_    0.867542 0.525121 0.352358 0.216474
H13   H     H_    0.683956 0.701701 0.013291 0.408458
H14   H     H_    0.469643 0.374885 0.986694 0.397511
H15   H     H_    0.287176 0.691706 0.013044 0.412771
H16   H     H_    0.625152 0.461055 0.986554 0.399759
H17   H     H_    0.316024 0.298287 0.013293 0.408463
H18   H     H_    0.030698 0.124973 0.486685 0.397635
H19   H     H_    0.211980 0.808868 0.513047 0.412704
H20   H     H_    0.874852 0.038225 0.486566 0.399473
H21   H     H_    0.184529 0.202603 0.513267 0.408530
H22   H     H_    0.969012 0.874843 0.486671 0.397713
H23   H     H_    0.472409 0.868072 0.647654 0.217581
H24   H     H_    0.787952 0.191084 0.513062 0.412707
H25   H     H_    0.125125 0.961682 0.486562 0.399567
H26   H     H_    0.815371 0.797324 0.513270 0.408498
H27   H     H_    0.153220 0.364738 0.572270 0.385464
H28   H     H_    0.792564 0.404160 0.409003 0.387172
H29   H     H_    0.331630 0.853590 0.585672 0.386621
H30   H     H_    0.400550 0.205206 0.409868 0.388361
H31   H     H_    0.846759 0.635126 0.572238 0.385452
H32   H     H_    0.207724 0.595275 0.409393 0.387815
H33   H     H_    0.668314 0.146418 0.585659 0.386630
H34   H     H_    0.522805 0.132875 0.352374 0.216825
H35   H     H_    0.599418 0.794784 0.409869 0.388360
H36   H     H_    0.653027 0.864827 0.072158 0.385360
H37   H     H_    0.292229 0.905370 0.909519 0.387877
H38   H     H_    0.831512 0.353224 0.085984 0.386433
H39   H     H_    0.900125 0.704957 0.909900 0.388423
H40   H     H_    0.346965 0.135136 0.072151 0.385358
H41   H     H_    0.707841 0.094472 0.909628 0.388053
H42   H     H_    0.168476 0.646783 0.085980 0.386437
H43   H     H_    0.099872 0.295043 0.909901 0.388422
H44   H     H_    0.865963 0.514769 0.647583 0.218105
H45   H     H_    0.132448 0.474798 0.352354 0.216506
H46   H     H_    0.527572 0.131928 0.647652 0.217581
H47   H     H_    0.477184 0.867122 0.352372 0.216836
H48   H     H_    0.634020 0.985070 0.147583 0.218077
N1    N     N_R   0.500000 0.999981 0.932024 -0.343080
N2    N     N_R   0.499998 0.999987 0.067909 -0.330449
N3    N     N_R   0.999998 0.499999 0.932050 -0.342827
N4    N     N_R   0.999996 0.500001 0.067945 -0.338938
N5    N     N_R   0.000004 0.499935 0.432025 -0.343179
N6    N     N_R   0.999998 0.499962 0.567909 -0.330479
N7    N     N_R   0.499982 0.999995 0.432050 -0.342838
N8    N     N_R   0.499977 0.999997 0.567944 -0.338757
O1    O     O_3   1.000000 0.500000 0.750000 -0.497938
O2    O     O_R   1.000000 0.430630 0.192350 -0.635995
O3    O     O_2   0.743512 0.074327 0.454858 -0.183894
O4    O     O_3   0.822066 0.025823 0.496012 -0.486358
O5    O     O_2   0.210542 0.058082 0.541934 -0.162650
O6    O     O_2   0.313313 0.172209 0.545243 -0.193794
O7    O     O_3   0.222755 0.164190 0.503808 -0.454370
O8    O     O_2   0.080761 0.783292 0.457780 -0.155276
O9    O     O_2   0.931828 0.745135 0.454909 -0.187258
O10   O     O_3   0.982323 0.822264 0.496110 -0.493517
O11   O     O_2   0.933056 0.212396 0.541896 -0.163535
O12   O     O_2   0.822244 0.318788 0.545042 -0.179909
O13   O     O_R   0.430630 0.000000 0.807650 -0.637192
O14   O     O_3   0.827850 0.227873 0.503642 -0.450400
O15   O     O_2   0.214865 0.073630 0.457755 -0.157964
O16   O     O_2   0.256460 0.925643 0.454856 -0.184003
O17   O     O_3   0.177896 0.974135 0.496010 -0.486342
O18   O     O_2   0.789410 0.941880 0.541935 -0.162642
O19   O     O_2   0.686622 0.827770 0.545246 -0.193804
O20   O     O_3   0.777180 0.835770 0.503810 -0.454500
O21   O     O_2   0.206666 0.565025 0.587170 -0.139445
O22   O     O_2   0.236479 0.436891 0.611489 -0.238405
O23   O     O_3   0.164999 0.422825 0.566404 -0.504093
O24   O     O_R   0.569370 0.000000 0.192350 -0.636570
O25   O     O_2   0.840494 0.604612 0.425722 -0.184608
O26   O     O_2   0.761062 0.559360 0.387588 -0.244056
O27   O     O_3   0.798139 0.447985 0.422557 -0.451653
O28   O     O_2   0.537338 0.805435 0.577297 -0.160642
O29   O     O_2   0.445369 0.759779 0.612561 -0.231397
O30   O     O_3   0.379049 0.840548 0.573881 -0.480493
O31   O     O_2   0.603080 0.161742 0.425290 -0.182533
O32   O     O_2   0.553176 0.240444 0.387571 -0.243972
O33   O     O_3   0.445188 0.199791 0.423172 -0.454305
O34   O     O_2   0.793303 0.434889 0.587197 -0.139450
O35   O     O_R   0.500000 0.930630 0.307650 -0.637277
O36   O     O_2   0.763533 0.563099 0.611482 -0.238414
O37   O     O_3   0.834988 0.577020 0.566388 -0.504122
O38   O     O_2   0.159421 0.394401 0.425508 -0.183968
O39   O     O_2   0.239057 0.440972 0.387566 -0.244450
O40   O     O_3   0.201529 0.551183 0.422838 -0.452833
O41   O     O_2   0.462596 0.194562 0.577299 -0.160630
O42   O     O_2   0.554593 0.240220 0.612556 -0.231387
O43   O     O_3   0.620884 0.159452 0.573872 -0.480514
O44   O     O_2   0.396883 0.838249 0.425287 -0.182643
O45   O     O_2   0.446797 0.759550 0.387568 -0.244020
O46   O     O_R   0.500000 0.069370 0.692350 -0.635988
O47   O     O_3   0.554776 0.800199 0.423172 -0.454336
O48   O     O_2   0.706901 0.064829 0.087269 -0.139410
O49   O     O_2   0.736306 0.936368 0.111469 -0.238479
O50   O     O_3   0.664908 0.922955 0.066351 -0.504114
O51   O     O_2   0.340900 0.106309 0.925447 -0.183637
O52   O     O_2   0.261078 0.059550 0.887565 -0.244485
O53   O     O_3   0.298494 0.949584 0.922922 -0.453274
O54   O     O_2   0.037174 0.305824 0.077105 -0.161349
O55   O     O_2   0.946262 0.259578 0.112558 -0.231187
O56   O     O_3   0.878663 0.340291 0.074079 -0.479731
O57   O     O_R   0.069370 0.500000 0.307650 -0.637220
O58   O     O_2   0.102798 0.661981 0.925273 -0.182620
O59   O     O_2   0.052602 0.740575 0.887569 -0.243936
O60   O     O_3   0.944806 0.699631 0.923194 -0.454417
O61   O     O_2   0.293092 0.935143 0.087275 -0.139411
O62   O     O_2   0.263694 0.063620 0.111467 -0.238480
O63   O     O_3   0.335086 0.077004 0.066348 -0.504119
O64   O     O_2   0.659080 0.893417 0.925387 -0.183457
O65   O     O_2   0.738956 0.940545 0.887559 -0.244592
O66   O     O_3   0.701410 0.050183 0.923000 -0.453600
O67   O     O_2   0.962810 0.694180 0.077107 -0.161343
O68   O     O_R   0.930630 0.500000 0.692350 -0.636571
O69   O     O_2   0.053732 0.740424 0.112558 -0.231185
O70   O     O_3   0.121320 0.659714 0.074077 -0.479738
O71   O     O_2   0.897197 0.338017 0.925273 -0.182648
O72   O     O_2   0.947397 0.259424 0.887569 -0.243945
O73   O     O_3   0.055190 0.300368 0.923195 -0.454424
O74   O     O_R   0.500000 0.069370 0.307650 -0.637280
O75   O     O_R   0.500000 0.930630 0.692350 -0.635986
O76   O     O_R   0.930630 0.500000 0.307650 -0.637244
O77   O     O_3   1.000000 0.500000 0.250000 -0.497908
O78   O     O_R   0.069370 0.500000 0.692350 -0.636571
O79   O     O_R   0.902350 0.666510 0.764820 -0.630793
O80   O     O_R   0.097650 0.333490 0.235180 -0.628692
O81   O     O_R   0.333490 0.902350 0.764820 -0.630607
O82   O     O_R   0.666510 0.097650 0.235180 -0.629366
O83   O     O_R   0.097650 0.333490 0.764820 -0.630794
O84   O     O_R   0.902350 0.666510 0.235180 -0.628691
O85   O     O_R   0.666510 0.097650 0.764820 -0.630600
O86   O     O_R   0.333490 0.902350 0.235180 -0.629368
O87   O     O_R   0.902350 0.333490 0.235180 -0.630368
O88   O     O_3   0.500000 0.000000 0.750000 -0.497936
O89   O     O_R   0.097650 0.666510 0.764820 -0.631164
O90   O     O_R   0.333490 0.097650 0.235180 -0.629745
O91   O     O_R   0.666510 0.902350 0.764820 -0.631378
O92   O     O_R   0.097650 0.666510 0.235180 -0.630375
O93   O     O_R   0.902350 0.333490 0.764820 -0.631163
O94   O     O_R   0.666510 0.902350 0.235180 -0.629745
O95   O     O_R   0.333490 0.097650 0.764820 -0.631377
O96   O     O_R   0.402350 0.166510 0.264820 -0.630797
O97   O     O_R   0.597650 0.833490 0.735180 -0.628696
O98   O     O_R   0.833490 0.402350 0.264820 -0.630645
O99   O     O_3   0.500000 0.000000 0.250000 -0.497927
O100  O     O_R   0.166510 0.597650 0.735180 -0.629362
O101  O     O_R   0.597650 0.833490 0.264820 -0.630798
O102  O     O_R   0.402350 0.166510 0.735180 -0.628697
O103  O     O_R   0.166510 0.597650 0.264820 -0.630618
O104  O     O_R   0.833490 0.402350 0.735180 -0.629363
O105  O     O_R   0.402350 0.833490 0.735180 -0.630364
O106  O     O_R   0.597650 0.166510 0.264820 -0.631181
O107  O     O_R   0.833490 0.597650 0.735180 -0.629745
O108  O     O_R   0.166510 0.402350 0.264820 -0.631374
O109  O     O_R   0.597650 0.166510 0.735180 -0.630365
O110  O     O_R   1.000000 0.430630 0.807650 -0.637279
O111  O     O_R   0.402350 0.833490 0.264820 -0.631174
O112  O     O_R   0.166510 0.402350 0.735180 -0.629747
O113  O     O_R   0.833490 0.597650 0.264820 -0.631371
O114  O     O_2   0.542392 0.139995 0.931047 -0.447819
O115  O     O_2   0.470347 0.856660 0.068818 -0.466043
O116  O     O_2   0.858821 0.538245 0.931070 -0.448191
O117  O     O_2   0.144129 0.474777 0.068882 -0.458139
O118  O     O_2   0.457604 0.859967 0.931048 -0.447753
O119  O     O_2   0.529648 0.143315 0.068816 -0.466037
O120  O     O_2   0.141174 0.461753 0.931071 -0.448197
O121  O     O_R   1.000000 0.569370 0.192350 -0.635997
O122  O     O_2   0.855863 0.525227 0.068882 -0.458135
O123  O     O_2   0.042179 0.640017 0.431048 -0.447699
O124  O     O_2   0.970652 0.356574 0.568821 -0.466008
O125  O     O_2   0.358897 0.038586 0.431070 -0.448191
O126  O     O_2   0.644022 0.974273 0.568883 -0.458443
O127  O     O_2   0.957809 0.359860 0.431051 -0.447475
O128  O     O_2   0.029340 0.643351 0.568816 -0.465989
O129  O     O_2   0.641066 0.961401 0.431071 -0.448202
O130  O     O_2   0.355933 0.025720 0.568883 -0.458435
O131  O     O_2   0.418568 0.716817 0.957792 -0.155049
O132  O     O_R   0.569370 0.000000 0.807650 -0.637185
O133  O     O_2   0.567605 0.754570 0.954931 -0.187275
O134  O     O_3   0.516868 0.677619 0.996134 -0.494037
O135  O     O_2   0.567651 0.287388 0.041885 -0.163336
O136  O     O_2   0.678173 0.180694 0.045030 -0.179750
O137  O     O_3   0.672788 0.271602 0.003625 -0.450272
O138  O     O_2   0.285259 0.427003 0.957755 -0.158298
O139  O     O_2   0.243366 0.574905 0.954848 -0.183696
O140  O     O_3   0.322043 0.526600 0.996001 -0.485899
O141  O     O_2   0.710410 0.557296 0.041938 -0.162686
O142  O     O_2   0.812906 0.671665 0.045266 -0.193867
O143  O     O_R   0.430630 0.000000 0.192350 -0.636571
O144  O     O_3   0.722374 0.663493 0.003828 -0.454775
O145  O     O_2   0.581411 0.283152 0.957789 -0.155089
O146  O     O_2   0.432377 0.245385 0.954928 -0.187281
O147  O     O_3   0.483107 0.322343 0.996131 -0.494028
O148  O     O_2   0.432328 0.712587 0.041889 -0.163332
O149  O     O_2   0.321816 0.819291 0.045033 -0.179753
O150  O     O_3   0.327192 0.728378 0.003629 -0.450243
O151  O     O_2   0.714734 0.572992 0.957754 -0.158279
O152  O     O_2   0.756631 0.425091 0.954847 -0.183719
O153  O     O_3   0.677952 0.473394 0.996001 -0.485915
O154  O     O_R   1.000000 0.569370 0.807650 -0.637279
O155  O     O_2   0.289582 0.442701 0.041938 -0.162679
O156  O     O_2   0.187083 0.328336 0.045267 -0.193874
O157  O     O_3   0.277614 0.336503 0.003829 -0.454776
O158  O     O_2   0.919161 0.216611 0.457791 -0.155255
O159  O     O_2   0.068106 0.254711 0.454914 -0.187065
O160  O     O_3   0.017603 0.177612 0.496120 -0.493492
O161  O     O_2   0.066882 0.787531 0.541884 -0.163494
O162  O     O_2   0.177726 0.681173 0.545032 -0.179921
O163  O     O_3   0.172084 0.772071 0.503629 -0.450466
O164  O     O_2   0.785088 0.926334 0.457757 -0.158130
S1    S     S_3+6 0.493314 0.747851 0.972853 0.153252
S2    S     S_3+6 0.116632 0.723319 0.526987 0.173693
S3    S     S_3+6 0.752251 0.000325 0.472807 0.156190
S4    S     S_3+6 0.273196 0.110010 0.527107 0.167127
S5    S     S_3+6 0.006085 0.752071 0.472837 0.153380
S6    S     S_3+6 0.883322 0.276617 0.526997 0.173680
S7    S     S_3+6 0.247710 0.999643 0.472805 0.156224
S8    S     S_3+6 0.726749 0.889961 0.527109 0.167089
S9    S     S_3+6 0.174109 0.479199 0.593879 0.118804
S10   S     S_3+6 0.828720 0.534659 0.406484 0.107504
S11   S     S_3+6 0.462668 0.829278 0.593516 0.113820
S12   S     S_3+6 0.617201 0.223025 0.026987 0.173923
S13   S     S_3+6 0.531585 0.171854 0.406510 0.107391
S14   S     S_3+6 0.825883 0.520727 0.593879 0.118814
S15   S     S_3+6 0.171215 0.464966 0.406485 0.107179
S16   S     S_3+6 0.537281 0.170721 0.593512 0.113829
S17   S     S_3+6 0.468384 0.828138 0.406508 0.107307
S18   S     S_3+6 0.674095 0.979022 0.093884 0.118867
S19   S     S_3+6 0.328923 0.035597 0.906488 0.107127
S20   S     S_3+6 0.962803 0.329258 0.093512 0.113808
S21   S     S_3+6 0.031231 0.671922 0.906510 0.107316
S22   S     S_3+6 0.325901 0.020954 0.093884 0.118869
S23   S     S_3+6 0.252272 0.500935 0.972801 0.156309
S24   S     S_3+6 0.671059 0.964298 0.906488 0.107041
S25   S     S_3+6 0.037185 0.670746 0.093512 0.113811
S26   S     S_3+6 0.968766 0.328077 0.906510 0.107296
S27   S     S_3+6 0.772940 0.609398 0.027120 0.166986
S28   S     S_3+6 0.506667 0.252112 0.972850 0.153249
S29   S     S_3+6 0.382784 0.776952 0.026990 0.173930
S30   S     S_3+6 0.747723 0.499060 0.972801 0.156302
S31   S     S_3+6 0.227051 0.390600 0.027120 0.166984
S32   S     S_3+6 0.993856 0.247809 0.472846 0.153426
Zn1   Zn    Zn3+2 0.900880 0.500000 0.727850 1.011094
Zn2   Zn    Zn3+2 0.599120 0.000000 0.772150 1.008348
Zn3   Zn    Zn3+2 0.000000 0.400880 0.227850 1.010772
Zn4   Zn    Zn3+2 1.000000 0.599120 0.772150 1.008485
Zn5   Zn    Zn3+2 0.599120 0.000000 0.227850 1.011076
Zn6   Zn    Zn3+2 0.400880 0.000000 0.772150 1.008336
Zn7   Zn    Zn3+2 1.000000 0.599120 0.227850 1.010780
Zn8   Zn    Zn3+2 1.000000 0.400880 0.772150 1.008487
Zn9   Zn    Zn3+2 0.099120 0.500000 0.272150 1.008307
Zn10  Zn    Zn3+2 0.500000 0.900880 0.727850 1.010799
Zn11  Zn    Zn3+2 0.500000 0.099120 0.272150 1.008449
Zn12  Zn    Zn3+2 0.099120 0.500000 0.727850 1.011093
Zn13  Zn    Zn3+2 0.900880 0.500000 0.272150 1.008265
Zn14  Zn    Zn3+2 0.500000 0.099120 0.727850 1.010802
Zn15  Zn    Zn3+2 0.500000 0.900880 0.272150 1.008458
Zn16  Zn    Zn3+2 0.400880 0.000000 0.227850 1.011077

loop_
_geom_bond_atom_site_label_1
_geom_bond_atom_site_label_2
_ccdc_geom_bond_type
C63   S1    S    
O136  S12   D    
C88   S17   S    
C119  O106  A    
C32   C45   A    
C42   C58   A    
C85   S14   S    
O52   S19   D    
O27   S10   S    
O137  S12   S    
C49   C60   A    
O77   Zn7   S    
C101  H45   S    
C8    C121  S    
C116  O107  A    
H19   O163  S    
C107  O110  A    
C77   S6    S    
C17   C39   A    
C26   N5    A    
C18   C40   A    
C51   C80   A    
H20   O4    S    
C37   C56   A    
C128  O91   A    
O30   S11   S    
O103  Zn9   S    
O83   Zn8   S    
C53   H8    S    
C104  N1    S    
O17   S7    S    
O57   Zn9   S    
O81   Zn6   S    
C121  O84   A    
C59   C60   A    
O23   S9    S    
C27   N6    A    
O99   Zn15  S    
H11   O140  S    
O56   S20   S    
O1    Zn12  S    
O78   Zn12  S    
C33   O130  S    
C110  C138  S    
O77   Zn3   S    
C6    C132  S    
C31   C44   A    
C87   C112  A    
C23   C37   A    
O96   Zn11  S    
O94   Zn5   S    
O18   S8    D    
C126  O89   A    
O146  S28   D    
O92   Zn7   S    
C88   C102  A    
C24   C141  A    
C40   C55   A    
O158  S32   D    
C86   C99   A    
O41   S16   D    
O11   S6    D    
C26   O123  S    
C79   C137  A    
C34   C54   A    
C83   C100  A    
C33   C47   A    
C30   C43   A    
O74   Zn11  S    
O153  S30   S    
O99   Zn11  S    
C115  O68   A    
C111  C137  S    
O162  S2    D    
O65   S24   D    
C68   C83   A    
C74   C80   A    
H27   O23   S    
C85   C90   A    
C25   O122  S    
O38   S15   D    
C22   C36   A    
O34   S14   D    
C36   C55   A    
O1    Zn1   S    
C102  N7    S    
H22   O10   S    
C125  O98   A    
O20   S8    S    
C66   C70   A    
C52   H7    S    
O85   Zn2   S    
C92   S20   S    
H10   O137  S    
C89   S18   S    
C69   S29   S    
C12   C117  S    
H39   O60   S    
O73   S26   S    
C57   C135  A    
O12   S6    D    
C36   C64   A    
C31   N6    A    
C46   C139  A    
C124  O86   A    
O161  S2    D    
C125  O87   A    
O24   Zn5   S    
C18   N2    A    
C84   C102  A    
C48   C76   A    
C1    H1    S    
C47   C62   A    
C110  O143  A    
C7    C8    T    
C28   O125  S    
C32   N7    A    
O67   S25   D    
C79   C84   A    
C25   C38   A    
H28   O27   S    
C39   C54   A    
O13   Zn6   S    
C124  O111  A    
C29   O126  S    
H24   O14   S    
O53   S19   S    
C16   C122  S    
C10   C119  S    
H36   O50   S    
C120  O83   A    
C63   C69   A    
C37   C65   A    
O64   S24   D    
O101  Zn15  S    
C103  N2    S    
C19   O116  S    
O121  Zn7   S    
O88   Zn2   S    
C43   C59   A    
O86   Zn16  S    
O109  Zn14  S    
O145  S28   D    
C89   C103  A    
C51   C62   A    
O7    S4    S    
C112  C136  A    
C1    C133  A    
C101  C135  A    
C57   H12   S    
O48   S18   D    
O131  S1    D    
C28   N7    A    
C15   C124  S    
C66   S27   S    
O98   Zn13  S    
O19   S8    D    
C86   S15   S    
C122  O109  A    
O160  S32   S    
C45   C74   A    
O82   Zn5   S    
O139  S23   D    
C93   C106  A    
C78   S7    S    
C117  O108  A    
O135  S12   D    
H21   O7    S    
C25   N4    A    
O21   S9    D    
O141  S27   D    
C15   C143  T    
C100  N8    S    
C115  O78   A    
O61   S22   D    
H33   O43   S    
O26   S10   D    
O163  S2    S    
O88   Zn14  S    
C13   H3    S    
O39   S15   D    
H9    O134  S    
C74   S3    S    
C48   C59   A    
C87   C100  A    
C29   C51   A    
C35   C94   A    
C54   C55   A    
O151  S30   D    
C27   O124  S    
O154  Zn4   S    
C108  O121  A    
O69   S25   D    
C131  O101  A    
O144  S27   S    
C123  C137  A    
O140  S23   S    
O51   S19   D    
O164  S3    D    
C4    C126  S    
C47   C75   A    
O28   S11   D    
C24   C93   A    
C97   S26   S    
C93   S21   S    
O47   S17   S    
C65   S23   S    
C49   C77   A    
O44   S17   D    
O87   Zn3   S    
C61   C62   A    
C130  C142  S    
C114  O57   A    
O149  S29   D    
H29   O30   S    
C112  H46   S    
O55   S20   D    
C107  O154  A    
O16   S7    D    
O88   Zn10  S    
C5    C125  S    
C32   O129  S    
C50   C61   A    
O77   Zn13  S    
C57   C82   A    
H14   O147  S    
C71   S31   S    
C21   N1    A    
O138  S23   D    
C11   C118  S    
C27   C49   A    
O10   S5    S    
O132  Zn2   S    
C105  N4    S    
H25   O17   S    
C96   C105  A    
H15   O150  S    
C82   C99   A    
O62   S22   D    
C110  O24   A    
C113  O75   A    
C114  O76   A    
C128  O97   A    
O111  Zn15  S    
O40   S15   S    
O4    S3    S    
C2    C139  A    
C31   O128  S    
C122  O85   A    
C70   S30   S    
C117  O80   A    
O152  S30   D    
C95   S24   S    
C81   C98   A    
C1    C81   A    
C118  O105  A    
O75   Zn10  S    
O68   Zn1   S    
C111  O74   A    
O9    S5    D    
O63   S22   S    
O6    S4    D    
C38   C58   A    
O45   S17   D    
O147  S28   S    
C129  O92   A    
O108  Zn9   S    
C111  O35   A    
C96   S25   S    
O77   Zn9   S    
C7    C131  S    
C26   C48   A    
C130  O104  A    
C67   S28   S    
C132  O102  A    
C120  O112  A    
O155  S31   D    
C17   N1    A    
C6    C9    T    
H17   O157  S    
O148  S29   D    
C50   C78   A    
C127  O90   A    
C14   C144  T    
O89   Zn4   S    
O35   Zn15  S    
O76   Zn13  S    
C13   C140  A    
C118  O81   A    
O25   S10   D    
C90   C133  A    
C21   C34   A    
C115  C133  S    
C33   N8    A    
H31   O37   S    
C131  O94   A    
O99   Zn5   S    
H35   O47   S    
C72   S32   S    
C29   N8    A    
O42   S16   D    
C30   O127  S    
C4    C11   T    
C75   S4    S    
C94   S22   S    
C91   S19   S    
C97   C106  A    
H43   O73   S    
H32   O40   S    
C94   C103  A    
C13   C92   A    
C87   S16   S    
C73   C76   A    
C123  H47   S    
O99   Zn16  S    
H30   O33   S    
C81   S9    S    
O110  Zn8   S    
C83   S11   S    
C129  O103  A    
O84   Zn7   S    
O32   S13   D    
O59   S21   D    
C80   S8    S    
O50   S18   S    
C106  N3    S    
C129  C143  S    
O70   S25   S    
C132  O95   A    
C17   O114  S    
O33   S13   S    
C44   C60   A    
C45   C61   A    
C42   C71   A    
C52   C140  A    
O104  Zn1   S    
C53   C141  A    
C44   C73   A    
C92   C105  A    
O88   Zn6   S    
O150  S29   S    
O143  Zn16  S    
O43   S16   S    
C35   H5    S    
C84   S13   S    
C19   C41   A    
C127  O96   A    
C19   N3    A    
C43   C72   A    
O3    S3    D    
C91   C104  A    
O14   S6    S    
O72   S26   D    
O58   S21   D    
C76   S5    S    
O157  S31   S    
O49   S18   D    
C41   C56   A    
O71   S26   D    
O8    S5    D    
C20   C42   A    
C130  O93   A    
C21   O118  S    
O100  Zn12  S    
O105  Zn10  S    
C23   O120  S    
C109  O13   A    
C35   C138  A    
C3    C127  S    
C126  O100  A    
C82   S10   S    
O80   Zn3   S    
C121  O113  A    
C113  O46   A    
H40   O63   S    
C134  H48   S    
C108  O2    A    
C85   C98   A    
C28   C50   A    
O106  Zn11  S    
C46   C95   A    
C38   C66   A    
C56   C58   A    
C41   C70   A    
C113  C136  S    
C114  C135  S    
C3    C12   T    
O112  Zn12  S    
C64   S12   S    
C2    C91   A    
C88   C123  A    
H41   O66   S    
C119  O82   A    
H26   O20   S    
O107  Zn1   S    
O102  Zn14  S    
O22   S9    D    
O37   S14   S    
C40   C69   A    
C98   N6    S    
C64   C67   A    
C18   O115  S    
C68   C136  A    
H16   O153  S    
C24   H4    S    
C108  C140  S    
H13   O144  S    
O97   Zn10  S    
C53   C97   A    
C65   C71   A    
O113  Zn13  S    
C16   C142  T    
C72   C77   A    
O156  S31   D    
C128  C144  S    
H42   O70   S    
O15   S7    D    
O1    Zn8   S    
C99   N5    S    
C79   H34   S    
C73   S2    S    
O133  S1    D    
H37   O53   S    
C46   H6    S    
O46   Zn14  S    
O79   Zn4   S    
C107  C141  S    
C23   N3    A    
O29   S11   D    
C95   C104  A    
C20   O117  S    
C9    C120  S    
C89   C134  A    
C22   O119  S    
C39   C67   A    
C116  O79   A    
H18   O160  S    
O1    Zn4   S    
C134  C138  A    
O5    S4    D    
O54   S20   D    
O2    Zn3   S    
O60   S21   S    
O90   Zn16  S    
C2    H2    S    
C109  C139  S    
C5    C10   T    
O159  S32   D    
C90   H44   S    
C14   C116  S    
O95   Zn6   S    
C34   C63   A    
C52   C96   A    
O134  S1    S    
O93   Zn8   S    
C75   C78   A    
O66   S24   S    
O91   Zn2   S    
O31   S13   D    
C68   H23   S    
O142  S27   D    
C30   N5    A    
C22   N2    A    
C86   C101  A    
H38   O56   S    
C20   N4    A    
C109  O132  A    
O36   S14   D    
