data_mof_unit_61561.cif
_audit_creation_date              2012-10-26T18:22:03-0400
_audit_creation_method            fapswitch 2.2
_symmetry_space_group_name_H-M    P1
_symmetry_Int_Tables_number       1
_space_group_crystal_system       triclinic
_cell_length_a                    27.336042
_cell_length_b                    27.527552
_cell_length_c                    27.57365
_cell_angle_alpha                 108.315872
_cell_angle_beta                  111.902143
_cell_angle_gamma                 107.897544
_cell_volume                      16013.144492

loop_
_atom_site_label
_atom_site_type_symbol
_atom_type_description
_atom_site_fract_x
_atom_site_fract_y
_atom_site_fract_z
_atom_type_partial_charge
C1    C     C_R   0.079561 0.079390 0.499878 0.554073
C2    C     C_1   0.161317 0.159828 0.498291 0.033818
C3    C     C_1   0.123994 0.123373 0.499294 0.034460
C4    C     C_R   0.083478 0.000104 0.583612 0.540540
C5    C     C_1   0.375278 0.376123 0.500076 0.030911
C6    C     C_R   0.705269 0.945909 0.188731 0.292407
C7    C     C_R   0.711130 0.998734 0.189378 -0.057209
C8    C     C_R   0.764948 0.052148 0.230634 -0.059135
C9    C     C_R   0.812141 0.053584 0.276467 -0.012092
C10   C     C_R   0.802844 0.001518 0.279542 -0.036399
C11   C     C_R   0.752046 0.947347 0.233722 0.281137
C12   C     C_1   0.357096 0.999839 0.857411 -0.017672
C13   C     C_1   0.660007 0.998556 0.149857 -0.042653
C14   C     C_1   0.843499 0.002736 0.330643 0.041672
C15   C     C_1   0.877548 0.002266 0.372307 0.037021
C16   C     C_R   0.920535 0.920637 0.500155 0.554636
C17   C     C_1   0.618512 0.999007 0.115434 -0.032168
C18   C     C_R   0.748370 0.694887 0.485833 -0.009571
C19   C     C_R   0.706329 0.705931 0.499134 0.001281
C20   C     C_R   0.709791 0.761552 0.515829 -0.022958
C21   C     C_R   0.754902 0.806348 0.517940 0.016496
C22   C     C_R   0.797148 0.795421 0.504889 0.023303
C23   C     C_R   0.252541 0.304319 0.516886 -0.017091
C24   C     C_R   0.794548 0.740109 0.489636 -0.026552
C25   C     C_1   0.661644 0.661170 0.499606 0.008427
C26   C     C_1   0.840607 0.839728 0.502802 0.076206
C27   C     C_1   0.876924 0.876597 0.501309 0.063397
C28   C     C_R   0.919266 0.999972 0.418871 0.550396
C29   C     C_1   0.624418 0.624072 0.499973 0.020900
C30   C     C_R   0.492931 0.920565 0.913347 0.543370
C31   C     C_R   0.407637 0.999869 0.907793 0.545252
C32   C     C_R   0.489677 0.079274 0.069429 0.553709
C33   C     C_R   0.572173 0.000536 0.072643 0.542505
C34   C     C_R   0.291711 0.293534 0.498340 0.045602
C35   C     C_R   0.501257 0.420057 0.421397 0.561613
C36   C     C_R   0.420016 0.420271 0.500050 0.555280
C37   C     C_R   0.498616 0.579791 0.578626 0.559208
C38   C     C_R   0.579932 0.579851 0.500073 0.563486
C39   C     C_R   0.536933 0.728658 0.766451 -0.017237
C40   C     C_1   0.133873 0.000244 0.634244 -0.013468
C41   C     C_R   0.501941 0.710203 0.704939 -0.067092
C42   C     C_R   0.467485 0.736757 0.685846 0.297237
C43   C     C_R   0.462854 0.777873 0.727579 -0.011542
C44   C     C_R   0.498779 0.797191 0.789157 -0.062651
C45   C     C_R   0.286801 0.237386 0.477789 0.211911
C46   C     C_R   0.537399 0.774552 0.808632 0.280550
C47   C     C_1   0.500178 0.663424 0.660222 -0.036127
C48   C     C_1   0.496427 0.840331 0.833403 -0.036071
C49   C     C_1   0.494600 0.876647 0.870000 -0.025372
C50   C     C_1   0.499074 0.624997 0.622817 -0.008094
C51   C     C_R   0.549245 0.286414 0.300422 0.025791
C52   C     C_1   0.175274 0.000214 0.675705 -0.007334
C53   C     C_R   0.496387 0.289762 0.293164 -0.032345
C54   C     C_R   0.440370 0.249697 0.238980 -0.041413
C55   C     C_R   0.437118 0.205920 0.191717 -0.004813
C56   C     C_R   0.244822 0.192206 0.478179 0.035259
C57   C     C_R   0.490314 0.203807 0.198900 0.020921
C58   C     C_R   0.545476 0.242801 0.253200 0.213183
C59   C     C_1   0.499456 0.336323 0.339568 0.017788
C60   C     C_1   0.489321 0.159932 0.152073 0.055623
C61   C     C_1   0.489351 0.123285 0.114015 0.026426
C62   C     C_1   0.500770 0.374726 0.377258 0.028975
C63   C     C_1   0.224748 0.000113 0.725186 0.022168
C64   C     C_1   0.266155 0.000014 0.766576 0.022152
C65   C     C_1   0.315648 0.999901 0.816027 -0.008654
C66   C     C_2   0.746130 0.636840 0.470358 0.230478
C67   C     C_R   0.205868 0.203529 0.496928 0.000951
C68   C     C_2   0.666466 0.772281 0.532371 0.198015
C69   C     C_2   0.755359 0.863353 0.530477 0.283894
C70   C     C_3   0.630100 0.841737 0.890296 0.032931
C71   C     C_3   0.671545 0.863735 0.956689 -0.253097
C72   C     C_3   0.734507 0.911254 0.980996 -0.481288
C73   C     C_2   0.572797 0.699991 0.786240 0.252209
C74   C     C_3   0.473520 0.744663 0.607355 0.023321
C75   C     C_3   0.473971 0.801031 0.609390 -0.254779
C76   C     C_3   0.511521 0.826130 0.585362 -0.471328
C77   C     C_2   0.420802 0.800892 0.707287 0.252358
C78   C     C_R   0.210020 0.258876 0.515562 -0.177958
C79   C     C_3   0.602782 0.199843 0.279444 -0.012030
C80   C     C_3   0.649374 0.185049 0.270555 -0.240463
C81   C     C_3   0.656386 0.140289 0.290071 -0.456877
C82   C     C_2   0.609520 0.327985 0.356091 0.257700
C83   C     C_2   0.386053 0.255778 0.232054 0.208634
C84   C     C_2   0.253782 0.361783 0.538181 0.245113
C85   C     C_2   0.377704 0.160851 0.136513 0.286629
C86   C     C_3   0.301511 0.210819 0.399576 -0.007266
C87   C     C_3   0.348540 0.208411 0.383046 -0.248191
C88   C     C_3   0.324705 0.190739 0.317151 -0.479050
C89   C     C_1   0.337371 0.338921 0.499705 0.063283
C90   C     C_2   0.243762 0.134587 0.459296 0.242645
C91   C     C_3   0.782474 0.877197 0.224335 0.012045
C92   C     C_3   0.753529 0.838832 0.157059 -0.267349
C93   C     C_3   0.790877 0.811309 0.143862 -0.471818
C94   C     C_3   0.633791 0.871735 0.091190 0.005005
C95   C     C_3   0.565234 0.842900 0.052281 -0.258709
C96   C     C_3   0.544050 0.822991 0.986430 -0.443304
C97   C     C_2   0.768872 0.106155 0.227105 0.197369
C98   C     C_2   0.870914 0.108540 0.319100 0.289782
C99   C     C_2   0.838253 0.728087 0.474708 0.215155
Cu1   Cu    Cu3+1 0.999290 0.041010 0.540320 1.033687
Cu2   Cu    Cu3+1 0.000710 0.958990 0.459680 1.005693
Cu3   Cu    Cu3+1 0.450160 0.958900 0.991260 0.977303
Cu4   Cu    Cu3+1 0.532210 0.040930 0.991280 0.973185
Cu5   Cu    Cu3+1 0.541730 0.500040 0.541780 1.018238
Cu6   Cu    Cu3+1 0.458270 0.499970 0.458230 1.002775
H1    H     H_    0.179853 0.266786 0.529743 0.119279
H2    H     H_    0.763145 0.926488 0.029326 0.145038
H3    H     H_    0.732449 0.949021 0.975559 0.154318
H4    H     H_    0.579442 0.671108 0.755171 0.106763
H5    H     H_    0.455653 0.712739 0.560444 0.164193
H6    H     H_    0.520646 0.753488 0.633868 0.106900
H7    H     H_    0.427128 0.791970 0.582076 0.218117
H8    H     H_    0.493194 0.833983 0.656289 0.162490
H9    H     H_    0.558838 0.836394 0.612606 0.172301
H10   H     H_    0.511095 0.866963 0.587568 0.165018
H11   H     H_    0.492616 0.794463 0.538053 0.160439
H12   H     H_    0.787388 0.633968 0.483977 0.113443
H13   H     H_    0.425017 0.839635 0.738904 0.097333
H14   H     H_    0.559516 0.158355 0.254521 0.126073
H15   H     H_    0.618218 0.219765 0.327871 0.138846
H16   H     H_    0.635118 0.166998 0.222496 0.182796
H17   H     H_    0.693548 0.225476 0.296931 0.198428
H18   H     H_    0.671398 0.157615 0.338220 0.164665
H19   H     H_    0.690534 0.130657 0.283100 0.199594
H20   H     H_    0.613002 0.098995 0.263211 0.148545
H21   H     H_    0.649953 0.330898 0.355940 0.157726
H22   H     H_    0.381362 0.271516 0.270538 0.102303
H23   H     H_    0.621008 0.737235 0.510560 0.107763
H24   H     H_    0.222818 0.366971 0.552447 0.118338
H25   H     H_    0.337564 0.146083 0.139096 0.143994
H26   H     H_    0.288540 0.242513 0.389033 0.135673
H27   H     H_    0.261058 0.166766 0.372108 0.132496
H28   H     H_    0.389360 0.252096 0.410880 0.178651
H29   H     H_    0.361432 0.176358 0.392406 0.181221
H30   H     H_    0.284471 0.146698 0.288375 0.161613
H31   H     H_    0.359997 0.189544 0.306768 0.142844
H32   H     H_    0.312538 0.222818 0.307050 0.154828
H33   H     H_    0.277312 0.129209 0.449573 0.151474
H34   H     H_    0.713304 0.864752 0.514707 0.144804
H35   H     H_    0.790216 0.850824 0.246789 0.165780
H36   H     H_    0.827673 0.913510 0.242490 0.109426
H37   H     H_    0.707693 0.803607 0.138507 0.194378
H38   H     H_    0.750070 0.866024 0.134832 0.138391
H39   H     H_    0.836794 0.845786 0.161560 0.154237
H40   H     H_    0.769011 0.784334 0.094767 0.161279
H41   H     H_    0.794243 0.782822 0.164523 0.160779
H42   H     H_    0.647294 0.837650 0.079805 0.134127
H43   H     H_    0.655040 0.904739 0.080027 0.103087
H44   H     H_    0.544359 0.804532 0.057169 0.182126
H45   H     H_    0.625112 0.878680 0.884797 0.119839
H46   H     H_    0.549669 0.874212 0.067647 0.194265
H47   H     H_    0.560093 0.861402 0.980004 0.156574
H48   H     H_    0.494109 0.799174 0.959421 0.171486
H49   H     H_    0.561002 0.793388 0.970341 0.191900
H50   H     H_    0.744917 0.103335 0.183997 0.121707
H51   H     H_    0.886622 0.139098 0.304444 0.150273
H52   H     H_    0.824186 0.685025 0.441038 0.111331
H53   H     H_    0.651384 0.826470 0.865625 0.146764
H54   H     H_    0.652531 0.881910 0.982283 0.146770
H55   H     H_    0.674708 0.826764 0.963319 0.197831
H56   H     H_    0.755323 0.893922 0.957116 0.162139
O1    O     O_R   0.059260 0.094480 0.534060 -0.503828
O2    O     O_R   0.465850 0.440140 0.405960 -0.507175
O3    O     O_R   0.475380 0.440190 0.535270 -0.501863
O4    O     O_R   0.060460 0.025210 0.465970 -0.482362
O5    O     O_R   0.404900 0.440130 0.464710 -0.496995
O6    O     O_R   0.534150 0.559870 0.594050 -0.507723
O7    O     O_R   0.463670 0.559810 0.523500 -0.494506
O8    O     O_R   0.595100 0.559880 0.535290 -0.492026
O9    O     O_R   0.524620 0.559820 0.464740 -0.507731
O10   O     O_R   0.060290 0.034630 0.594940 -0.488922
O11   O     O_R   0.061480 0.965370 0.526840 -0.481189
O12   O     O_R   0.526860 0.974720 0.932450 -0.503938
O13   O     O_R   0.939540 0.974790 0.534030 -0.483231
O14   O     O_R   0.940740 0.905520 0.465940 -0.497868
O15   O     O_R   0.938520 0.034630 0.473160 -0.482231
O16   O     O_R   0.939710 0.965370 0.405060 -0.522641
O17   O     O_R   0.457570 0.905440 0.932440 -0.497269
O18   O     O_2   0.698341 0.591605 0.441157 -0.475572
O19   O     O_2   0.681702 0.819396 0.572121 -0.497951
O20   O     O_2   0.802446 0.909273 0.559496 -0.480078
O21   O     O_3   0.573561 0.795704 0.869356 -0.521025
O22   O     O_2   0.594668 0.707360 0.837167 -0.458523
O23   O     O_R   0.395650 0.965280 0.930370 -0.480177
O24   O     O_3   0.434788 0.719512 0.625504 -0.493141
O25   O     O_2   0.380061 0.776348 0.655280 -0.442603
O26   O     O_3   0.596923 0.239907 0.258820 -0.578060
O27   O     O_2   0.615202 0.358507 0.402990 -0.492119
O28   O     O_2   0.347435 0.245874 0.184137 -0.479285
O29   O     O_2   0.288544 0.403755 0.540121 -0.487656
O30   O     O_2   0.372657 0.140411 0.087609 -0.482593
O31   O     O_3   0.326330 0.227900 0.461021 -0.586111
O32   O     O_2   0.205793 0.092321 0.453967 -0.503085
O33   O     O_3   0.743695 0.896233 0.236687 -0.527571
O34   O     O_R   0.464940 0.034560 0.930390 -0.485108
O35   O     O_3   0.650416 0.894689 0.152043 -0.518101
O36   O     O_2   0.796349 0.153594 0.272042 -0.504564
O37   O     O_2   0.902116 0.120754 0.370834 -0.491068
O38   O     O_2   0.890645 0.765586 0.500717 -0.482347
O39   O     O_R   0.455510 0.025110 0.050090 -0.496181
O40   O     O_R   0.524800 0.094390 0.050110 -0.492607
O41   O     O_R   0.517430 0.965270 0.052160 -0.506183
O42   O     O_R   0.586720 0.034550 0.052170 -0.506722
O43   O     O_R   0.536330 0.440200 0.476510 -0.481136

loop_
_geom_bond_atom_site_label_1
_geom_bond_atom_site_label_2
_ccdc_geom_bond_type
C69   H34   S    
C31   O34   A    
C87   C88   S    
C9    C98   S    
C4    O10   A    
C31   O23   A    
C24   C99   S    
C99   O38   D    
C41   C42   A    
C84   H24   S    
C5    C89   T    
C95   C96   S    
C70   H45   S    
C11   O33   S    
C75   C76   S    
C6    O35   S    
C53   C59   S    
C7    C8    A    
C39   C41   A    
C80   H17   S    
C53   C54   A    
C71   H55   S    
C75   H7    S    
C79   O26   S    
C81   H18   S    
C94   O35   S    
Cu5   O43   S    
C32   C61   S    
C1    C3    S    
C12   C65   T    
C20   C68   S    
C43   C77   S    
C73   O22   D    
C86   H26   S    
C96   H47   S    
C5    C36   S    
C33   O41   A    
Cu4   O12   S    
C76   H10   S    
Cu6   O5    S    
Cu2   O11   S    
C18   C19   A    
C32   O40   A    
C92   H38   S    
C87   H28   S    
C54   C83   S    
C70   O21   S    
C96   H49   S    
C72   H3    S    
C45   C56   A    
C8    C9    A    
C66   H12   S    
C79   H14   S    
C29   C38   S    
Cu1   O15   S    
C76   H9    S    
C72   H56   S    
Cu6   O2    S    
C93   H40   S    
C70   C71   S    
C95   H44   S    
C37   O7    A    
C92   H37   S    
C9    C10   A    
C68   H23   S    
C30   O12   A    
C39   C73   S    
C74   O24   S    
C16   C27   S    
C56   C90   S    
C21   C22   A    
Cu1   O10   S    
C25   C29   T    
C77   O25   D    
C87   H29   S    
C94   C95   S    
C67   C78   A    
C17   C33   S    
C19   C25   S    
Cu5   Cu6   S    
C90   H33   S    
C44   C46   A    
C38   O9    A    
C47   C50   T    
C80   H16   S    
C94   H43   S    
C88   H32   S    
C98   H51   S    
Cu6   O9    S    
C98   O37   D    
C81   H19   S    
C97   O36   D    
C41   C47   S    
C88   H31   S    
C37   O6    A    
C2    C67   S    
C74   C75   S    
C6    C11   A    
C51   C58   A    
C91   O33   S    
C86   C87   S    
C28   O15   A    
C57   C60   S    
C23   C84   S    
C40   C52   T    
C33   O42   A    
C35   O2    A    
C91   H35   S    
C82   O27   D    
C60   C61   T    
C51   C53   A    
C55   C85   S    
C43   C44   A    
Cu4   O40   S    
C4    C40   S    
Cu3   O39   S    
C85   H25   S    
C45   O31   S    
C96   H48   S    
C72   H2    S    
C1    O4    A    
C23   C34   A    
C79   H15   S    
C36   O5    A    
C30   O17   A    
C93   H41   S    
C34   C45   A    
Cu2   O4    S    
C51   C82   S    
C93   H39   S    
C39   C46   A    
C75   H8    S    
C42   O24   S    
C48   C49   T    
C30   C49   S    
C1    O1    A    
C77   H13   S    
C99   H52   S    
C12   C31   S    
C10   C14   S    
Cu3   O17   S    
C18   C24   A    
Cu2   O14   S    
C95   H46   S    
C42   C43   A    
C15   C28   S    
C91   C92   S    
C16   O14   A    
C38   O8    A    
C28   O16   A    
C16   O13   A    
C94   H42   S    
C74   H6    S    
C54   C55   A    
C59   C62   T    
C4    O11   A    
C81   H20   S    
C58   O26   S    
C83   O28   D    
C88   H30   S    
C83   H22   S    
C80   C81   S    
C52   C63   S    
Cu5   O3    S    
Cu1   O1    S    
C73   H4    S    
C6    C7    A    
Cu4   O34   S    
C85   O30   D    
C56   C67   A    
C71   H54   S    
C66   O18   D    
C86   O31   S    
Cu6   O7    S    
C13   C17   T    
C78   H1    S    
Cu3   O23   S    
C64   C65   S    
C46   O21   S    
C19   C20   A    
C55   C57   A    
C2    C3    T    
Cu3   O41   S    
C34   C89   S    
C71   C72   S    
C32   O39   A    
Cu5   O6    S    
Cu1   O13   S    
C37   C50   S    
C86   H27   S    
C57   C58   A    
C90   O32   D    
C8    C97   S    
C63   C64   T    
C92   C93   S    
C76   H11   S    
C68   O19   D    
C35   C62   S    
C22   C24   A    
C97   H50   S    
C23   C78   A    
Cu3   Cu4   S    
C35   O43   A    
Cu4   O42   S    
C84   O29   D    
C18   C66   S    
Cu2   O16   S    
C10   C11   A    
C79   C80   S    
C7    C13   S    
C20   C21   A    
C22   C26   S    
C21   C69   S    
C36   O3    A    
C14   C15   T    
Cu1   Cu2   S    
C70   H53   S    
C74   H5    S    
C26   C27   T    
C82   H21   S    
C44   C48   S    
C69   O20   D    
Cu5   O8    S    
C91   H36   S    
