data_mof_unit_40487.cif
_audit_creation_date              2012-12-11T16:31:34-0500
_audit_creation_method            fapswitch 2.2
_symmetry_space_group_name_H-M    P1
_symmetry_Int_Tables_number       1
_space_group_crystal_system       triclinic
_cell_length_a                    6.957398
_cell_length_b                    18.306864
_cell_length_c                    20.192035
_cell_angle_alpha                 68.278513
_cell_angle_beta                  90.290588
_cell_angle_gamma                 91.059178
_cell_volume                      2388.79416794

loop_
_atom_site_label
_atom_site_type_symbol
_atom_type_description
_atom_site_fract_x
_atom_site_fract_y
_atom_site_fract_z
_atom_type_partial_charge
O1    O     O_R   0.488990 0.443920 0.942160 -0.539411
O2    O     O_R   0.823840 0.406530 0.087600 -0.540860
O3    O     O_R   0.999650 0.556080 0.057840 -0.529362
C1    C     C_R   0.652700 0.379546 0.112268 0.699846
O4    O     O_R   0.818390 0.434590 0.944530 -0.549930
O5    O     O_R   0.994160 0.584350 0.913750 -0.534733
C2    C     C_R   0.649972 0.425356 0.920069 0.705380
O6    O     O_R   0.494480 0.415650 0.086250 -0.536535
O7    O     O_3   0.662600 0.549100 0.990070 -0.351571
V1    V     V_3+5 0.935320 0.490890 0.001840 1.421852
O8    O     O_R   0.324240 0.593470 0.912400 -0.544030
C3    C     C_R   0.156556 0.615624 0.884102 0.666916
O9    O     O_R   0.329690 0.565410 0.055470 -0.523070
C4    C     C_R   0.161983 0.579596 0.075835 0.728424
V2    V     V_3+5 0.435990 0.509110 0.998160 1.451718
O10   O     O_3   0.158840 0.450900 0.009930 -0.380706
C5    C     C_3   0.984522 0.679602 0.261701 -0.404517
C6    C     C_3   0.338336 0.705607 0.246377 -0.153562
C7    C     C_3   0.324367 0.749521 0.299810 -0.417405
H1    H     H_    0.968851 0.691757 0.365444 0.144137
H2    H     H_    0.017289 0.618102 0.296833 0.142735
H3    H     H_    0.365744 0.642411 0.277881 0.116954
H4    H     H_    0.335781 0.705862 0.355303 0.144118
H5    H     H_    0.445389 0.792283 0.292936 0.170429
C8    C     C_1   0.112105 0.874889 0.378361 -0.154873
C9    C     C_3   0.145121 0.712316 0.204668 0.204028
C10   C     C_3   0.965800 0.730493 0.308043 -0.335342
C11   C     C_3   0.130553 0.792784 0.291186 0.290357
C12   C     C_3   0.111253 0.848839 0.212124 -0.433349
C13   C     C_3   0.111005 0.802166 0.160806 -0.144260
C14   C     C_1   0.120523 0.837674 0.339512 -0.020245
C15   C     C_1   0.150242 0.664629 0.158296 0.089254
C16   C     C_1   0.155451 0.625922 0.120659 -0.065320
H6    H     H_    0.232450 0.825799 0.122830 0.145564
H7    H     H_    0.979144 0.883848 0.206007 0.160203
H8    H     H_    0.846036 0.676638 0.236058 0.193405
H9    H     H_    0.824560 0.760182 0.297737 0.161992
H10   H     H_    0.233711 0.891903 0.197974 0.149978
H11   H     H_    0.009380 0.534103 0.674520 0.143925
C17   C     C_R   0.230516 0.770216 0.878889 -0.112227
C18   C     C_R   0.256683 0.843966 0.882652 -0.011669
C19   C     C_R   0.221417 0.910397 0.822855 -0.193758
C20   C     C_R   0.163752 0.905562 0.757530 0.118389
C21   C     C_R   0.152949 0.829043 0.751336 0.007018
C22   C     C_R   0.178546 0.760662 0.814612 0.021733
C23   C     C_R   0.113016 0.817610 0.685930 -0.145362
C24   C     C_R   0.084412 0.740325 0.685770 0.047455
C25   C     C_R   0.110606 0.672119 0.748887 0.009527
C26   C     C_R   0.151526 0.683306 0.814291 -0.147520
C27   C     C_R   0.030152 0.730689 0.621741 -0.209949
C28   C     C_R   0.997229 0.657322 0.618039 0.139387
C29   C     C_R   0.031507 0.590642 0.678411 -0.092502
C30   C     C_R   0.098610 0.595835 0.742640 0.064869
H12   H     H_    0.253094 0.720159 0.927506 0.150833
H13   H     H_    0.237705 0.966374 0.828804 0.115008
H14   H     H_    0.008620 0.780579 0.572838 0.113169
H15   H     H_    0.628278 0.479167 0.303267 0.116578
C31   C     C_R   0.612450 0.204936 0.124419 0.135110
C32   C     C_R   0.632104 0.125500 0.133342 -0.230116
C33   C     C_R   0.651388 0.067197 0.200133 0.037244
C34   C     C_R   0.649597 0.087893 0.259658 -0.139837
C35   C     C_R   0.635972 0.167225 0.253710 0.003078
C36   C     C_R   0.629209 0.228993 0.184781 0.041541
C37   C     C_R   0.624322 0.184012 0.316539 -0.160514
C38   C     C_R   0.621634 0.262574 0.312375 0.069102
C39   C     C_R   0.631583 0.325390 0.244924 0.065934
C40   C     C_R   0.636687 0.309765 0.180802 -0.180912
C41   C     C_R   0.612772 0.279938 0.375031 -0.134863
C42   C     C_R   0.614805 0.357362 0.371475 -0.121850
C43   C     C_R   0.626184 0.419013 0.305833 -0.129646
C44   C     C_R   0.634643 0.403651 0.243298 -0.139752
H16   H     H_    0.622561 0.107890 0.087678 0.100681
H17   H     H_    0.658408 0.040549 0.311100 0.154940
H18   H     H_    0.605275 0.233922 0.427449 0.088020
H19   H     H_    0.608244 0.369544 0.419946 0.108308
H20   H     H_    0.642971 0.454157 0.193875 0.118157
O11   O     O_R   0.770890 0.084490 0.414040 -0.536425
O12   O     O_R   0.445980 0.065450 0.555510 -0.545776
O13   O     O_R   0.270670 0.915620 0.586180 -0.539538
C45   C     C_R   0.614947 0.078373 0.577134 0.716660
O14   O     O_R   0.441480 0.093500 0.412450 -0.535003
O15   O     O_R   0.266140 0.943870 0.442100 -0.530673
C46   C     C_R   0.611706 0.118136 0.386726 0.695025
O16   O     O_R   0.775410 0.056240 0.558120 -0.539823
O17   O     O_3   0.602660 0.950990 0.510100 -0.364818
V3    V     V_3+5 0.329740 0.009100 0.498130 1.424621
O18   O     O_R   0.936120 0.934420 0.444240 -0.533493
C47   C     C_R   0.104142 0.920310 0.423971 0.728586
O19   O     O_R   0.940610 0.906370 0.587310 -0.544420
C48   C     C_R   0.108117 0.884857 0.615999 0.664592
V4    V     V_3+5 0.829110 0.990690 0.501470 1.426479
O20   O     O_3   0.106080 0.049010 0.489880 -0.369400
C49   C     C_3   0.834552 0.233970 0.718429 -0.324788
C50   C     C_3   0.499978 0.275488 0.680474 -0.375539
C51   C     C_3   0.496154 0.325051 0.728515 -0.353570
H21   H     H_    0.888350 0.345268 0.731307 0.138168
H22   H     H_    0.887958 0.270072 0.664006 0.136942
H23   H     H_    0.350691 0.256648 0.673361 0.139858
H24   H     H_    0.554168 0.312926 0.626549 0.153251
H25   H     H_    0.539636 0.386905 0.696592 0.148026
H26   H     H_    0.346535 0.325339 0.747467 0.151284
C52   C     C_1   0.640710 0.379120 0.875082 -0.183553
C53   C     C_3   0.629088 0.202323 0.713436 0.264451
C54   C     C_3   0.836069 0.285335 0.764800 -0.334112
C55   C     C_3   0.631941 0.290434 0.793371 0.261807
C56   C     C_3   0.559889 0.205846 0.837841 -0.314748
C57   C     C_3   0.548801 0.154394 0.790626 0.043599
C58   C     C_1   0.635962 0.339777 0.837953 -0.097735
C59   C     C_1   0.626551 0.156858 0.665315 -0.113387
C60   C     C_1   0.623259 0.121236 0.624990 -0.182073
H27   H     H_    0.392517 0.145804 0.783194 0.078814
H28   H     H_    0.655366 0.181042 0.884559 0.153713
H29   H     H_    0.936666 0.185289 0.740042 0.148724
H30   H     H_    0.938315 0.260849 0.809878 0.137658
H31   H     H_    0.414612 0.208068 0.859867 0.109884
C61   C     C_2   0.317095 0.852757 0.949857 0.439143
H32   H     H_    0.327069 0.910763 0.952719 0.005961
O21   O     O_2   0.357527 0.795649 0.002641 -0.506143
C62   C     C_3   0.104741 0.981534 0.697355 -0.325588
C63   C     C_3   0.094234 0.056182 0.713954 -0.829674
H33   H     H_    0.994644 0.047122 0.758884 0.244564
H34   H     H_    0.239349 0.073862 0.725972 0.221511
H35   H     H_    0.039931 0.104871 0.666470 0.233003
H36   H     H_    0.210270 0.995959 0.653752 0.206406
H37   H     H_    0.959085 0.972145 0.679050 0.188333
C64   C     C_3   0.930993 0.654481 0.547071 -0.349190
C65   C     C_3   0.895400 0.572471 0.545390 -0.801327
H38   H     H_    0.030371 0.538552 0.556827 0.224612
H39   H     H_    0.782236 0.540354 0.584487 0.225488
H40   H     H_    0.845415 0.578096 0.491422 0.217905
H41   H     H_    0.795183 0.687598 0.531500 0.185091
H42   H     H_    0.040638 0.685241 0.505793 0.174788
C66   C     C_3   0.168894 0.520697 0.801145 -0.328099
C67   C     C_3   0.191771 0.448401 0.781683 -0.835957
H43   H     H_    0.049188 0.426742 0.771891 0.220883
H44   H     H_    0.286623 0.462284 0.734399 0.232037
H45   H     H_    0.255969 0.400493 0.827307 0.233900
H46   H     H_    0.313603 0.533069 0.818244 0.190803
H47   H     H_    0.066723 0.502515 0.846193 0.204980
C68   C     C_3   0.547134 0.256744 0.051246 -0.372161
C69   C     C_3   0.331381 0.271303 0.050617 -0.659662
H48   H     H_    0.250332 0.214820 0.063784 0.199261
H49   H     H_    0.292767 0.297387 0.090215 0.232197
H50   H     H_    0.286786 0.311237 0.996727 0.216675
H51   H     H_    0.634805 0.310136 0.032199 0.163554
H52   H     H_    0.573681 0.229494 0.011247 0.162397
C70   C     C_2   0.662243 0.983935 0.207076 0.299749
H53   H     H_    0.660808 0.969103 0.159752 0.025438
O22   O     O_2   0.672105 0.930918 0.265478 -0.554407
C71   C     C_2   0.505584 0.736666 0.195880 0.354319
H54   H     H_    0.573804 0.792397 0.189840 0.048745
O23   O     O_2   0.559475 0.701191 0.158885 -0.504359
C72   C     C_3   0.623890 0.068934 0.827864 -0.338903
C73   C     C_3   0.803002 0.058172 0.875034 -0.768206
H55   H     H_    0.913532 0.104550 0.851272 0.219751
H56   H     H_    0.763311 0.057610 0.928414 0.213659
H57   H     H_    0.867238 0.000300 0.883502 0.224746
H58   H     H_    0.507247 0.032654 0.862722 0.161601
H59   H     H_    0.649723 0.042019 0.787781 0.187059
C74   C     C_2   0.933054 0.818229 0.114505 0.431544
H60   H     H_    0.823973 0.857469 0.119290 0.027509
O24   O     O_2   0.914188 0.790651 0.068240 -0.494937

loop_
_geom_bond_atom_site_label_1
_geom_bond_atom_site_label_2
_ccdc_geom_bond_type
C8    C14   T    
O18   C47   A    
C9    C15   S    
C64   C65   S    
O18   V4    S    
C18   C19   A    
O2    C1    A    
C70   H53   S    
C6    C9    S    
C1    O6    A    
C49   C53   S    
C67   H45   S    
C3    C26   S    
O17   V4    S    
C56   H28   S    
O17   V3    S    
C29   C30   A    
C13   C74   S    
C35   C36   A    
C5    C9    S    
C50   H24   S    
C11   C12   S    
C70   O22   D    
C42   C43   A    
C69   H49   S    
O5    C3    A    
C44   H20   S    
O12   C45   A    
C56   C57   S    
C50   H23   S    
C41   H18   S    
V2    O10   S    
C61   H32   S    
C6    C7    S    
C72   H58   S    
O13   C48   A    
C35   C37   A    
C51   C55   S    
O8    V2    S    
O11   V4    S    
C24   C25   A    
C63   H34   S    
C41   C42   A    
C2    C52   S    
C12   H10   S    
C52   C58   T    
C43   C44   A    
O1    V2    S    
O16   V4    S    
C64   H42   S    
H15   C43   S    
O19   V4    S    
O7    V1    S    
C73   H56   S    
O14   V3    S    
C63   H35   S    
C45   O16   A    
C32   H16   S    
O12   V3    S    
C39   C40   A    
C66   H46   S    
O1    C2    A    
O9    C4    A    
C25   C30   A    
C4    C16   S    
C49   C54   S    
C54   C55   S    
O14   C46   A    
C21   C23   A    
C42   H19   S    
C24   C27   A    
C5    H8    S    
C17   C22   A    
C55   C58   S    
C36   C40   A    
C13   H6    S    
C28   C29   A    
C5    C10   S    
C30   C66   S    
C68   C69   S    
C73   H57   S    
C69   H50   S    
C68   H52   S    
V4    O20   S    
O4    C2    A    
C51   H25   S    
C67   H44   S    
C34   H17   S    
C31   C32   A    
C62   H36   S    
C8    C47   S    
C5    H2    S    
C33   C34   A    
C74   O24   D    
C72   H59   S    
C7    H4    S    
C20   C21   A    
C65   H39   S    
C37   C46   S    
C12   C13   S    
C19   H13   S    
C6    C71   S    
C39   C44   A    
C22   C26   A    
O8    C3    A    
C38   C41   A    
C27   C28   A    
C49   H29   S    
C7    C11   S    
C73   H55   S    
C57   C72   S    
O3    C4    A    
C54   H30   S    
C62   H37   S    
C25   C26   A    
C33   C70   S    
C50   C53   S    
C66   H47   S    
O6    V2    S    
C17   H12   S    
O9    V2    S    
C66   C67   S    
C71   O23   D    
C19   C20   A    
C18   C61   S    
C65   H38   S    
O2    V1    S    
C49   H22   S    
C63   H33   S    
C31   C68   S    
C31   C36   A    
O19   C48   A    
C23   C24   A    
C17   C18   A    
C6    H3    S    
C28   C64   S    
C57   H27   S    
C11   C14   S    
C21   C22   A    
C34   C35   A    
C68   H51   S    
O5    V1    S    
C1    C40   S    
C53   C57   S    
C62   C63   S    
C9    C13   S    
C67   H43   S    
C23   C48   S    
H1    C10   S    
C55   C56   S    
C12   H7    S    
C56   H31   S    
C53   C59   S    
C15   C16   T    
H21   C54   S    
C7    H5    S    
O7    V2    S    
C65   H40   S    
O4    V1    S    
O3    V1    S    
V1    O10   S    
C69   H48   S    
C74   H60   S    
O15   V3    S    
C64   H41   S    
C10   H9    S    
O15   C47   A    
C37   C38   A    
C61   O21   D    
H11   C29   S    
C50   C51   S    
C27   H14   S    
C32   C33   A    
C38   C39   A    
C45   C60   S    
C10   C11   S    
O11   C46   A    
C71   H54   S    
V3    O20   S    
C72   C73   S    
C59   C60   T    
O13   V3    S    
C51   H26   S    
C20   C62   S    
