data_mof_unit_29832.cif
_audit_creation_date              2012-12-10T17:43:56-0500
_audit_creation_method            fapswitch 2.2
_symmetry_space_group_name_H-M    P1
_symmetry_Int_Tables_number       1
_space_group_crystal_system       triclinic
_cell_length_a                    15.837216
_cell_length_b                    14.979731
_cell_length_c                    13.825543
_cell_angle_alpha                 89.859926
_cell_angle_beta                  90.225758
_cell_angle_gamma                 87.814197
_cell_volume                      3277.51061827

loop_
_atom_site_label
_atom_site_type_symbol
_atom_type_description
_atom_site_fract_x
_atom_site_fract_y
_atom_site_fract_z
_atom_type_partial_charge
C1    C     C_R   0.499706 0.328981 0.500185 0.788560
C2    C     C_R   0.500032 0.670921 0.499632 0.789125
C3    C     C_R   0.500451 0.767201 0.498107 -0.081069
C4    C     C_R   0.499290 0.232495 0.500692 -0.084191
C5    C     C_R   0.568163 0.810276 0.539403 -0.222591
C6    C     C_R   0.431045 0.189510 0.460160 -0.219292
C7    C     C_R   0.569223 0.903174 0.538036 0.080331
C8    C     C_R   0.430807 0.096454 0.459202 0.077522
C9    C     C_R   0.500178 0.952971 0.497669 -0.011461
C10   C     C_R   0.500367 0.046559 0.498337 -0.007852
C11   C     C_R   0.430759 0.909057 0.457388 0.029934
C12   C     C_R   0.570387 0.090345 0.537352 0.046339
C13   C     C_R   0.638372 0.946718 0.576188 -0.311724
C14   C     C_R   0.362140 0.052759 0.419821 -0.309714
C15   C     C_R   0.640830 0.040141 0.573289 0.422580
C16   C     C_R   0.360794 0.959232 0.420308 0.429485
C17   C     C_R   0.565398 0.458518 0.794944 0.491092
C18   C     C_R   0.436802 0.547856 0.207192 0.503433
C19   C     C_R   0.435811 0.545230 0.792673 0.521616
C20   C     C_R   0.562031 0.452510 0.206671 0.525527
C21   C     C_R   0.430672 0.538221 0.896030 -0.122247
C22   C     C_R   0.568201 0.462507 0.104034 -0.119258
C23   C     C_R   0.339926 0.500066 0.499915 0.799601
C24   C     C_R   0.660113 0.499113 0.500159 0.816476
C25   C     C_R   0.499633 0.501238 0.948622 0.036799
C26   C     C_R   0.499138 0.500625 0.052316 0.037818
C27   C     C_R   0.569497 0.465479 0.897755 -0.101665
C28   C     C_R   0.430783 0.540314 0.103729 -0.081922
C29   C     C_R   0.358896 0.567006 0.948222 -0.193783
C30   C     C_R   0.641515 0.437115 0.051961 -0.195551
C31   C     C_R   0.360019 0.571270 0.049152 -0.167590
C32   C     C_R   0.642058 0.438187 0.950766 -0.167937
C33   C     C_3   0.975362 0.439236 0.567211 -0.298205
C34   C     C_3   0.024820 0.558417 0.432472 -0.306710
C35   C     C_3   0.031901 0.418842 0.478808 0.538775
C36   C     C_3   0.968292 0.578841 0.520860 0.543151
C37   C     C_1   0.250192 0.500664 0.499878 -0.188320
C38   C     C_1   0.749879 0.497655 0.500327 -0.143574
C39   C     C_3   0.027019 0.523148 0.589004 -0.297094
C40   C     C_3   0.973138 0.474535 0.410679 -0.302736
C41   C     C_3   0.082922 0.501161 0.500192 0.071880
C42   C     C_3   0.917221 0.496527 0.499516 0.068671
C43   C     C_1   0.174593 0.501200 0.499985 0.000950
C44   C     C_1   0.825510 0.496691 0.500013 0.008293
C45   C     C_R   0.432480 0.815670 0.456485 -0.193032
C46   C     C_R   0.568796 0.183665 0.538223 -0.243276
Cu1   Cu    Cu3+1 0.500010 0.499990 0.597420 1.017458
Cu2   Cu    Cu3+1 0.499990 0.500010 0.402580 1.015774
H1    H     H_    0.300423 0.585475 0.911793 0.146669
H2    H     H_    0.699614 0.417863 0.088837 0.149789
H3    H     H_    0.302280 0.594835 0.081652 0.149190
H4    H     H_    0.699726 0.417022 0.914248 0.171322
H5    H     H_    0.953794 0.389878 0.620880 0.151568
H6    H     H_    0.046431 0.607742 0.378783 0.146903
H7    H     H_    0.949786 0.453799 0.338660 0.150177
H8    H     H_    0.050393 0.543896 0.661010 0.150400
H9    H     H_    0.380323 0.780089 0.426060 0.176829
H10   H     H_    0.622242 0.218881 0.565507 0.172351
H11   H     H_    0.620385 0.771195 0.571083 0.142914
H12   H     H_    0.378139 0.228717 0.430185 0.139374
H13   H     H_    0.690667 0.908142 0.608145 0.154981
H14   H     H_    0.309375 0.091167 0.388600 0.156648
N1    N     N_R   0.499960 0.499930 0.743810 -0.251201
N2    N     N_R   0.500040 0.500070 0.256190 -0.250160
O1    O     O_R   0.500020 0.370250 0.582280 -0.585969
O2    O     O_R   0.499980 0.629750 0.417720 -0.532266
O3    O     O_R   0.500010 0.370270 0.417740 -0.555133
O4    O     O_R   0.499990 0.629730 0.582260 -0.561295
O5    O     O_R   0.379080 0.499980 0.582260 -0.516480
O6    O     O_R   0.620920 0.500020 0.417740 -0.531370
O7    O     O_R   0.379070 0.500000 0.417710 -0.597325
O8    O     O_R   0.620930 0.500000 0.582290 -0.527165
O9    O     O_3   0.072702 0.335905 0.457410 -0.574965
C47   C     C_3   0.011733 0.272251 0.437524 0.068239
H15   H     H_    0.974060 0.291614 0.372134 0.139355
H16   H     H_    0.968663 0.264417 0.500114 0.139305
C48   C     C_3   0.056376 0.182347 0.418226 -0.799384
H17   H     H_    0.092572 0.159685 0.483341 0.243054
H18   H     H_    0.009183 0.131930 0.400302 0.195018
H19   H     H_    0.100500 0.188031 0.356458 0.252133
O10   O     O_3   0.927783 0.661997 0.541979 -0.573009
C49   C     C_3   0.989004 0.725184 0.562737 0.071679
H20   H     H_    0.034092 0.731338 0.501743 0.136684
H21   H     H_    0.024486 0.706451 0.629864 0.140414
C50   C     C_3   0.944985 0.816021 0.578507 -0.801992
H22   H     H_    0.899311 0.812274 0.639011 0.253027
H23   H     H_    0.992390 0.866177 0.596592 0.194329
H24   H     H_    0.910616 0.837717 0.511788 0.243480
O11   O     O_3   0.709378 0.083095 0.611231 -0.597584
C51   C     C_3   0.781361 0.064087 0.553693 0.066207
H25   H     H_    0.767569 0.075781 0.475369 0.138136
H26   H     H_    0.804840 0.993842 0.564665 0.151154
C52   C     C_3   0.851434 0.125096 0.583414 -0.827234
H27   H     H_    0.864882 0.117687 0.661986 0.259031
H28   H     H_    0.909779 0.107158 0.542525 0.204044
H29   H     H_    0.832333 0.195698 0.567469 0.233803
O12   O     O_3   0.293191 0.916493 0.379991 -0.587920
C53   C     C_3   0.222645 0.927270 0.441658 0.057431
H30   H     H_    0.197690 0.997739 0.440489 0.151140
H31   H     H_    0.238969 0.907451 0.517514 0.135140
C54   C     C_3   0.152983 0.868033 0.406571 -0.825762
H32   H     H_    0.173800 0.796604 0.412982 0.232990
H33   H     H_    0.095574 0.880022 0.451166 0.203450
H34   H     H_    0.137164 0.883502 0.329863 0.262150
O13   O     O_3   0.631546 0.417383 0.745155 -0.546957
C55   C     C_3   0.631184 0.323741 0.758766 0.044491
H35   H     H_    0.581697 0.294564 0.713184 0.177006
H36   H     H_    0.619162 0.303355 0.834762 0.123677
C56   C     C_3   0.717035 0.283687 0.730008 -0.784528
H37   H     H_    0.767184 0.311601 0.776035 0.234368
H38   H     H_    0.718050 0.210180 0.740062 0.253592
H39   H     H_    0.730168 0.299551 0.653158 0.245526
O14   O     O_3   0.398435 0.620569 0.254827 -0.542909
C57   C     C_3   0.309760 0.615750 0.264711 0.089747
H40   H     H_    0.294149 0.611540 0.342299 0.171773
H41   H     H_    0.282081 0.556542 0.229978 0.104939
C58   C     C_3   0.266793 0.703471 0.230928 -0.837634
H42   H     H_    0.288443 0.723238 0.158093 0.254643
H43   H     H_    0.197174 0.697030 0.229781 0.202403
H44   H     H_    0.282448 0.757804 0.281569 0.285512
O15   O     O_3   0.376013 0.594853 0.738795 -0.547830
C59   C     C_3   0.364193 0.684020 0.772930 0.058965
H45   H     H_    0.411460 0.703939 0.828153 0.134002
H46   H     H_    0.300049 0.692042 0.804456 0.143030
C60   C     C_3   0.367142 0.750194 0.689653 -0.772043
H47   H     H_    0.336258 0.723409 0.624112 0.247493
H48   H     H_    0.334060 0.814058 0.710098 0.189341
H49   H     H_    0.433724 0.764837 0.674494 0.248634
O16   O     O_3   0.620534 0.400557 0.259763 -0.546640
C61   C     C_3   0.631739 0.312597 0.222116 0.042413
H50   H     H_    0.696000 0.304929 0.190806 0.145610
H51   H     H_    0.584603 0.295064 0.165688 0.127442
C62   C     C_3   0.627130 0.243964 0.302797 -0.762216
H52   H     H_    0.560093 0.233149 0.319870 0.251229
H53   H     H_    0.656131 0.179132 0.278728 0.191431
H54   H     H_    0.661220 0.266526 0.368177 0.248793

loop_
_geom_bond_atom_site_label_1
_geom_bond_atom_site_label_2
_ccdc_geom_bond_type
C20   N2    A    
C52   H27   S    
O9    C47   S    
C23   O5    A    
C36   C42   S    
C20   O16   S    
C57   H40   S    
C24   O6    A    
C39   C41   S    
C29   H1    S    
C50   H22   S    
C45   H9    S    
C33   C39   S    
C36   C39   S    
C47   H16   S    
C34   C40   S    
C33   C42   S    
C19   C21   A    
O14   C57   S    
C2    O4    A    
C56   H38   S    
Cu1   N1    S    
C4    C46   A    
C16   O12   S    
Cu2   N2    S    
C55   H35   S    
C14   H14   S    
Cu1   O5    S    
C1    O3    A    
C1    O1    A    
C32   H4    S    
C39   H8    S    
C19   N1    A    
C47   C48   S    
C62   H54   S    
C24   C38   S    
C9    C10   A    
C48   H17   S    
C40   C42   S    
C30   H2    S    
C52   H28   S    
C46   H10   S    
C41   C43   S    
C34   C41   S    
C42   C44   S    
C18   O14   S    
O12   C53   S    
C48   H18   S    
C33   H5    S    
C47   H15   S    
C5    H11   S    
C50   H23   S    
C35   C40   S    
C17   C27   A    
C54   H32   S    
C6    H12   S    
C18   C28   A    
C4    C6    A    
C58   H44   S    
Cu2   O6    S    
C5    C7    A    
C6    C8    A    
C3    C5    A    
C25   C26   A    
C23   C37   S    
C21   C29   A    
C3    C45   A    
O10   C49   S    
C37   C43   T    
C61   H51   S    
C38   C44   T    
C17   O13   S    
C15   O11   S    
C11   C16   A    
C51   H26   S    
Cu1   Cu2   S    
C12   C15   A    
C36   O10   S    
C40   H7    S    
C9    C11   A    
C19   O15   S    
O15   C59   S    
C10   C12   A    
C12   C46   A    
C20   C22   A    
C34   H6    S    
C52   H29   S    
C49   H21   S    
C13   C15   A    
C62   H52   S    
C14   C16   A    
C56   H39   S    
C61   C62   S    
Cu2   O7    S    
C59   H46   S    
C49   C50   S    
Cu1   O4    S    
C24   O8    A    
C51   C52   S    
C60   H48   S    
O16   C61   S    
C54   H33   S    
C50   H24   S    
C7    C9    A    
C21   C25   A    
C35   O9    S    
C8    C14   A    
C22   C30   A    
C27   C32   A    
C26   C28   A    
C28   C31   A    
C31   H3    S    
C2    O2    A    
C57   H41   S    
C25   C27   A    
C53   C54   S    
O13   C55   S    
C53   H31   S    
C1    C4    S    
Cu2   O2    S    
C59   C60   S    
C58   H43   S    
C61   H50   S    
C59   H45   S    
C29   C31   A    
C58   H42   S    
C17   N1    A    
C30   C32   A    
C48   H19   S    
C18   N2    A    
C51   H25   S    
C60   H47   S    
C55   H36   S    
C60   H49   S    
C33   C35   S    
C2    C3    S    
C34   C36   S    
Cu2   O3    S    
C35   C41   S    
Cu1   O8    S    
C57   C58   S    
C11   C45   A    
C7    C13   A    
C13   H13   S    
C23   O7    A    
C8    C10   A    
C53   H30   S    
C22   C26   A    
C62   H53   S    
C54   H34   S    
C49   H20   S    
O11   C51   S    
C56   H37   S    
Cu1   O1    S    
C55   C56   S    
