data_mof_unit_56259.cif
_audit_creation_date              2013-03-05T15:48:36-0500
_audit_creation_method            fapswitch 2.2
_symmetry_space_group_name_H-M    P1
_symmetry_Int_Tables_number       1
_space_group_crystal_system       triclinic
_cell_length_a                    8.169839
_cell_length_b                    18.76583
_cell_length_c                    19.094486
_cell_angle_alpha                 98.145732
_cell_angle_beta                  95.194687
_cell_angle_gamma                 90.616047
_cell_volume                      2885.18499938

loop_
_atom_site_label
_atom_site_type_symbol
_atom_site_description
_atom_site_fract_x
_atom_site_fract_y
_atom_site_fract_z
_atom_type_partial_charge
P1    P     P_3+3 0.947550 0.663200 0.567530 0.487008
O1    O     O_2   0.118870 0.674530 0.547560 -0.363751
O2    O     O_3   0.870460 0.585330 0.542110 -0.346355
O3    O     O_3   0.354280 0.631750 0.418430 -0.404831
O4    O     O_2   0.226973 0.754340 0.466380 -0.360906
O5    O     O_3   0.996077 0.661185 0.659082 -0.561313
O6    O     O_3   0.298705 0.740657 0.334816 -0.483911
H1    H     H_    0.316261 0.635802 0.285619 0.122604
C1    C     C_3   0.335416 0.710912 0.211866 -0.789599
H2    H     H_    0.200760 0.712340 0.197748 0.275410
H3    H     H_    0.391283 0.764704 0.209826 0.285453
P2    P     P_3+3 0.354660 0.445020 0.336980 0.534380
P3    P     P_3+3 0.905746 0.597588 0.289341 0.474840
O7    O     O_2   0.180880 0.466650 0.327890 -0.347281
O8    O     O_3   0.939000 0.596010 0.380670 -0.398882
O9    O     O_2   0.045574 0.555469 0.254457 -0.341267
O10   O     O_3   0.345894 0.351160 0.314525 -0.504857
O11   O     O_3   0.934890 0.685719 0.272019 -0.519474
C2    C     C_3   0.887663 0.733775 0.329625 0.429063
H4    H     H_    0.976748 0.732848 0.376819 0.101743
H5    H     H_    0.763397 0.719999 0.343471 -0.007637
C3    C     C_3   0.886266 0.809832 0.310497 0.046786
H6    H     H_    0.863978 0.848544 0.358156 0.086318
H7    H     H_    0.007803 0.823202 0.293045 0.198521
C4    C     C_3   0.793720 0.379898 0.310734 0.391505
H8    H     H_    0.673777 0.396632 0.328677 0.082953
H9    H     H_    0.886004 0.424384 0.326437 0.129365
C5    C     C_3   0.777296 0.361705 0.230167 -0.814855
H10   H     H_    0.678977 0.319939 0.212867 0.260075
H11   H     H_    0.745837 0.410185 0.205336 0.202985
H12   H     H_    0.895392 0.341217 0.211740 0.306624
Ba1   Ba    Ba6+2 0.152460 0.535140 0.468980 1.606307
C6    C     C_3   0.932270 0.718996 0.703336 0.567418
H13   H     H_    0.854264 0.754424 0.673079 -0.053676
C7    C     C_3   0.077478 0.763580 0.745697 -0.159883
H14   H     H_    0.182847 0.762209 0.713005 0.126578
H15   H     H_    0.120592 0.739435 0.793832 0.155815
C8    C     C_3   0.297522 0.318727 0.371127 0.259842
H16   H     H_    0.172352 0.335460 0.382279 0.083195
H17   H     H_    0.383546 0.333671 0.419512 0.099099
C9    C     C_3   0.299325 0.236940 0.350824 -0.133611
H18   H     H_    0.420296 0.220748 0.332166 0.132676
H19   H     H_    0.283394 0.210592 0.398292 0.074067
P4    P     P_3+3 0.862750 0.336790 0.432410 0.470777
O12   O     O_2   0.691430 0.325420 0.452420 -0.386728
O13   O     O_3   0.939830 0.414660 0.457830 -0.410489
O14   O     O_3   0.456020 0.368240 0.581510 -0.390311
O15   O     O_3   0.842016 0.318294 0.339547 -0.541727
P5    P     P_3+3 0.895060 0.402540 0.711271 0.510864
O16   O     O_3   0.374170 0.535780 0.585810 -0.395696
O17   O     O_3   0.871300 0.403980 0.619270 -0.348668
O18   O     O_2   0.754247 0.445890 0.744134 -0.357532
O19   O     O_3   0.852054 0.314326 0.725119 -0.507434
Ba2   Ba    Ba6+2 0.657710 0.464850 0.530960 1.611716
P6    P     P_3+3 0.364250 0.724446 0.420807 0.480638
C10   C     C_3   0.370300 0.690341 0.285787 0.448851
H20   H     H_    0.505474 0.689315 0.297906 0.031024
H21   H     H_    0.388827 0.670645 0.172662 0.195371
O20   O     O_3   0.436130 0.464210 0.414140 -0.403521
C11   C     C_3   0.505804 0.683649 0.635264 0.469704
H22   H     H_    0.632856 0.667563 0.626321 0.050477
H23   H     H_    0.424345 0.665028 0.586241 0.122080
C12   C     C_3   0.499297 0.765675 0.649292 -0.963829
H24   H     H_    0.542281 0.786520 0.705219 0.315585
H25   H     H_    0.577650 0.790273 0.614436 0.213796
H26   H     H_    0.372257 0.783317 0.637828 0.238660
P7    P     P_3+3 0.448145 0.560346 0.674200 0.520462
O21   O     O_2   0.629420 0.533310 0.672080 -0.307158
O22   O     O_3   0.456438 0.654517 0.694094 -0.525704
C13   C     C_3   0.981176 0.270262 0.703257 0.267917
H27   H     H_    0.025766 0.283354 0.653118 0.000356
H28   H     H_    0.083475 0.276288 0.746239 0.071386
C14   C     C_3   0.921954 0.191701 0.689346 0.085135
H29   H     H_    0.821501 0.183867 0.645184 0.133114
H30   H     H_    0.025380 0.157505 0.672510 0.109059
P8    P     P_3+3 0.444929 0.275171 0.579381 0.437082
C15   C     C_3   0.436871 0.310030 0.713586 0.518359
H31   H     H_    0.305307 0.318871 0.698255 -0.048349
O23   O     O_2   0.581315 0.242611 0.534486 -0.394844
O24   O     O_3   0.501638 0.256570 0.665322 -0.526477
H32   H     H_    0.505975 0.361615 0.716116 0.147462
H33   H     H_    0.396820 0.328284 0.824799 0.215006
C16   C     C_3   0.452501 0.287292 0.787081 -0.969334
H34   H     H_    0.584029 0.282502 0.805780 0.288548
H35   H     H_    0.387652 0.234728 0.785736 0.265972
C17   C     C_R   0.997396 0.953047 0.539806 0.077102
C18   C     C_R   0.082705 0.903018 0.577045 -0.048340
C19   C     C_R   0.220686 0.047484 0.570183 -0.150006
C20   C     C_R   0.062001 0.024172 0.538648 0.068045
C21   C     C_R   0.279892 0.117399 0.569908 -0.172867
C22   C     C_R   0.183640 0.167837 0.538720 -0.029315
C23   C     C_R   0.027391 0.145418 0.503629 -0.006965
C24   C     C_R   0.967288 0.073377 0.502880 0.034038
C25   C     C_R   0.238039 0.240194 0.541532 0.154197
C26   C     C_R   0.132840 0.289708 0.513748 -0.536048
C27   C     C_R   0.983229 0.268023 0.475257 0.268416
C28   C     C_R   0.932057 0.194713 0.468131 -0.006587
C29   C     C_R   0.841326 0.931122 0.503404 0.038918
C30   C     C_R   0.778701 0.858830 0.501430 -0.011715
C31   C     C_R   0.875564 0.808565 0.535373 -0.011562
C32   C     C_R   0.023094 0.833080 0.574693 -0.061651
H36   H     H_    0.172169 0.345523 0.518486 0.181835
H37   H     H_    0.401836 0.131458 0.595302 0.182683
H38   H     H_    0.096162 0.798253 0.604120 0.121036
C33   C     C_R   0.789630 0.168842 0.425599 0.009534
C34   C     C_R   0.731764 0.098976 0.424228 -0.184631
C35   C     C_R   0.813140 0.051072 0.465772 0.079836
C36   C     C_R   0.747872 0.980980 0.468622 -0.007315
C37   C     C_R   0.588634 0.960056 0.438913 -0.280142
C38   C     C_R   0.620919 0.837019 0.465174 -0.203121
C39   C     C_R   0.526205 0.890411 0.435261 0.386386
C40   C     C_R   0.568600 0.763277 0.460548 0.191923
C41   C     C_R   0.673807 0.714137 0.489682 -0.487288
C42   C     C_R   0.823314 0.735233 0.528852 0.129160
H39   H     H_    0.720399 0.201893 0.392240 0.153376
H40   H     H_    0.635291 0.658171 0.484440 0.170385
H41   H     H_    0.304381 0.012678 0.595056 0.139531
H42   H     H_    0.197478 0.915979 0.608902 0.133732
H43   H     H_    0.623733 0.083833 0.388309 0.136622
H44   H     H_    0.505112 0.997692 0.418248 0.170275
C43   C     C_R   0.604922 0.530682 0.299552 -0.588044
C44   C     C_R   0.460282 0.491697 0.273878 0.181369
C45   C     C_R   0.407002 0.483855 0.200292 0.228463
C46   C     C_R   0.504424 0.514114 0.153242 -0.156460
C47   C     C_R   0.653066 0.550708 0.180727 -0.274742
C48   C     C_R   0.704068 0.557678 0.253300 0.266683
C49   C     C_R   0.459600 0.565449 0.038478 -0.149473
C50   C     C_R   0.407259 0.558562 0.965961 -0.125202
C51   C     C_R   0.350191 0.491729 0.928314 0.140799
C52   C     C_R   0.350093 0.431602 0.964520 -0.170020
C53   C     C_R   0.405865 0.438200 0.036719 -0.043601
C54   C     C_R   0.456652 0.505642 0.075098 0.194229
C55   C     C_R   0.147006 0.447365 0.822959 -0.264864
C56   C     C_R   0.094702 0.443421 0.750354 0.229685
C57   C     C_R   0.335586 0.513216 0.733399 0.259963
C58   C     C_R   0.387907 0.517922 0.805665 -0.247166
C59   C     C_R   0.294684 0.484879 0.851251 0.031404
C60   C     C_R   0.190604 0.475572 0.706038 -0.382264
H45   H     H_    0.500974 0.547310 0.826208 0.173416
H46   H     H_    0.408554 0.605922 0.939515 0.148675
H47   H     H_    0.500148 0.617879 0.066148 0.139969
H48   H     H_    0.308810 0.379275 0.936849 0.135107
H49   H     H_    0.407840 0.390575 0.062785 0.153410
H50   H     H_    0.071250 0.423145 0.857336 0.158043
H51   H     H_    0.731774 0.571773 0.145402 0.186531
H52   H     H_    0.149463 0.473397 0.650269 0.168652
H53   H     H_    0.645919 0.536188 0.355597 0.188262
N1    N     N_R   0.833879 0.689345 0.753366 0.233343
O25   O     O_R   0.738147 0.730632 0.791189 -0.353459
O26   O     O_R   0.860200 0.624660 0.768352 -0.354895
N2    N     N_R   0.033642 0.838358 0.766634 0.257294
O27   O     O_R   0.112989 0.890110 0.744625 -0.380307
O28   O     O_R   0.928737 0.854250 0.813457 -0.283584
N3    N     N_R   0.168671 0.212313 0.295062 0.286943
O29   O     O_R   0.053375 0.168427 0.306914 -0.370688
O30   O     O_R   0.172804 0.230049 0.231799 -0.277498
O31   O     O_3   0.761963 0.814731 0.255985 -0.690474
H54   H     H_    0.763649 0.865650 0.247390 0.355260
O32   O     O_3   0.870167 0.170111 0.751305 -0.661054
H55   H     H_    0.752662 0.182625 0.752516 0.368390
N4    N     N_R   0.366239 0.877269 0.398711 0.254710
O33   O     O_R   0.239607 0.890137 0.434699 -0.418899
O34   O     O_R   0.348765 0.881615 0.331019 -0.372513
N5    N     N_R   0.254159 0.446853 0.173657 0.243955
O35   O     O_R   0.232650 0.379571 0.180651 -0.343463
O36   O     O_R   0.145889 0.476954 0.133715 -0.375498

loop_
_geom_bond_atom_site_label_1
_geom_bond_atom_site_label_2
_geom_bond_distance
_ccdc_geom_bond_type
C57   C60   1.392954 A    
P4    O15   1.750215 S    
P5    C56   1.842883 S    
C12   H25   1.106197 S    
C9    H18   1.111554 S    
C55   C59   1.413860 A    
O31   H54   0.992339 S    
P6    C40   1.865966 S    
C14   H30   1.109742 S    
C14   H29   1.114977 S    
C26   C27   1.393428 A    
C39   N4    1.426532 S    
P8    O23   1.545622 D    
O6    P6    1.749603 S    
C50   C51   1.406536 A    
H1    C10   1.109736 S    
N4    O33   1.299194 A    
C57   C58   1.397292 A    
C19   H41   1.076318 S    
C15   H31   1.108677 S    
C10   H20   1.108579 S    
C4    C5    1.521188 S    
O16   Ba2   2.888816 S    
P3    O11   1.749887 S    
C11   C12   1.526916 S    
O1    Ba1   2.854236 S    
C5    H10   1.110708 S    
C7    H15   1.112188 S    
N1    O26   1.301724 A    
O14   P8    1.742406 S    
C51   C52   1.404346 A    
C37   C39   1.387982 A    
O32   H55   0.992268 S    
C8    H16   1.103219 S    
C34   H43   1.076981 S    
O2    Ba2   2.808951 S    
Ba2   O21   2.846573 S    
C34   C35   1.413790 A    
C15   C16   1.518606 S    
C29   C36   1.413883 A    
C36   C37   1.400247 A    
C46   C54   1.493317 S    
C11   H23   1.109382 S    
P1    O1    1.504283 D    
C49   H47   1.082102 S    
C49   C54   1.404981 A    
C23   C24   1.431059 A    
P8    C25   1.852192 S    
C18   C32   1.388260 A    
P2    O20   1.552521 S    
C2    H4    1.108153 S    
P5    O17   1.753932 S    
P2    O10   1.751877 S    
C35   C36   1.424041 A    
C43   H53   1.082174 S    
C13   H27   1.112451 S    
C1    H2    1.110246 S    
N3    O30   1.300835 A    
C26   H36   1.081270 S    
C41   H40   1.081409 S    
C28   C33   1.397946 A    
C12   H26   1.105236 S    
P2    Ba1   3.398216 S    
C9    H19   1.109018 S    
O2    Ba1   2.898519 S    
C7    N2    1.461166 S    
O6    C10   1.403801 S    
C58   H45   1.083252 S    
C17   C29   1.423168 A    
O19   C13   1.404111 S    
Ba1   Ba2   4.546697 S    
C40   C41   1.405162 A    
N4    O34   1.301696 A    
P4    O13   1.578419 S    
C23   C28   1.421049 A    
Ba2   O20   2.741100 S    
P7    O21   1.572757 D    
C45   C46   1.423867 A    
C2    C3    1.522482 S    
C31   C42   1.421489 A    
N1    O25   1.300134 A    
C8    C9    1.529384 S    
C41   C42   1.395825 A    
O7    Ba1   2.846427 S    
C22   C23   1.417449 A    
C17   C18   1.409353 A    
O11   C2    1.405453 S    
C4    H8    1.101429 S    
C30   C38   1.433598 A    
P1    Ba1   3.390306 S    
C38   C39   1.423970 A    
C11   H22   1.105410 S    
P1    O2    1.578448 S    
C7    H14   1.106627 S    
P7    C57   1.832954 S    
P4    C27   1.866596 S    
C6    N1    1.465744 S    
C16   H34   1.109931 S    
C15   H32   1.108257 S    
N2    O27   1.300574 A    
P5    O18   1.544410 D    
C27   C28   1.417817 A    
O13   Ba2   2.899346 S    
C13   C14   1.525945 S    
C6    H13   1.110506 S    
C43   C44   1.395277 A    
C51   C59   1.487194 S    
C1    C10   1.518689 S    
C1    H3    1.110551 S    
C4    O15   1.394847 S    
Ba1   O16   2.741863 S    
N3    O29   1.300562 A    
O3    Ba1   2.767126 S    
C18   H42   1.076242 S    
O14   Ba2   2.766466 S    
P3    C48   1.836145 S    
C16   H35   1.110617 S    
C19   C21   1.394321 A    
O12   Ba2   2.854725 S    
H33   C16   1.107810 S    
C32   H38   1.072820 S    
P3    O8    1.744941 S    
O3    P6    1.734515 S    
C55   C56   1.404663 A    
C3    H7    1.112736 S    
P1    C42   1.891982 S    
C53   C54   1.407758 A    
C53   H49   1.082420 S    
P4    O12   1.504682 D    
C9    N3    1.459732 S    
O16   P7    1.736415 S    
C15   O24   1.404790 S    
N5    O35   1.300040 A    
C55   H50   1.082851 S    
C2    H5    1.108940 S    
Ba1   O13   2.808361 S    
O4    P6    1.543273 D    
C5    H12   1.110675 S    
P8    O24   1.748579 S    
P2    O7    1.482675 D    
C58   C59   1.408927 A    
C17   C20   1.433838 A    
O8    Ba1   2.691778 S    
C56   C60   1.395879 A    
C3    O31   1.400328 S    
C4    H9    1.108987 S    
C33   C34   1.384870 A    
C14   O32   1.402005 S    
O5    C6    1.412407 S    
C33   H39   1.079151 S    
O17   Ba2   2.692408 S    
C5    H11   1.106228 S    
C52   C53   1.400058 A    
C50   H46   1.083014 S    
C43   C48   1.392929 A    
C47   H51   1.083211 S    
C30   C31   1.425662 A    
C24   C35   1.416437 A    
C22   C25   1.416390 A    
C8    H17   1.109472 S    
C45   N5    1.437482 S    
C21   C22   1.399945 A    
C47   C48   1.397818 A    
C11   O22   1.405249 S    
C60   H52   1.082211 S    
P5    O19   1.749885 S    
N5    O36   1.301468 A    
C31   C32   1.397995 A    
C6    C7    1.541015 S    
O10   C8    1.397592 S    
N2    O28   1.300591 A    
C20   C24   1.419928 A    
C25   C26   1.399204 A    
C52   H48   1.082010 S    
C38   C40   1.432231 A    
C21   H37   1.080686 S    
C12   H24   1.107920 S    
P4    Ba2   3.390893 S    
P2    C44   1.853312 S    
C19   C20   1.416507 A    
C1    H21   1.108021 S    
C29   C30   1.438988 A    
P3    O9    1.543187 D    
P1    O5    1.762997 S    
C3    H6    1.111101 S    
C13   H28   1.110110 S    
Ba1   O20   2.889638 S    
P7    O22   1.753392 S    
C44   C45   1.419387 A    
C49   C50   1.399198 A    
C37   H44   1.077374 S    
C46   C47   1.409349 A    
