data_mof_unit_54606.cif
_audit_creation_date              2012-12-11T16:28:13-0500
_audit_creation_method            fapswitch 2.2
_symmetry_space_group_name_H-M    P1
_symmetry_Int_Tables_number       1
_space_group_crystal_system       triclinic
_cell_length_a                    30.132478
_cell_length_b                    22.504098
_cell_length_c                    17.944024
_cell_angle_alpha                 90.735497
_cell_angle_beta                  122.96881
_cell_angle_gamma                 89.91168
_cell_volume                      10207.4253635

loop_
_atom_site_label
_atom_site_type_symbol
_atom_type_description
_atom_site_fract_x
_atom_site_fract_y
_atom_site_fract_z
_atom_type_partial_charge
C1    C     C_R   0.532260 0.607837 0.707493 -0.137868
C2    C     C_R   0.454603 0.421290 0.254607 -0.171077
C3    C     C_R   0.455813 0.581468 0.257532 -0.133252
C4    C     C_R   0.537961 0.402325 0.725034 -0.136343
C5    C     C_R   0.032262 0.107835 0.707498 -0.137870
C6    C     C_R   0.954604 0.921287 0.254609 -0.171084
C7    C     C_R   0.955814 0.081467 0.257532 -0.133242
C8    C     C_R   0.037956 0.902318 0.725023 -0.136319
C9    C     C_R   0.318729 0.638482 0.591585 0.356305
C10   C     C_R   0.635379 0.283991 0.412527 0.366942
C11   C     C_R   0.695283 0.600354 0.418399 0.342680
C12   C     C_R   0.325963 0.311514 0.547683 0.378348
C13   C     C_R   0.818738 0.138510 0.591585 0.356317
C14   C     C_R   0.135437 0.784041 0.412551 0.366897
C15   C     C_R   0.195209 0.100518 0.418267 0.342540
C16   C     C_R   0.825864 0.811569 0.547539 0.378485
C17   C     C_R   0.274691 0.664014 0.586811 0.336775
C18   C     C_R   0.663925 0.232300 0.419592 0.314786
C19   C     C_R   0.735612 0.632404 0.419741 0.386161
C20   C     C_R   0.301297 0.258318 0.546012 0.323420
C21   C     C_R   0.774700 0.164037 0.586814 0.336751
C22   C     C_R   0.163968 0.732339 0.419604 0.314769
C23   C     C_R   0.235574 0.132527 0.419666 0.385760
C24   C     C_R   0.801184 0.758383 0.545852 0.323415
C25   C     C_R   0.223501 0.651875 0.512615 -0.029293
C26   C     C_R   0.681382 0.194159 0.492130 -0.019224
C27   C     C_R   0.779307 0.652425 0.501801 -0.036837
C28   C     C_R   0.306992 0.206792 0.505848 -0.041554
C29   C     C_R   0.723508 0.151878 0.512637 -0.029297
C30   C     C_R   0.181386 0.694173 0.492104 -0.019210
C31   C     C_R   0.279323 0.152405 0.501764 -0.036705
C32   C     C_R   0.806915 0.706836 0.505765 -0.041603
C33   C     C_R   0.370265 0.614134 0.113258 0.130030
C34   C     C_R   0.603193 0.319396 0.813415 0.135266
C35   C     C_R   0.591651 0.700531 0.777422 0.128289
C36   C     C_R   0.368835 0.391580 0.107181 0.130233
C37   C     C_R   0.870268 0.114135 0.113258 0.130019
C38   C     C_R   0.103185 0.819387 0.813400 0.135266
C39   C     C_R   0.091655 0.200524 0.777439 0.128286
C40   C     C_R   0.868838 0.891572 0.107183 0.130218
C41   C     C_R   0.361023 0.643869 0.975736 -0.214825
C42   C     C_R   0.593688 0.247019 0.902628 -0.213805
C43   C     C_R   0.580590 0.777971 0.861205 -0.210147
C44   C     C_R   0.361697 0.359798 0.971067 -0.206952
C45   C     C_R   0.861037 0.143894 0.975754 -0.214825
C46   C     C_R   0.093686 0.747023 0.902636 -0.213815
C47   C     C_R   0.080594 0.277961 0.861227 -0.210124
C48   C     C_R   0.861701 0.859787 0.971071 -0.206963
C49   C     C_R   0.392200 0.622120 0.062165 -0.163371
C50   C     C_R   0.577536 0.299230 0.854233 -0.174733
C51   C     C_R   0.563324 0.725328 0.811460 -0.163569
C52   C     C_R   0.392178 0.381103 0.058577 -0.176682
C53   C     C_R   0.892209 0.122138 0.062178 -0.163355
C54   C     C_R   0.077532 0.799229 0.854230 -0.174736
C55   C     C_R   0.063327 0.225319 0.811479 -0.163575
C56   C     C_R   0.892182 0.881090 0.058582 -0.176685
C57   C     C_R   0.316275 0.624547 0.074367 -0.258767
C58   C     C_R   0.643661 0.285240 0.818415 -0.259114
C59   C     C_R   0.635223 0.731686 0.788484 -0.252498
C60   C     C_R   0.313876 0.384956 0.064115 -0.257281
C61   C     C_R   0.816276 0.124536 0.074355 -0.258749
C62   C     C_R   0.143650 0.785226 0.818397 -0.259125
C63   C     C_R   0.135226 0.231680 0.788503 -0.252489
C64   C     C_R   0.813878 0.884951 0.064112 -0.257270
C65   C     C_R   0.284224 0.645436 0.987799 0.089006
C66   C     C_R   0.661266 0.233059 0.868142 0.080962
C67   C     C_R   0.654166 0.784022 0.840385 0.080058
C68   C     C_R   0.282470 0.363814 0.976194 0.083226
C69   C     C_R   0.784230 0.145438 0.987794 0.088998
C70   C     C_R   0.161258 0.733050 0.868137 0.080961
C71   C     C_R   0.154169 0.284015 0.840404 0.080054
C72   C     C_R   0.782472 0.863811 0.976189 0.083228
C73   C     C_R   0.307752 0.658183 0.939851 0.174311
C74   C     C_R   0.636329 0.214891 0.912267 0.191552
C75   C     C_R   0.627084 0.805875 0.879409 0.188076
C76   C     C_R   0.307537 0.348264 0.931191 0.186051
C77   C     C_R   0.807764 0.158201 0.939861 0.174314
C78   C     C_R   0.136325 0.714892 0.912275 0.191554
C79   C     C_R   0.127087 0.305866 0.879429 0.188064
C80   C     C_R   0.807540 0.848260 0.931189 0.186018
C81   C     C_R   0.231059 0.661324 0.953235 0.073185
C82   C     C_R   0.706348 0.201958 0.882603 0.066975
C83   C     C_R   0.702581 0.811171 0.862725 0.071061
C84   C     C_R   0.227930 0.351015 0.936356 0.073210
C85   C     C_R   0.731063 0.161325 0.953225 0.073184
C86   C     C_R   0.206339 0.701947 0.882599 0.066971
C87   C     C_R   0.202582 0.311166 0.862741 0.071094
C88   C     C_R   0.727930 0.851016 0.936346 0.073215
C89   C     C_R   0.645885 0.575885 0.571826 -0.155056
C90   C     C_R   0.367569 0.396792 0.425132 -0.162448
C91   C     C_R   0.355383 0.580554 0.430680 -0.154012
C92   C     C_R   0.628231 0.392768 0.569245 -0.165429
C93   C     C_R   0.145883 0.075889 0.571799 -0.155099
C94   C     C_R   0.867562 0.896802 0.425123 -0.162368
C95   C     C_R   0.855384 0.080558 0.430681 -0.154012
C96   C     C_R   0.128240 0.892777 0.569248 -0.165399
C97   C     C_R   0.729297 0.211925 0.832790 -0.206874
C98   C     C_R   0.202982 0.640423 0.990171 -0.213391
C99   C     C_R   0.198580 0.374745 0.969782 -0.212373
C100  C     C_R   0.727677 0.798147 0.817007 -0.213627
C101  C     C_R   0.229282 0.711901 0.832775 -0.206867
C102  C     C_R   0.702981 0.140414 0.990147 -0.213384
C103  C     C_R   0.698579 0.874748 0.969769 -0.212373
C104  C     C_R   0.227678 0.298141 0.817024 -0.213657
C105  C     C_R   0.778616 0.188305 0.859595 -0.229093
C106  C     C_R   0.155614 0.666243 0.968430 -0.229598
C107  C     C_R   0.148172 0.353468 0.939694 -0.227998
C108  C     C_R   0.778816 0.818449 0.849295 -0.227070
C109  C     C_R   0.278599 0.688276 0.859577 -0.229105
C110  C     C_R   0.655613 0.166235 0.968407 -0.229598
C111  C     C_R   0.648170 0.853475 0.939675 -0.228025
C112  C     C_R   0.278814 0.318448 0.849303 -0.227112
C113  C     C_R   0.595932 0.578285 0.424951 -0.128351
C114  C     C_R   0.415612 0.398137 0.573571 -0.103539
C115  C     C_R   0.406102 0.580211 0.577604 -0.081693
C116  C     C_R   0.575931 0.392856 0.421622 -0.093656
C117  C     C_R   0.095915 0.078287 0.424926 -0.128175
C118  C     C_R   0.915603 0.898138 0.573562 -0.103636
C119  C     C_R   0.906104 0.080216 0.577605 -0.081664
C120  C     C_R   0.075939 0.892861 0.421623 -0.093489
C121  C     C_R   0.382294 0.582604 0.259140 -0.117405
C122  C     C_R   0.612440 0.401891 0.726446 -0.137466
C123  C     C_R   0.606629 0.608819 0.707465 -0.122832
C124  C     C_R   0.381600 0.419158 0.256503 -0.129355
C125  C     C_R   0.882294 0.082604 0.259140 -0.117401
C126  C     C_R   0.112437 0.901883 0.726437 -0.137481
C127  C     C_R   0.106630 0.108816 0.707469 -0.122836
C128  C     C_R   0.881601 0.919156 0.256503 -0.129345
C129  C     C_R   0.577623 0.641232 0.733530 0.056680
C130  C     C_R   0.401092 0.406583 0.203505 0.069074
C131  C     C_R   0.402481 0.596926 0.207815 0.054067
C132  C     C_R   0.586155 0.373877 0.760386 0.058468
C133  C     C_R   0.077626 0.141228 0.733540 0.056682
C134  C     C_R   0.901093 0.906578 0.203506 0.069069
C135  C     C_R   0.902482 0.096925 0.207814 0.054079
C136  C     C_R   0.086149 0.873867 0.760371 0.058455
C137  C     C_R   0.647366 0.586679 0.497466 0.125576
C138  C     C_R   0.375441 0.368704 0.499269 0.170956
C139  C     C_R   0.356365 0.594324 0.507741 0.136456
C140  C     C_R   0.614228 0.360627 0.492114 0.130958
C141  C     C_R   0.147352 0.086685 0.497417 0.125729
C142  C     C_R   0.875427 0.868714 0.499250 0.170986
C143  C     C_R   0.856368 0.094333 0.507742 0.136472
C144  C     C_R   0.114244 0.860641 0.492117 0.131032
C145  C     C_R   0.216481 0.611891 0.446594 -0.127273
C146  C     C_R   0.669881 0.207180 0.556269 -0.140090
C147  C     C_R   0.786034 0.633089 0.580876 -0.138693
C148  C     C_R   0.333412 0.209809 0.461802 -0.151566
C149  C     C_R   0.716489 0.111883 0.446627 -0.127280
C150  C     C_R   0.169864 0.707179 0.556221 -0.140091
C151  C     C_R   0.286054 0.132970 0.580799 -0.138715
C152  C     C_R   0.833372 0.709829 0.461778 -0.151658
C153  C     C_R   0.260088 0.591549 0.446835 -0.248878
C154  C     C_R   0.647305 0.261272 0.554846 -0.276520
C155  C     C_R   0.743872 0.607353 0.579127 -0.232075
C156  C     C_R   0.354244 0.263637 0.457601 -0.279827
C157  C     C_R   0.760094 0.091547 0.446858 -0.248874
C158  C     C_R   0.147296 0.761274 0.554811 -0.276525
C159  C     C_R   0.243881 0.107236 0.579024 -0.232225
C160  C     C_R   0.854224 0.763646 0.457595 -0.279852
C161  C     C_R   0.311342 0.607977 0.515955 -0.064176
C162  C     C_R   0.632611 0.301307 0.486032 -0.039920
C163  C     C_R   0.695938 0.596494 0.497700 -0.094017
C164  C     C_R   0.350476 0.314137 0.500163 -0.071841
C165  C     C_R   0.811348 0.107991 0.515962 -0.064186
C166  C     C_R   0.132636 0.801329 0.486033 -0.039952
C167  C     C_R   0.195909 0.096513 0.497597 -0.093475
C168  C     C_R   0.850436 0.814160 0.500112 -0.071893
H1    H     H_    0.662616 0.301127 0.786095 0.111705
H2    H     H_    0.300070 0.621824 0.114638 0.116787
H3    H     H_    0.296148 0.391304 0.101729 0.113977
H4    H     H_    0.656491 0.712478 0.761835 0.116572
H5    H     H_    0.162601 0.801106 0.786066 0.111708
H6    H     H_    0.800064 0.121793 0.114615 0.116779
H7    H     H_    0.796148 0.891303 0.101724 0.113974
H8    H     H_    0.156494 0.212472 0.761852 0.116568
H9    H     H_    0.545540 0.324041 0.850167 0.112996
H10   H     H_    0.433629 0.613724 0.089581 0.116546
H11   H     H_    0.434195 0.387055 0.088721 0.130975
H12   H     H_    0.528983 0.703195 0.802880 0.129225
H13   H     H_    0.045539 0.824045 0.850167 0.112994
H14   H     H_    0.933641 0.113751 0.089603 0.116573
H15   H     H_    0.934200 0.887035 0.088731 0.130948
H16   H     H_    0.028987 0.203185 0.802898 0.129234
H17   H     H_    0.379198 0.652321 0.938784 0.127501
H18   H     H_    0.574119 0.232965 0.935359 0.122205
H19   H     H_    0.559203 0.795037 0.889627 0.125255
H20   H     H_    0.381009 0.349405 0.936261 0.118996
H21   H     H_    0.879217 0.152359 0.938813 0.127492
H22   H     H_    0.074121 0.732977 0.935376 0.122204
H23   H     H_    0.059207 0.295025 0.889650 0.125262
H24   H     H_    0.881015 0.849392 0.936267 0.118989
H25   H     H_    0.679306 0.569603 0.638781 0.091892
H26   H     H_    0.338477 0.385825 0.356393 0.105415
H27   H     H_    0.320718 0.578072 0.363779 0.093703
H28   H     H_    0.658888 0.380979 0.635811 0.098852
H29   H     H_    0.179310 0.069629 0.638755 0.091891
H30   H     H_    0.838466 0.885845 0.356381 0.105400
H31   H     H_    0.820718 0.078076 0.363781 0.093708
H32   H     H_    0.158901 0.880992 0.635814 0.098855
H33   H     H_    0.341431 0.579510 0.238722 0.083510
H34   H     H_    0.653378 0.396742 0.748466 0.089614
H35   H     H_    0.644054 0.620220 0.716575 0.093861
H36   H     H_    0.340711 0.422898 0.235553 0.081294
H37   H     H_    0.841432 0.079514 0.238723 0.083508
H38   H     H_    0.153374 0.896730 0.748455 0.089621
H39   H     H_    0.144056 0.120217 0.716580 0.093867
H40   H     H_    0.840712 0.922895 0.235551 0.081290
H41   H     H_    0.177195 0.602222 0.389457 0.161215
H42   H     H_    0.683490 0.178302 0.612501 0.168702
H43   H     H_    0.820443 0.646887 0.644350 0.153069
H44   H     H_    0.336901 0.170849 0.429299 0.176382
H45   H     H_    0.677202 0.102197 0.389506 0.161247
H46   H     H_    0.183448 0.678284 0.612427 0.168681
H47   H     H_    0.320497 0.146669 0.644298 0.153048
H48   H     H_    0.836893 0.670852 0.429341 0.176465
H49   H     H_    0.253457 0.565004 0.390898 0.146205
H50   H     H_    0.642601 0.272521 0.609035 0.148166
H51   H     H_    0.748060 0.601336 0.642209 0.142774
H52   H     H_    0.374229 0.265783 0.422530 0.161819
H53   H     H_    0.753462 0.064993 0.390929 0.146222
H54   H     H_    0.142570 0.772509 0.608981 0.148175
H55   H     H_    0.248102 0.101102 0.642110 0.142765
H56   H     H_    0.874248 0.765772 0.422588 0.161834
N1    N     N_R   0.532910 0.558440 0.665240 -0.041981
N2    N     N_R   0.467090 0.441560 0.334760 -0.038946
N3    N     N_R   0.467090 0.558440 0.334760 -0.038401
N4    N     N_R   0.532910 0.441560 0.665240 -0.039213
N5    N     N_R   0.032910 0.058440 0.665240 -0.041983
N6    N     N_R   0.967090 0.941560 0.334760 -0.038955
N7    N     N_R   0.967090 0.058440 0.334760 -0.038413
N8    N     N_R   0.032910 0.941560 0.665240 -0.039213
N9    N     N_R   0.597030 0.558910 0.545540 -0.038848
N10   N     N_R   0.402970 0.441090 0.454460 -0.042630
N11   N     N_R   0.402970 0.558910 0.454460 -0.040684
N12   N     N_R   0.597030 0.441090 0.545540 -0.039328
N13   N     N_R   0.097030 0.058910 0.545540 -0.038858
N14   N     N_R   0.902970 0.941090 0.454460 -0.042638
N15   N     N_R   0.902970 0.058910 0.454460 -0.040685
N16   N     N_R   0.097030 0.941090 0.545540 -0.039332
N17   N     N_R   0.566200 0.559270 0.454460 -0.049321
N18   N     N_R   0.433800 0.440730 0.545540 -0.051153
N19   N     N_R   0.433800 0.559270 0.545540 -0.055308
N20   N     N_R   0.566200 0.440730 0.454460 -0.055724
N21   N     N_R   0.066200 0.059270 0.454460 -0.049379
N22   N     N_R   0.933800 0.940730 0.545540 -0.051139
N23   N     N_R   0.933800 0.059270 0.545540 -0.055307
N24   N     N_R   0.066200 0.940730 0.454460 -0.055733
N25   N     N_R   0.421050 0.559750 0.334770 -0.036943
N26   N     N_R   0.578950 0.440250 0.665230 -0.035603
N27   N     N_R   0.578950 0.559750 0.665230 -0.039015
N28   N     N_R   0.421050 0.440250 0.334770 -0.036161
N29   N     N_R   0.921050 0.059750 0.334770 -0.036943
N30   N     N_R   0.078950 0.940250 0.665230 -0.035608
N31   N     N_R   0.078950 0.059750 0.665230 -0.039013
N32   N     N_R   0.921050 0.940250 0.334770 -0.036168
Ni1   Ni    Ni4+2 0.483090 0.500000 0.604440 0.209391
Ni2   Ni    Ni4+2 0.516910 0.500000 0.395560 0.207071
Ni3   Ni    Ni4+2 0.983090 1.000000 0.604440 0.209385
Ni4   Ni    Ni4+2 0.016910 1.000000 0.395560 0.207090
Ni5   Ni    Ni4+2 0.586780 0.500000 0.604440 0.214734
Ni6   Ni    Ni4+2 0.413220 0.500000 0.395560 0.209675
Ni7   Ni    Ni4+2 0.086780 1.000000 0.604440 0.214748
Ni8   Ni    Ni4+2 0.913220 1.000000 0.395560 0.209672
H57   H     H_    0.500651 0.619897 0.715932 0.106914
H58   H     H_    0.480033 0.426850 0.230030 0.099747
H59   H     H_    0.482018 0.578797 0.233977 0.091107
H60   H     H_    0.510242 0.396035 0.744404 0.083990
H61   H     H_    0.000653 0.119894 0.715938 0.106918
H62   H     H_    0.980034 0.926848 0.230031 0.099746
H63   H     H_    0.982018 0.078794 0.233977 0.091131
H64   H     H_    0.010233 0.896025 0.744384 0.083992
H65   H     H_    0.709658 0.237398 0.772579 0.132612
H66   H     H_    0.217243 0.604058 0.036306 0.129622
H67   H     H_    0.213866 0.410258 0.018854 0.129540
H68   H     H_    0.708174 0.772916 0.755515 0.140559
H69   H     H_    0.209639 0.737366 0.772556 0.132620
H70   H     H_    0.717238 0.104042 0.036269 0.129620
H71   H     H_    0.713867 0.910260 0.018844 0.129537
H72   H     H_    0.208177 0.272903 0.755539 0.140583
H73   H     H_    0.582391 0.576640 0.355690 0.158702
H74   H     H_    0.429258 0.388982 0.641341 0.095560
H75   H     H_    0.417843 0.573242 0.645212 0.125973
H76   H     H_    0.554624 0.381230 0.352296 0.163544
H77   H     H_    0.082351 0.076631 0.355658 0.158860
H78   H     H_    0.929241 0.888984 0.641330 0.095502
H79   H     H_    0.917844 0.073249 0.645214 0.125942
H80   H     H_    0.054635 0.881229 0.352299 0.163408
O1    O     O_3   0.368989 0.651021 0.664414 -0.637747
C169  C     C_3   0.377292 0.618686 0.738149 0.289717
H81   H     H_    0.373428 0.569978 0.723776 0.077212
H82   H     H_    0.348952 0.631571 0.756887 0.138567
C170  C     C_3   0.432715 0.631542 0.818035 -0.952062
H83   H     H_    0.437789 0.679971 0.833360 0.264205
H84   H     H_    0.439050 0.607492 0.876707 0.217191
H85   H     H_    0.462674 0.616560 0.804248 0.245708
O2    O     O_3   0.616352 0.321616 0.340453 -0.662614
C171  C     C_3   0.585132 0.290360 0.258315 0.372250
H86   H     H_    0.571230 0.245752 0.264271 0.090897
H87   H     H_    0.608600 0.284619 0.227857 0.141195
C172  C     C_3   0.536181 0.326109 0.194836 -1.069349
H88   H     H_    0.547120 0.372664 0.191814 0.274443
H89   H     H_    0.515902 0.305875 0.127197 0.235494
H90   H     H_    0.508324 0.325580 0.217137 0.257416
O3    O     O_3   0.654158 0.577499 0.338511 -0.642034
C173  C     C_3   0.662365 0.515872 0.336197 0.301693
H91   H     H_    0.664466 0.492830 0.392681 0.093617
H92   H     H_    0.699501 0.507606 0.338275 0.107139
C174  C     C_3   0.616416 0.489037 0.250372 -0.905312
H93   H     H_    0.612507 0.511492 0.192341 0.262627
H94   H     H_    0.623638 0.441001 0.246801 0.229735
H95   H     H_    0.579035 0.494167 0.248140 0.237970
O4    O     O_3   0.320627 0.363043 0.585387 -0.625534
C175  C     C_3   0.349217 0.358079 0.678891 0.328653
H96   H     H_    0.388492 0.336679 0.706350 0.047463
H97   H     H_    0.326175 0.332185 0.699056 0.143798
C176  C     C_3   0.358541 0.419938 0.720292 -0.964553
H98   H     H_    0.320087 0.441977 0.696167 0.267146
H99   H     H_    0.380656 0.416694 0.793759 0.213528
H100  H     H_    0.381874 0.447342 0.702250 0.252569
O5    O     O_3   0.869001 0.151061 0.664401 -0.637735
C177  C     C_3   0.877312 0.118745 0.738157 0.289727
H101  H     H_    0.873442 0.070034 0.723805 0.077203
H102  H     H_    0.848979 0.131647 0.756905 0.138586
C178  C     C_3   0.932740 0.131604 0.818026 -0.952090
H103  H     H_    0.937825 0.180037 0.833316 0.264226
H104  H     H_    0.939074 0.107583 0.876720 0.217189
H105  H     H_    0.962691 0.116589 0.804242 0.245683
O6    O     O_3   0.116462 0.821706 0.340532 -0.662447
C179  C     C_3   0.085268 0.790497 0.258345 0.372422
H106  H     H_    0.071322 0.745892 0.264210 0.090833
H107  H     H_    0.108774 0.784761 0.227957 0.141170
C180  C     C_3   0.036356 0.826295 0.194848 -1.069289
H108  H     H_    0.047334 0.872860 0.191973 0.274523
H109  H     H_    0.016128 0.806128 0.127172 0.235448
H110  H     H_    0.008442 0.825728 0.217027 0.257288
O7    O     O_3   0.153998 0.077871 0.338302 -0.642228
C181  C     C_3   0.162213 0.016301 0.335428 0.301724
H111  H     H_    0.164462 0.992970 0.391839 0.093565
H112  H     H_    0.199273 0.008231 0.337183 0.107469
C182  C     C_3   0.116167 0.989675 0.249515 -0.905374
H113  H     H_    0.112074 0.012471 0.191569 0.262688
H114  H     H_    0.123413 0.941713 0.245438 0.229170
H115  H     H_    0.078871 0.994549 0.247621 0.237906
O8    O     O_3   0.820504 0.863114 0.585181 -0.625517
C183  C     C_3   0.849065 0.858180 0.678687 0.328750
H116  H     H_    0.888339 0.836764 0.706198 0.047420
H117  H     H_    0.826000 0.832316 0.698834 0.143782
C184  C     C_3   0.858391 0.920054 0.720041 -0.964537
H118  H     H_    0.819939 0.942113 0.695861 0.267150
H119  H     H_    0.880481 0.916835 0.793509 0.213531
H120  H     H_    0.881751 0.947427 0.702019 0.252562
O9    O     O_3   0.781789 0.201998 0.653988 -0.646261
C185  C     C_3   0.795900 0.259210 0.641847 0.325249
H121  H     H_    0.764626 0.277679 0.576829 0.058134
H122  H     H_    0.834098 0.258478 0.645956 0.127595
C186  C     C_3   0.801960 0.300675 0.714445 -0.934158
H123  H     H_    0.833967 0.284625 0.780594 0.254156
H124  H     H_    0.812164 0.346122 0.704877 0.213176
H125  H     H_    0.764303 0.302443 0.711894 0.256964
O10   O     O_3   0.175968 0.719646 0.356701 -0.645922
C187  C     C_3   0.220352 0.753729 0.375509 0.286181
H126  H     H_    0.255417 0.743625 0.442488 0.069164
H127  H     H_    0.211952 0.802175 0.371518 0.111182
C188  C     C_3   0.234117 0.738207 0.307706 -0.899288
H128  H     H_    0.200175 0.748228 0.239715 0.248377
H129  H     H_    0.268981 0.764687 0.321682 0.212795
H130  H     H_    0.243695 0.690218 0.311315 0.259377
O11   O     O_3   0.232395 0.144298 0.341356 -0.615526
C189  C     C_3   0.198306 0.192923 0.299286 0.317302
H131  H     H_    0.212764 0.233211 0.343057 0.050575
H132  H     H_    0.157292 0.182376 0.280180 0.122074
C190  C     C_3   0.196823 0.207311 0.215396 -0.878852
H133  H     H_    0.181924 0.168300 0.169360 0.261760
H134  H     H_    0.170179 0.245533 0.181637 0.201128
H135  H     H_    0.237165 0.219061 0.232533 0.255440
O12   O     O_3   0.772252 0.756493 0.584840 -0.640528
C191  C     C_3   0.719753 0.773667 0.521971 0.325023
H136  H     H_    0.700173 0.741353 0.465442 0.055487
H137  H     H_    0.718338 0.818937 0.496345 0.110496
C192  C     C_3   0.688741 0.774622 0.566196 -0.909975
H138  H     H_    0.706406 0.807845 0.621449 0.253527
H139  H     H_    0.647015 0.786862 0.517043 0.213168
H140  H     H_    0.689521 0.730039 0.592780 0.258320
O13   O     O_3   0.281778 0.701961 0.653998 -0.646256
C193  C     C_3   0.295907 0.759174 0.641898 0.325220
H141  H     H_    0.264637 0.777667 0.576897 0.058173
H142  H     H_    0.334102 0.758436 0.645994 0.127589
C194  C     C_3   0.301989 0.800618 0.714531 -0.934140
H143  H     H_    0.333996 0.784546 0.780663 0.254142
H144  H     H_    0.312203 0.846067 0.704990 0.213188
H145  H     H_    0.264336 0.802391 0.711994 0.256964
O14   O     O_3   0.675897 0.219594 0.356659 -0.645918
C195  C     C_3   0.720253 0.253700 0.375388 0.286208
H146  H     H_    0.755339 0.243633 0.442364 0.069163
H147  H     H_    0.711827 0.302141 0.371354 0.111153
C196  C     C_3   0.733994 0.238160 0.307560 -0.899266
H148  H     H_    0.700031 0.248144 0.239572 0.248389
H149  H     H_    0.768835 0.264659 0.321472 0.212799
H150  H     H_    0.743598 0.190177 0.311211 0.259361
O15   O     O_3   0.732456 0.644066 0.341424 -0.615408
C197  C     C_3   0.698281 0.692593 0.299138 0.317165
H151  H     H_    0.712643 0.732950 0.342766 0.050570
H152  H     H_    0.657276 0.681967 0.280009 0.122024
C198  C     C_3   0.696820 0.706878 0.215239 -0.878702
H153  H     H_    0.682018 0.667792 0.169345 0.261786
H154  H     H_    0.670107 0.745021 0.181311 0.201128
H155  H     H_    0.737151 0.718704 0.232394 0.255405
O16   O     O_3   0.272391 0.256405 0.585046 -0.640506
C199  C     C_3   0.219899 0.273642 0.522250 0.324979
H156  H     H_    0.200262 0.241341 0.465712 0.055554
H157  H     H_    0.218505 0.318908 0.496624 0.110498
C200  C     C_3   0.188938 0.274658 0.566564 -0.910031
H158  H     H_    0.206657 0.307881 0.621817 0.253529
H159  H     H_    0.147215 0.286935 0.517465 0.213195
H160  H     H_    0.189703 0.230085 0.593162 0.258299
H161  H     H_    0.795536 0.197341 0.820905 0.179185
H162  H     H_    0.135884 0.650532 0.000107 0.131760
H163  H     H_    0.127173 0.371693 0.968157 0.129860
H164  H     H_    0.797133 0.807147 0.813147 0.137405
H165  H     H_    0.295514 0.697300 0.820876 0.179227
H166  H     H_    0.635879 0.150516 0.000074 0.131757
H167  H     H_    0.627171 0.871702 0.968138 0.129858
H168  H     H_    0.297130 0.307145 0.813154 0.137453

loop_
_geom_bond_atom_site_label_1
_geom_bond_atom_site_label_2
_ccdc_geom_bond_type
C177  H102  S    
C186  H123  S    
C6    H62   S    
C169  C170  S    
C119  C143  A    
C120  C144  A    
C104  H72   S    
O7    C181  S    
C180  H108  S    
C109  H165  S    
C3    C131  A    
C12   O4    S    
N9    Ni5   S    
C107  H163  S    
C49   H10   S    
C1    C129  A    
C148  H44   S    
C105  H161  S    
C180  H110  S    
C177  C178  S    
N13   Ni7   S    
C46   H22   S    
C62   C70   A    
C127  H39   S    
C72   C88   A    
C114  H74   S    
C37   C135  S    
C38   C136  S    
C22   O10   S    
C147  C155  A    
C81   C86   A    
N10   N18   A    
C97   C105  A    
C125  C135  A    
C182  H114  S    
C83   C88   A    
C126  C136  A    
N12   Ni5   S    
C200  H159  S    
C151  H47   S    
C41   C49   A    
N5    N31   A    
C43   C75   A    
C179  H106  S    
C150  H46   S    
N20   Ni2   S    
C190  H135  S    
C20   C28   A    
C175  H96   S    
C172  H88   S    
C21   C29   A    
C92   N12   A    
C153  C161  A    
C23   C31   A    
C176  H100  S    
C193  H142  S    
C24   C32   A    
C36   C130  S    
C66   C82   A    
C91   H27   S    
C146  C154  A    
C43   H19   S    
C89   H25   S    
C12   C20   A    
C173  H91   S    
C124  C130  A    
C156  H52   S    
C95   N15   A    
N11   N19   A    
C19   O15   S    
C160  H56   S    
C63   C71   A    
N11   Ni6   S    
C83   C100  A    
N32   Ni8   S    
C35   C51   A    
C194  H143  S    
C113  C137  A    
C188  H130  S    
C193  C194  S    
C25   C145  A    
C171  H86   S    
C2    N2    A    
C104  C112  A    
C172  H90   S    
C75   C111  A    
C92   H28   S    
C74   C110  A    
C118  N22   A    
C82   C85   A    
O14   C195  S    
C98   C106  A    
C123  H35   S    
C78   C106  A    
C115  H75   S    
C196  H149  S    
C17   C25   A    
C198  H153  S    
C10   C18   A    
C124  N28   A    
C125  H37   S    
C159  C167  A    
C160  C168  A    
C149  H45   S    
C195  H146  S    
C17   O13   S    
O5    C177  S    
C34   C58   A    
C128  H40   S    
C191  H136  S    
C188  H128  S    
C175  H97   S    
C38   C62   A    
C116  N20   A    
C67   C83   A    
C184  H118  S    
C69   C77   A    
C71   C79   A    
C189  H131  S    
C4    C132  A    
C5    C133  A    
C152  H48   S    
C127  N31   A    
C103  C111  A    
C187  H126  S    
C140  C162  S    
C2    H58   S    
C91   N11   A    
C89   N9    A    
C26   C146  A    
N21   Ni4   S    
C119  N23   A    
N22   Ni3   S    
C98   H66   S    
C59   C67   A    
C93   N13   A    
N8    Ni3   S    
C192  H140  S    
C55   H16   S    
C14   C166  A    
C153  H49   S    
C36   C52   A    
N28   Ni6   S    
N3    N25   A    
C37   C53   A    
C44   C52   A    
C45   C53   A    
C157  H53   S    
C110  H166  S    
C15   C167  A    
C90   C138  A    
C145  H41   S    
C106  H162  S    
C100  C108  A    
C118  H78   S    
N17   Ni2   S    
C94   C142  A    
C58   H1    S    
C15   O7    S    
C198  H155  S    
C157  C165  A    
C137  C163  S    
C155  C163  A    
C62   H5    S    
C40   C134  S    
C151  C159  A    
C93   H29   S    
C170  H83   S    
C128  C134  A    
C122  N26   A    
C142  C168  S    
C31   C151  A    
C183  H117  S    
C32   C152  A    
C11   C163  A    
O1    C169  S    
C54   H13   S    
C126  N30   A    
C13   O5    S    
C9    C161  A    
C199  H156  S    
N27   Ni5   S    
C114  N18   A    
C42   C50   A    
C184  H120  S    
C181  H112  S    
C6    N6    A    
C67   C75   A    
C184  H119  S    
C117  H77   S    
C112  H168  S    
C69   C85   A    
C183  C184  S    
C119  H79   S    
C57   H2    S    
N9    N17   A    
C96   H32   S    
C22   C30   A    
C60   H3    S    
C154  C162  A    
C61   H6    S    
C68   C76   A    
C181  C182  S    
C80   C108  A    
C185  H122  S    
C14   C22   A    
O16   C199  S    
C52   H11   S    
C16   O8    S    
C72   C80   A    
C196  H148  S    
C10   O2    S    
C23   O11   S    
C128  N32   A    
C5    N5    A    
C114  C138  A    
C41   C73   A    
C14   O6    S    
N10   Ni6   S    
C10   C162  A    
C185  H121  S    
C33   C49   A    
C45   C77   A    
C120  N24   A    
C85   C102  A    
C18   O14   S    
C95   C143  A    
C200  H158  S    
C11   O3    S    
C8    C136  A    
N14   Ni8   S    
C18   C26   A    
N2    Ni2   S    
O9    C185  S    
C63   H8    S    
C7    N7    A    
N2    N28   A    
C11   C19   A    
C179  H107  S    
C100  H68   S    
C101  H69   S    
C197  H151  S    
C170  H85   S    
N6    N32   A    
C190  H134  S    
C30   C150  A    
C111  H167  S    
C81   C98   A    
C101  C109  A    
N15   N23   A    
C169  H81   S    
O2    C171  S    
C176  H99   S    
C143  C165  S    
N3    Ni2   S    
N24   Ni4   S    
C39   C55   A    
C40   C56   A    
C179  C180  S    
C173  H92   S    
C155  H51   S    
C47   C79   A    
N25   Ni6   S    
C175  C176  S    
C172  H89   S    
C177  H101  S    
C186  H124  S    
C96   N16   A    
C171  H87   S    
C147  H43   S    
C24   O12   S    
O15   C197  S    
N4    N26   A    
C180  H109  S    
C192  H139  S    
C141  C167  S    
C173  C174  S    
C3    H59   S    
C68   C84   A    
C139  C161  S    
C50   H9    S    
N8    N30   A    
C196  H150  S    
C46   C78   A    
C99   H67   S    
N13   N21   A    
C36   C60   A    
C174  H93   S    
C144  C166  S    
C171  C172  S    
C117  C141  A    
C12   C164  A    
C13   C165  A    
C38   C54   A    
C46   C54   A    
C79   C107  A    
C9    C17   A    
C108  H164  S    
C195  H147  S    
C71   C87   A    
N6    Ni4   S    
C200  H160  S    
C89   C137  A    
C82   C97   A    
C116  H76   S    
C191  H137  S    
C59   H4    S    
C92   C140  A    
C3    N3    A    
C93   C141  A    
C158  C166  A    
O13   C193  S    
C39   C133  S    
C1    N1    A    
C25   C30   S    
C150  C158  A    
C27   C32   S    
C84   C99   A    
C28   C31   S    
C120  H80   S    
C127  C133  A    
C57   C65   A    
C195  C196  S    
C189  H132  S    
C73   C109  A    
C8    N8    A    
C56   H15   S    
C117  N21   A    
C4    H60   S    
C99   C107  A    
N7    Ni4   S    
C5    H61   S    
C122  H34   S    
C191  C192  S    
C77   C105  A    
C193  H141  S    
C27   C147  A    
C43   C51   A    
O4    C175  S    
C121  C131  A    
C187  H127  S    
C126  H38   S    
C2    C130  A    
C4    N4    A    
C47   H23   S    
C178  H103  S    
N7    N29   A    
C48   H24   S    
C189  C190  S    
C87   C104  A    
C60   C68   A    
C8    H64   S    
O3    C173  S    
N16   N24   A    
C148  C156  A    
C53   H14   S    
C149  C157  A    
C113  H73   S    
C187  C188  S    
C66   C74   A    
C152  C160  A    
C70   C78   A    
C21   O9    S    
O6    C179  S    
C16   C24   A    
C84   C87   A    
C103  H71   S    
C182  H113  S    
C124  H36   S    
C174  H95   S    
C192  H138  S    
C188  H129  S    
C198  H154  S    
C96   C144  A    
C65   C73   A    
C90   N10   A    
C178  H104  S    
N19   Ni1   S    
C65   C81   A    
C58   C66   A    
C90   H26   S    
C154  H50   S    
C19   C27   A    
C35   C129  S    
C199  H157  S    
C145  C153  A    
C33   C131  S    
C15   C23   A    
C34   C132  S    
C158  H54   S    
C123  C129  A    
N14   N22   A    
C102  H70   S    
C122  C132  A    
C146  H42   S    
C94   N14   A    
C197  H152  S    
C35   C59   A    
C34   C50   A    
C13   C21   A    
N23   Ni3   S    
C199  C200  S    
N4    Ni1   S    
C48   C80   A    
C94   H30   S    
C178  H105  S    
N26   Ni5   S    
C7    C135  A    
C194  H145  S    
C197  C198  S    
C121  N25   A    
C76   C112  A    
N1    N27   A    
C41   H17   S    
C64   H7    S    
C125  N29   A    
O12   C191  S    
C42   C74   A    
C44   H20   S    
C115  N19   A    
N5    Ni3   S    
N29   Ni8   S    
C45   H21   S    
N30   Ni7   S    
C113  N17   A    
C91   C139  A    
N15   Ni8   S    
N16   Ni7   S    
C51   H12   S    
C70   C86   A    
C88   C103  A    
C47   C55   A    
O11   C189  S    
C182  H115  S    
C61   C69   A    
C48   C56   A    
C33   C57   A    
C28   C148  A    
C115  C139  A    
C118  C142  A    
C37   C61   A    
C186  H125  S    
C185  C186  S    
C39   C63   A    
O10   C187  S    
C40   C64   A    
N12   N20   A    
N1    Ni1   S    
C170  H84   S    
C190  H133  S    
C9    O1    S    
C121  H33   S    
C42   H18   S    
C183  H116  S    
N31   Ni7   S    
C174  H94   S    
C16   C168  A    
C159  H55   S    
N18   Ni1   S    
C169  H82   S    
C64   C72   A    
C176  H98   S    
C29   C149  A    
C102  C110  A    
C20   O16   S    
C7    H63   S    
C6    C134  A    
C194  H144  S    
C1    H57   S    
C156  C164  A    
C26   C29   S    
C95   H31   S    
C181  H111  S    
C123  N27   A    
C138  C164  S    
C44   C76   A    
O8    C183  S    
C86   C101  A    
C97   H65   S    
C116  C140  A    
