data_mof_unit_33863.cif
_audit_creation_date              2012-12-10T19:46:27-0500
_audit_creation_method            fapswitch 2.2
_symmetry_space_group_name_H-M    P1
_symmetry_Int_Tables_number       1
_space_group_crystal_system       triclinic
_cell_length_a                    10.86375
_cell_length_b                    10.871092
_cell_length_c                    10.432684
_cell_angle_alpha                 90.685882
_cell_angle_beta                  90.398246
_cell_angle_gamma                 90.307085
_cell_volume                      1231.97230099

loop_
_atom_site_label
_atom_site_type_symbol
_atom_type_description
_atom_site_fract_x
_atom_site_fract_y
_atom_site_fract_z
_atom_type_partial_charge
C1    C     C_R   0.496177 0.261495 0.498926 0.830959
C2    C     C_R   0.503861 0.738502 0.501070 0.829702
C3    C     C_R   0.871966 0.494633 0.501675 -0.090548
C4    C     C_R   0.128023 0.505265 0.498316 -0.090380
C5    C     C_R   0.939797 0.452546 0.608359 0.065819
C6    C     C_R   0.060182 0.547313 0.391612 0.065698
C7    C     C_R   0.275270 0.205444 0.126402 -0.174123
C8    C     C_R   0.725610 0.796240 0.873896 -0.172659
C9    C     C_R   0.313453 0.161401 0.245580 0.644376
C10   C     C_R   0.687291 0.840035 0.754659 0.643187
C11   C     C_R   0.432583 0.113525 0.260653 -0.003310
C12   C     C_R   0.567627 0.886475 0.739222 -0.003466
C13   C     C_R   0.512329 0.110388 0.155259 -0.234602
C14   C     C_R   0.487428 0.888342 0.844256 -0.233442
C15   C     C_R   0.473775 0.155527 0.036709 -0.142951
C16   C     C_R   0.526102 0.843390 0.962847 -0.143289
C17   C     C_R   0.355372 0.202924 0.022244 -0.229249
C18   C     C_R   0.645067 0.797477 0.977704 -0.229730
C19   C     C_R   0.478805 0.931805 0.388030 -0.246463
C20   C     C_R   0.521333 0.068188 0.611922 -0.245906
C21   C     C_R   0.505826 0.872097 0.502815 -0.046261
C22   C     C_R   0.494243 0.127898 0.497154 -0.045933
C23   C     C_R   0.261568 0.503516 0.499385 0.829449
C24   C     C_R   0.738427 0.496447 0.500614 0.828659
C25   C     C_R   0.529056 0.941191 0.616139 0.068324
C26   C     C_R   0.471050 0.058805 0.383799 0.068098
C27   C     C_1   0.500010 0.500005 0.071958 0.087907
C28   C     C_1   0.499982 0.500001 0.928041 0.088365
C29   C     C_R   0.226747 0.769602 0.175529 -0.130631
C30   C     C_R   0.773211 0.230438 0.824668 -0.130374
C31   C     C_R   0.175400 0.717373 0.284914 -0.188637
C32   C     C_R   0.825001 0.282345 0.715324 -0.189117
C33   C     C_R   0.118011 0.601406 0.277024 -0.000522
C34   C     C_R   0.881887 0.398575 0.722967 -0.001125
C35   C     C_R   0.113023 0.538412 0.158659 0.620080
C36   C     C_R   0.885931 0.462161 0.841021 0.621294
C37   C     C_R   0.166906 0.589855 0.050279 -0.138786
C38   C     C_R   0.831657 0.411006 0.949355 -0.137576
C39   C     C_R   0.222957 0.705645 0.058489 -0.202813
C40   C     C_R   0.776084 0.294963 0.941404 -0.202395
C41   C     C_R   0.932714 0.540518 0.394392 -0.137164
C42   C     C_R   0.067268 0.459346 0.605597 -0.137647
Cu1   Cu    Cu3+1 0.500000 0.500000 0.625300 0.999109
Cu2   Cu    Cu3+1 0.500000 0.500000 0.374700 0.999080
H1    H     H_    0.262817 0.745930 0.973902 0.163427
H2    H     H_    0.735833 0.254946 0.025945 0.163665
H3    H     H_    0.603760 0.072137 0.164749 0.164170
H4    H     H_    0.395572 0.925519 0.834471 0.163785
H5    H     H_    0.534983 0.152252 0.955487 0.148790
H6    H     H_    0.464575 0.845735 0.043831 0.148868
H7    H     H_    0.460504 0.879242 0.300986 0.150221
H8    H     H_    0.539706 0.120742 0.698960 0.149972
H9    H     H_    0.268839 0.859927 0.181255 0.145099
H10   H     H_    0.731429 0.139954 0.819131 0.145108
H11   H     H_    0.179167 0.767557 0.375201 0.158259
H12   H     H_    0.821887 0.231752 0.625254 0.159079
H13   H     H_    0.164550 0.540376 0.959623 0.180677
H14   H     H_    0.833281 0.460944 0.039762 0.180072
H15   H     H_    0.880639 0.574481 0.313169 0.156779
H16   H     H_    0.119331 0.425415 0.686843 0.156463
H17   H     H_    0.325418 0.236913 0.930105 0.167207
H18   H     H_    0.675116 0.763691 0.069895 0.167190
H19   H     H_    0.182956 0.239926 0.114119 0.223390
H20   H     H_    0.818364 0.762999 0.886504 0.223373
N1    N     N_1   0.500010 0.499990 0.186410 -0.147178
N2    N     N_1   0.499990 0.500010 0.813590 -0.147036
O1    O     O_R   0.499990 0.319650 0.605810 -0.591056
O2    O     O_R   0.500010 0.680350 0.394190 -0.591041
O3    O     O_R   0.499990 0.319640 0.394190 -0.574885
O4    O     O_R   0.500010 0.680360 0.605810 -0.574808
O5    O     O_R   0.319640 0.500010 0.605810 -0.588958
O6    O     O_R   0.680360 0.499990 0.394190 -0.588848
O7    O     O_R   0.319650 0.500010 0.394190 -0.562875
O8    O     O_R   0.680350 0.499990 0.605810 -0.563120
F1    F     F_    0.056202 0.427347 0.148689 -0.702278
F2    F     F_    0.942110 0.573576 0.850697 -0.702304
F3    F     F_    0.233848 0.163068 0.345291 -0.671314
F4    F     F_    0.767297 0.839643 0.655289 -0.670903

loop_
_geom_bond_atom_site_label_1
_geom_bond_atom_site_label_2
_ccdc_geom_bond_type
C38   C40   A    
C5    C42   A    
Cu2   N1    S    
C40   H2    S    
C30   H10   S    
C35   F1    S    
C4    C42   A    
C19   C21   A    
C16   H6    S    
C2    O2    A    
C20   C25   A    
C15   C17   A    
C19   C26   A    
C36   F2    S    
C33   C35   A    
C38   H14   S    
C7    C17   A    
C6    C41   A    
C31   C33   A    
C39   H1    S    
C17   H17   S    
Cu1   O8    S    
C1    C22   S    
C3    C24   S    
C23   O7    A    
C10   F4    S    
C23   O5    A    
C41   H15   S    
C4    C6    A    
C42   H16   S    
C13   H3    S    
C4    C23   S    
C18   H18   S    
C14   H4    S    
C11   C26   S    
C1    O3    A    
C32   C34   A    
C28   N2    T    
Cu1   Cu2   S    
C27   N1    T    
C29   C31   A    
C5    C34   S    
C29   C39   A    
C2    C21   S    
C30   C40   A    
Cu2   O3    S    
C9    F3    S    
C9    C11   A    
C7    H19   S    
C10   C12   A    
C8    H20   S    
Cu1   O1    S    
C12   C14   A    
Cu1   O4    S    
C13   C15   A    
C14   C16   A    
Cu2   O2    S    
C24   O6    A    
C7    C9    A    
C21   C25   A    
C3    C41   A    
Cu1   O5    S    
C35   C37   A    
C8    C10   A    
C20   C22   A    
C3    C5    A    
C6    C33   S    
C12   C25   S    
C20   H8    S    
C36   C38   A    
C37   C39   A    
C30   C32   A    
C11   C13   A    
C24   O8    A    
C29   H9    S    
Cu1   N2    S    
C1    O1    A    
Cu2   O6    S    
C34   C36   A    
C15   H5    S    
Cu2   O7    S    
C8    C18   A    
C19   H7    S    
C16   C18   A    
C22   C26   A    
C27   C28   S    
C31   H11   S    
C2    O4    A    
C32   H12   S    
C37   H13   S    
