data_mof_unit_12261.cif
_audit_creation_date              2012-12-10T19:11:32-0500
_audit_creation_method            fapswitch 2.2
_symmetry_space_group_name_H-M    P1
_symmetry_Int_Tables_number       1
_space_group_crystal_system       triclinic
_cell_length_a                    7.815436
_cell_length_b                    9.070074
_cell_length_c                    17.324758
_cell_angle_alpha                 90.035488
_cell_angle_beta                  86.427835
_cell_angle_gamma                 89.988174
_cell_volume                      1225.70657832

loop_
_atom_site_label
_atom_site_type_symbol
_atom_type_description
_atom_site_fract_x
_atom_site_fract_y
_atom_site_fract_z
_atom_type_partial_charge
C1    C     C_R   0.500002 0.779809 0.499899 0.810820
C2    C     C_R   0.500036 0.220180 0.499829 0.824712
C3    C     C_1   0.500025 0.934536 0.499753 -0.182339
C4    C     C_1   0.500062 0.065432 0.499721 -0.174911
C5    C     C_R   0.479657 0.508560 0.650594 0.809883
C6    C     C_R   0.521183 0.495303 0.349787 0.800246
C7    C     C_R   0.474762 0.522507 0.736118 -0.208490
C8    C     C_R   0.532560 0.483727 0.265173 -0.215146
C9    C     C_R   0.626726 0.517122 0.776612 -0.097353
C10   C     C_R   0.416105 0.394435 0.226463 -0.056884
C11   C     C_R   0.616323 0.513154 0.856757 -0.223854
C12   C     C_R   0.440348 0.375022 0.147162 -0.197439
C13   C     C_R   0.458306 0.508623 0.898882 0.016408
C14   C     C_R   0.576357 0.442820 0.105202 -0.008164
C15   C     C_R   0.306920 0.524639 0.859736 -0.034754
C16   C     C_R   0.696199 0.529556 0.142447 -0.047486
C17   C     C_R   0.317370 0.544200 0.779009 0.420591
C18   C     C_R   0.669353 0.555341 0.222524 0.455430
C19   C     C_2   0.453783 0.495914 0.983905 -0.178011
C20   C     C_2   0.580248 0.432837 0.021045 -0.211079
Cu1   Cu    Cu3+1 0.330920 0.500000 0.500000 1.047091
Cu2   Cu    Cu3+1 0.669080 0.500000 0.500000 1.050860
H1    H     H_    0.350152 0.308334 0.117134 0.161524
H2    H     H_    0.733358 0.518196 0.886477 0.187279
H3    H     H_    0.691203 0.382837 0.990720 0.177018
H4    H     H_    0.346263 0.543544 0.018006 0.168553
N1    N     N_1   0.923170 0.500000 0.500010 -0.012988
N2    N     N_1   0.076830 0.500000 0.499990 -0.014578
O1    O     O_R   0.357240 0.711600 0.500000 -0.587602
O2    O     O_R   0.642760 0.288400 0.500000 -0.584784
O3    O     O_R   0.642760 0.711600 0.500000 -0.573568
O4    O     O_R   0.357240 0.288400 0.500000 -0.578613
O5    O     O_R   0.340660 0.500000 0.613590 -0.555922
O6    O     O_R   0.659340 0.500000 0.386410 -0.545699
O7    O     O_R   0.626230 0.500000 0.613600 -0.560299
O8    O     O_R   0.373770 0.500000 0.386400 -0.540913
C21   C     C_2   0.137492 0.518059 0.902043 0.346261
H5    H     H_    0.108836 0.587113 0.952231 0.054569
O9    O     O_2   0.030553 0.430346 0.882238 -0.588543
C22   C     C_2   0.844154 0.597234 0.097012 0.359324
H6    H     H_    0.843261 0.606468 0.034667 0.055268
O10   O     O_2   0.970455 0.640991 0.128249 -0.508628
C23   C     C_2   0.800095 0.526078 0.738760 0.472361
H7    H     H_    0.894334 0.442423 0.749975 0.145033
O11   O     O_2   0.839860 0.630342 0.696934 -0.533868
C24   C     C_2   0.269642 0.315270 0.265522 0.417727
H8    H     H_    0.260455 0.196476 0.259666 0.032486
O12   O     O_2   0.151733 0.382559 0.298932 -0.472199
O13   O     O_3   0.779509 0.648747 0.259112 -0.533675
C25   C     C_3   0.696292 0.783736 0.279426 0.076573
H9    H     H_    0.727626 0.811588 0.339386 0.173121
H10   H     H_    0.553406 0.779704 0.279529 0.097362
C26   C     C_3   0.763489 0.906976 0.225389 -0.304717
H11   H     H_    0.905524 0.912550 0.225820 0.251675
H12   H     H_    0.728728 0.882629 0.165478 0.215666
C27   C     C_3   0.687872 0.056275 0.250082 -0.922821
H13   H     H_    0.546029 0.053809 0.248939 0.243170
H14   H     H_    0.738303 0.143114 0.209647 0.271376
H15   H     H_    0.723447 0.084746 0.309365 0.264493
O14   O     O_3   0.175198 0.593579 0.743081 -0.585521
C28   C     C_3   0.193983 0.746335 0.726221 0.131992
H16   H     H_    0.125299 0.769565 0.673353 0.209192
H17   H     H_    0.329373 0.781124 0.712144 0.093471
C29   C     C_3   0.115107 0.840189 0.792968 -0.381883
H18   H     H_    0.981437 0.803599 0.807881 0.249879
H19   H     H_    0.190440 0.825754 0.844729 0.196840
C30   C     C_3   0.114125 0.003474 0.771665 -0.852270
H20   H     H_    0.246948 0.042966 0.757539 0.253107
H21   H     H_    0.057759 0.068516 0.821290 0.274298
H22   H     H_    0.035929 0.021844 0.721144 0.259344

loop_
_geom_bond_atom_site_label_1
_geom_bond_atom_site_label_2
_ccdc_geom_bond_type
C10   C24   S    
C28   C29   S    
C2    C4    S    
C23   H7    S    
C29   C30   S    
C7    C9    A    
C21   H5    S    
C11   C13   A    
C25   H10   S    
C19   C20   D    
C27   H15   S    
C16   C18   A    
C2    O2    A    
C30   H22   S    
C29   H18   S    
C6    O8    A    
C22   O10   D    
C25   H9    S    
C21   O9    D    
Cu1   O8    S    
C26   H11   S    
Cu2   O7    S    
C9    C11   A    
C12   H1    S    
C5    O5    A    
C10   C12   A    
C16   C22   S    
C5    O7    A    
C1    C3    S    
C1    O1    A    
C22   H6    S    
Cu1   N2    S    
C27   H14   S    
C5    C7    S    
Cu2   N1    S    
C26   H12   S    
C13   C15   A    
C28   H16   S    
Cu2   O6    S    
Cu1   O4    S    
C14   C16   A    
C9    C23   S    
C25   C26   S    
Cu1   O5    S    
Cu2   O3    S    
C13   C19   S    
C17   O14   S    
C30   H20   S    
C24   O12   D    
C14   C20   S    
C11   H2    S    
C1    O3    A    
C27   H13   S    
C2    O4    A    
O13   C25   S    
C20   H3    S    
C26   C27   S    
N1    N2    T    
C15   C17   A    
C19   H4    S    
C24   H8    S    
C15   C21   S    
C6    C8    S    
Cu2   O2    S    
C30   H21   S    
Cu1   Cu2   S    
Cu1   O1    S    
C23   O11   D    
C8    C10   A    
C8    C18   A    
C3    C4    T    
C6    O6    A    
C18   O13   S    
C12   C14   A    
O14   C28   S    
C28   H17   S    
C7    C17   A    
C29   H19   S    
