data_mof_unit_41546.cif
_audit_creation_date              2012-10-26T17:12:32-0400
_audit_creation_method            fapswitch 2.2
_symmetry_space_group_name_H-M    P1
_symmetry_Int_Tables_number       1
_space_group_crystal_system       triclinic
_cell_length_a                    16.999131
_cell_length_b                    16.899076
_cell_length_c                    16.975171
_cell_angle_alpha                 68.40292
_cell_angle_beta                  68.48294
_cell_angle_gamma                 67.370511
_cell_volume                      4038.43942646

loop_
_atom_site_label
_atom_site_type_symbol
_atom_type_description
_atom_site_fract_x
_atom_site_fract_y
_atom_site_fract_z
_atom_type_partial_charge
C1    C     C_R   0.018281 0.830396 0.568086 0.838919
C2    C     C_R   0.022606 0.566086 0.829099 0.832970
C3    C     C_3   0.748101 0.189144 0.113892 -0.659429
C4    C     C_3   0.283325 0.543645 0.210100 0.166978
C5    C     C_3   0.236355 0.599782 0.275604 -0.697174
C6    C     C_3   0.230601 0.916515 0.698225 0.135265
C7    C     C_3   0.130012 0.948075 0.728606 -0.796879
C8    C     C_3   0.766193 0.958753 0.322452 0.123252
C9    C     C_3   0.802180 0.963967 0.224966 -0.754649
C10   C     C_3   0.664838 0.348011 0.846015 0.026297
C11   C     C_3   0.751302 0.304890 0.788951 -0.526010
C12   C     C_3   0.316036 0.763751 0.983936 0.164217
C13   C     C_R   0.168319 0.985185 0.431130 0.847229
C14   C     C_3   0.218477 0.810468 0.990011 -0.737530
C15   C     C_3   0.957980 0.687726 0.209315 0.160037
C16   C     C_3   0.999947 0.715786 0.111095 -0.690634
C17   C     C_3   0.799385 0.529981 0.709485 0.093790
C18   C     C_3   0.764004 0.547915 0.631816 -0.827283
C19   C     C_3   0.791507 0.994802 0.782977 0.169112
C20   C     C_3   0.854351 0.035362 0.789789 -0.733164
C21   C     C_3   0.214685 0.094399 0.215307 0.114053
C22   C     C_3   0.159986 0.109562 0.154689 -0.638518
C23   C     C_3   0.171469 0.708048 0.670278 0.031250
C24   C     C_R   0.829027 0.025122 0.566167 0.930678
C25   C     C_3   0.230032 0.682096 0.730224 -0.702368
C26   C     C_3   0.885442 0.261797 0.259254 0.152048
C27   C     C_3   0.891044 0.191648 0.219991 -0.704589
C28   C     C_3   0.797186 0.774403 0.909942 0.120133
C29   C     C_3   0.874732 0.802705 0.904418 -0.743651
C30   C     C_3   0.296805 0.316226 0.833120 0.108517
C31   C     C_3   0.297287 0.253477 0.787825 -0.718620
C32   C     C_R   0.509864 0.938827 0.737587 0.308180
C33   C     C_R   0.529446 0.986295 0.285261 0.354188
C34   C     C_R   0.956451 0.737371 0.494446 0.267355
C35   C     C_R   0.920153 0.304699 0.539172 0.253230
C36   C     C_R   0.728588 0.479758 0.979661 0.312076
C37   C     C_R   0.272178 0.527962 0.016841 0.417956
C38   C     C_R   0.269635 0.022755 0.517943 0.321896
C39   C     C_R   0.972743 0.171399 0.434766 0.912419
C40   C     C_R   0.699316 0.057068 0.467514 0.334677
C41   C     C_R   0.523623 0.271291 0.011748 0.323845
C42   C     C_R   0.462198 0.699427 0.079787 0.318639
C43   C     C_R   0.035060 0.500236 0.272609 0.311590
C44   C     C_R   0.993832 0.473957 0.721131 0.367473
C45   C     C_R   0.549890 0.996265 0.556801 -0.076859
C46   C     C_R   0.448713 0.989237 0.459865 -0.088609
C47   C     C_R   0.989397 0.557474 0.547148 -0.103388
C48   C     C_R   0.975048 0.459593 0.451879 -0.088137
C49   C     C_R   0.545357 0.542805 0.025700 -0.058724
C50   C     C_R   0.832075 0.569326 0.013731 0.831037
C51   C     C_R   0.446875 0.445569 0.016384 -0.077846
C52   C     C_R   0.582077 0.010639 0.464421 -0.058731
C53   C     C_R   0.409755 0.985631 0.551185 -0.028876
C54   C     C_R   0.972869 0.474266 0.589611 -0.046844
C55   C     C_R   0.990442 0.545600 0.406476 -0.050639
C56   C     C_R   0.452154 0.577714 0.042443 -0.068112
C57   C     C_R   0.538947 0.409446 0.003624 -0.070714
C58   C     C_R   0.531794 0.005000 0.417245 -0.055488
C59   C     C_R   0.465004 0.980313 0.602544 -0.044896
C60   C     C_R   0.403019 0.526213 0.040583 -0.101044
C61   C     C_R   0.170284 0.433552 0.978842 0.850944
C62   C     C_R   0.588193 0.456705 0.011266 -0.099470
C63   C     C_R   0.963054 0.425284 0.543623 -0.022447
C64   C     C_R   0.987257 0.599703 0.457664 -0.024421
C65   C     C_R   0.444668 0.957005 0.696665 0.384944
C66   C     C_R   0.554471 0.028460 0.324882 0.477332
C67   C     C_R   0.975435 0.694063 0.430243 0.399118
C68   C     C_R   0.943280 0.341961 0.585940 0.428056
C69   C     C_R   0.679583 0.421944 0.004956 0.396021
C70   C     C_R   0.310235 0.548662 0.064474 0.449876
C71   C     C_R   0.316669 0.994493 0.580448 0.398865
C72   C     C_R   0.569909 0.013794 0.832280 0.841573
C73   C     C_R   0.663754 0.031772 0.422196 0.404796
C74   C     C_R   0.576319 0.325931 0.984381 0.423003
C75   C     C_R   0.412811 0.662193 0.061483 0.375046
C76   C     C_R   0.014258 0.566780 0.312551 0.393162
C77   C     C_R   0.948696 0.452617 0.681057 0.546659
C78   C     C_R   0.576844 0.980156 0.695458 -0.107467
C79   C     C_R   0.442469 0.980542 0.318912 -0.091167
C80   C     C_R   0.991750 0.692973 0.566421 -0.075926
C81   C     C_R   0.949038 0.326393 0.447599 -0.056904
C82   C     C_R   0.689847 0.561716 0.001844 -0.131243
C83   C     C_R   0.432792 0.980161 0.170149 0.871147
C84   C     C_R   0.310252 0.443216 0.998100 -0.068825
C85   C     C_R   0.309700 0.997472 0.439651 -0.112684
C86   C     C_R   0.679418 0.029351 0.558888 -0.066360
C87   C     C_R   0.436928 0.309667 0.002998 -0.119779
C88   C     C_R   0.554558 0.675761 0.046963 -0.081609
C89   C     C_R   0.994982 0.433191 0.312844 -0.111642
C90   C     C_R   0.007931 0.558583 0.685389 -0.122209
C91   C     C_R   0.615364 0.005322 0.741019 -0.183998
C92   C     C_R   0.393658 0.979665 0.265778 -0.165857
C93   C     C_R   0.016049 0.735909 0.608208 -0.190423
C94   C     C_R   0.432168 0.170005 0.980872 0.829589
C95   C     C_R   0.958979 0.269772 0.397377 -0.155283
C96   C     C_R   0.739471 0.610120 0.007399 -0.187646
C97   C     C_R   0.265956 0.398513 0.976760 -0.184555
C98   C     C_R   0.261258 0.990609 0.390723 -0.175998
C99   C     C_R   0.732896 0.030533 0.606471 -0.109904
C100  C     C_R   0.392895 0.265199 0.983190 -0.175129
C101  C     C_R   0.605985 0.732338 0.031822 -0.127088
C102  C     C_R   0.981638 0.389862 0.263840 -0.144888
C103  C     C_R   0.026196 0.602355 0.732560 -0.156806
C104  C     C_R   0.696679 0.026570 0.696979 0.344184
C105  C     C_R   0.566371 0.829207 0.024862 0.904225
C106  C     C_R   0.301973 0.989181 0.302074 0.372457
C107  C     C_R   0.040946 0.686427 0.687574 0.364926
C108  C     C_R   0.966944 0.306187 0.306123 0.318055
C109  C     C_R   0.698735 0.698871 0.010518 0.360838
C110  C     C_R   0.311982 0.313693 0.961793 0.338101
C111  C     C_R   0.602349 0.001494 0.603738 -0.034889
C112  C     C_R   0.400332 0.986743 0.406823 -0.052082
C113  C     C_R   0.999059 0.602673 0.598701 -0.054459
C114  C     C_R   0.971791 0.406837 0.404366 -0.032657
C115  C     C_R   0.596577 0.593650 0.024765 -0.034126
C116  C     C_R   0.982633 0.431191 0.169121 0.846674
C117  C     C_R   0.397643 0.399281 0.005500 -0.064695
C118  C     C_3   0.320976 0.032362 0.779817 0.146340
C119  C     C_3   0.242404 0.022061 0.858798 -0.777626
C120  C     C_3   0.497791 0.182265 0.303294 0.090493
C121  C     C_3   0.526878 0.231801 0.341577 -0.745853
C122  C     C_3   0.023072 0.806250 0.316578 0.132870
C123  C     C_3   0.053852 0.833184 0.216951 -0.787864
C124  C     C_3   0.991795 0.212091 0.690196 0.083080
C125  C     C_3   0.073202 0.204238 0.713530 -0.712801
C126  C     C_3   0.704066 0.287818 0.105032 0.092273
Cl1   Cl    Cl    0.512840 0.852240 0.835175 -0.666552
Cl2   Cl    Cl    0.406153 0.759241 0.160778 -0.581275
Cl3   Cl    Cl    0.130192 0.486356 0.186008 -0.650216
Cl4   Cl    Cl    0.081957 0.383872 0.753860 -0.662368
Cl5   Cl    Cl    0.613280 0.894138 0.252641 -0.608745
Cl6   Cl    Cl    0.860581 0.828634 0.502712 -0.694514
Cl7   Cl    Cl    0.839562 0.246734 0.596233 -0.644541
Cl8   Cl    Cl    0.828092 0.453922 0.898977 -0.570757
Cl9   Cl    Cl    0.226708 0.623640 0.941181 -0.694973
Cl10  Cl    Cl    0.180011 0.120517 0.521985 -0.666688
Cl11  Cl    Cl    0.739603 0.149472 0.410377 -0.681714
Cl12  Cl    Cl    0.551137 0.176786 0.097230 -0.628758
Cu1   Cu    Cu3+1 0.995180 0.995180 0.424630 0.985097
Cu2   Cu    Cu3+1 0.004820 0.004820 0.575370 0.958345
Cu3   Cu    Cu3+1 0.995180 0.424630 0.995180 1.080986
Cu4   Cu    Cu3+1 0.004820 0.575370 0.004820 1.002642
Cu5   Cu    Cu3+1 0.424630 0.995180 0.995180 1.030456
Cu6   Cu    Cu3+1 0.575370 0.004820 0.004820 1.081353
H1    H     H_    0.297642 0.088440 0.725596 0.170976
H2    H     H_    0.532295 0.193868 0.409176 0.248396
H3    H     H_    0.083683 0.776156 0.341070 0.133173
H4    H     H_    0.983232 0.867773 0.338325 0.178224
H5    H     H_    0.996592 0.862373 0.188381 0.229465
H6    H     H_    0.089330 0.883795 0.195370 0.204935
H7    H     H_    0.100140 0.774714 0.192586 0.301848
H8    H     H_    0.013337 0.181618 0.635050 0.200602
H9    H     H_    0.952872 0.171628 0.747116 0.159246
H10   H     H_    0.053141 0.221914 0.776309 0.275153
H11   H     H_    0.116883 0.134898 0.721637 0.236859
H12   H     H_    0.365225 0.050855 0.800039 0.138768
H13   H     H_    0.110498 0.248920 0.660411 0.280451
H14   H     H_    0.631583 0.298144 0.132955 0.155145
H15   H     H_    0.728631 0.310192 0.143256 0.118120
H16   H     H_    0.821008 0.175296 0.091813 0.214083
H17   H     H_    0.728204 0.152333 0.183389 0.271701
H18   H     H_    0.727823 0.166061 0.073071 0.298972
H19   H     H_    0.355095 0.529460 0.200519 0.113120
H20   H     H_    0.267681 0.479127 0.239790 0.161329
H21   H     H_    0.164444 0.609689 0.294942 0.271781
H22   H     H_    0.260759 0.565614 0.335527 0.180417
H23   H     H_    0.205948 0.086704 0.875247 0.199485
H24   H     H_    0.249261 0.665578 0.246463 0.288456
H25   H     H_    0.255648 0.870053 0.755677 0.189354
H26   H     H_    0.249645 0.876601 0.650746 0.100682
H27   H     H_    0.102378 0.997785 0.674054 0.282580
H28   H     H_    0.103023 0.890789 0.751447 0.223074
H29   H     H_    0.108293 0.978476 0.783641 0.211587
H30   H     H_    0.735834 0.902899 0.355322 0.181446
H31   H     H_    0.822420 0.945291 0.348622 0.194757
H32   H     H_    0.846347 0.007533 0.193002 0.215519
H33   H     H_    0.840350 0.896850 0.215614 0.209785
H34   H     H_    0.196863 0.000034 0.844535 0.252724
H35   H     H_    0.747258 0.990709 0.193186 0.299659
H36   H     H_    0.662902 0.417008 0.838082 0.161986
H37   H     H_    0.610144 0.349843 0.823295 0.124123
H38   H     H_    0.752009 0.238201 0.791169 0.242784
H39   H     H_    0.758877 0.346576 0.720460 0.238658
H40   H     H_    0.806771 0.297835 0.813091 0.305691
H41   H     H_    0.342330 0.724379 0.934872 0.172245
H42   H     H_    0.351014 0.815074 0.961359 0.190169
H43   H     H_    0.193060 0.858973 0.029698 0.225203
H44   H     H_    0.208576 0.845566 0.923346 0.207412
H45   H     H_    0.265745 0.973065 0.916173 0.237570
H46   H     H_    0.180588 0.761201 0.021893 0.298667
H47   H     H_    0.911511 0.747697 0.230475 0.181306
H48   H     H_    0.916063 0.645511 0.220128 0.114873
H49   H     H_    0.050190 0.658172 0.087955 0.310296
H50   H     H_    0.948156 0.743289 0.075265 0.181482
H51   H     H_    0.031436 0.767961 0.095622 0.212351
H52   H     H_    0.822728 0.586361 0.701691 0.143730
H53   H     H_    0.742218 0.529658 0.768323 0.193554
H54   H     H_    0.753514 0.487336 0.631410 0.256218
H55   H     H_    0.699924 0.600910 0.636715 0.228938
H56   H     H_    0.437605 0.163728 0.350037 0.123013
H57   H     H_    0.809822 0.571625 0.568742 0.250125
H58   H     H_    0.829136 0.937475 0.753933 0.116772
H59   H     H_    0.758728 0.966757 0.851128 0.162839
H60   H     H_    0.817864 0.079477 0.834499 0.226197
H61   H     H_    0.908365 0.982077 0.816732 0.169765
H62   H     H_    0.884287 0.074922 0.725026 0.287565
H63   H     H_    0.268003 0.127254 0.176757 0.117557
H64   H     H_    0.170891 0.126677 0.269109 0.149613
H65   H     H_    0.105055 0.079058 0.191591 0.231528
H66   H     H_    0.131886 0.182010 0.127799 0.226702
H67   H     H_    0.476240 0.230254 0.244682 0.193985
H68   H     H_    0.202099 0.079400 0.099325 0.235673
H69   H     H_    0.178024 0.772140 0.621699 0.159371
H70   H     H_    0.197655 0.655913 0.633947 0.126551
H71   H     H_    0.228984 0.615283 0.775540 0.270672
H72   H     H_    0.298981 0.679801 0.690654 0.188489
H73   H     H_    0.206085 0.731508 0.768568 0.271963
H74   H     H_    0.852857 0.328338 0.221271 0.132220
H75   H     H_    0.843571 0.251116 0.327748 0.194742
H76   H     H_    0.823668 0.190967 0.228701 0.230768
H77   H     H_    0.925525 0.206705 0.148935 0.222270
H78   H     H_    0.591514 0.242814 0.299927 0.271787
H79   H     H_    0.927342 0.124742 0.253714 0.256277
H80   H     H_    0.752624 0.829302 0.871839 0.109370
H81   H     H_    0.824785 0.718581 0.878476 0.118264
H82   H     H_    0.919914 0.748501 0.941807 0.278920
H83   H     H_    0.913887 0.819872 0.835276 0.207735
H84   H     H_    0.850619 0.859847 0.932969 0.217288
H85   H     H_    0.362682 0.329177 0.804891 0.108345
H86   H     H_    0.244915 0.379960 0.817835 0.171130
H87   H     H_    0.234527 0.235247 0.816212 0.275040
H88   H     H_    0.305110 0.285872 0.716508 0.212600
H89   H     H_    0.477108 0.297309 0.344628 0.191433
H90   H     H_    0.353521 0.192621 0.796678 0.216367
O1    O     O_R   0.124540 0.978640 0.385460 -0.552086
O2    O     O_R   0.124540 0.385460 0.978640 -0.541402
O3    O     O_R   0.021360 0.875460 0.614540 -0.575449
O4    O     O_R   0.978640 0.124540 0.385460 -0.559913
O5    O     O_R   0.013780 0.867370 0.487190 -0.587998
O6    O     O_R   0.986220 0.132630 0.512810 -0.547372
O7    O     O_R   0.867370 0.487190 0.013780 -0.552099
O8    O     O_R   0.132630 0.512810 0.986220 -0.524112
O9    O     O_R   0.487190 0.013780 0.867370 -0.587921
O10   O     O_R   0.512810 0.986220 0.132630 -0.521708
O11   O     O_R   0.512810 0.132630 0.986220 -0.542577
O12   O     O_R   0.875460 0.021360 0.614540 -0.574859
O13   O     O_R   0.487190 0.867370 0.013780 -0.529610
O14   O     O_R   0.986220 0.512810 0.132630 -0.578276
O15   O     O_R   0.013780 0.487190 0.867370 -0.514100
O16   O     O_R   0.132630 0.986220 0.512810 -0.578852
O17   O     O_R   0.867370 0.013780 0.487190 -0.533181
O18   O     O_3   0.363090 0.952404 0.752534 -0.536976
O19   O     O_3   0.569651 0.110272 0.276601 -0.517304
O20   O     O_3   0.970758 0.746879 0.346511 -0.556604
O21   O     O_3   0.938406 0.301831 0.674585 -0.559113
O22   O     O_3   0.725475 0.333089 0.015487 -0.496028
O23   O     O_R   0.978640 0.385460 0.124540 -0.562715
O24   O     O_3   0.255701 0.589517 0.131330 -0.490923
O25   O     O_3   0.266072 0.989800 0.665629 -0.546068
O26   O     O_3   0.703805 0.040449 0.333736 -0.549891
O27   O     O_3   0.660462 0.297475 0.933642 -0.526440
O28   O     O_3   0.325032 0.708455 0.067577 -0.530913
O29   O     O_3   0.023810 0.647722 0.256864 -0.529478
O30   O     O_3   0.863765 0.445505 0.724640 -0.531122
O31   O     O_3   0.730652 0.061832 0.735908 -0.527914
O32   O     O_3   0.250336 0.001823 0.249048 -0.538060
O33   O     O_3   0.082320 0.718470 0.720820 -0.550887
O34   O     O_R   0.021360 0.614540 0.875460 -0.557058
O35   O     O_3   0.971778 0.255502 0.255641 -0.570433
O36   O     O_3   0.749643 0.751652 0.999177 -0.538270
O37   O     O_3   0.278208 0.277345 0.924932 -0.552227
O38   O     O_R   0.385460 0.124540 0.978640 -0.559373
O39   O     O_R   0.614540 0.875460 0.021360 -0.541644
O40   O     O_R   0.614540 0.021360 0.875460 -0.584289
O41   O     O_R   0.385460 0.978640 0.124540 -0.524826
O42   O     O_R   0.875460 0.614540 0.021360 -0.567540

loop_
_geom_bond_atom_site_label_1
_geom_bond_atom_site_label_2
_ccdc_geom_bond_type
C48   C55   A    
C15   H48   S    
C123  H5    S    
C100  C110  A    
C97   C110  A    
C77   O30   S    
C7    H27   S    
C89   C102  A    
C26   H74   S    
C24   C99   S    
Cu3   O15   S    
C25   H73   S    
C19   C20   S    
C20   H62   S    
C91   C104  A    
C85   C112  A    
C35   Cl7   S    
C88   C101  A    
C53   C59   A    
C73   O26   S    
C9    H33   S    
C57   C62   A    
C126  H15   S    
C1    O5    A    
C13   O16   A    
C42   C75   A    
C43   C89   A    
Cu1   O17   S    
C79   C112  A    
C72   O40   A    
C84   C97   A    
C29   H82   S    
C32   Cl1   S    
C28   C29   S    
C82   C96   A    
Cu4   O34   S    
C82   C115  A    
C87   C117  A    
C46   C112  A    
C17   H53   S    
C23   H69   S    
C110  O37   S    
C81   C95   A    
C8    H30   S    
C5    H24   S    
C5    H22   S    
C54   C63   A    
C71   O25   S    
Cu5   Cu6   S    
C22   H65   S    
Cu6   O10   S    
Cu2   O6    S    
C14   H44   S    
C40   C73   A    
C9    H32   S    
Cu6   O40   S    
C33   Cl5   S    
C98   C106  A    
C90   C113  A    
C40   C86   A    
C13   C98   S    
C101  C109  A    
C118  C119  S    
C105  O13   A    
C16   H49   S    
C61   O2    A    
C3    H18   S    
C34   C80   A    
C41   C74   A    
C120  O19   S    
C24   O12   A    
C58   C66   A    
C116  O14   A    
C36   C82   A    
C84   C117  A    
C31   H87   S    
C81   C114  A    
C18   H54   S    
C86   C111  A    
C125  H10   S    
C121  H78   S    
C4    H20   S    
C37   C84   A    
C118  H12   S    
C78   C111  A    
C51   C57   A    
C119  H34   S    
C38   Cl10  S    
C79   C92   A    
C9    H35   S    
C42   Cl2   S    
C19   O31   S    
C54   C77   A    
C50   O7    A    
C120  H67   S    
C99   C104  A    
C124  H8    S    
C123  H6    S    
C94   O38   A    
C27   H76   S    
C56   C75   A    
C124  H9    S    
C46   C58   A    
Cu1   O4    S    
Cu5   O41   S    
C72   O9    A    
C60   C70   A    
C11   H38   S    
C20   H61   S    
C124  O21   S    
C83   O41   A    
C19   H59   S    
C39   O6    A    
C43   C76   A    
C33   C66   A    
C126  H14   S    
C55   C64   A    
C101  C105  S    
C41   C87   A    
C31   H90   S    
C123  H7    S    
C3    C126  S    
C27   H77   S    
C15   C16   S    
C30   O37   S    
C38   C85   A    
Cu1   O5    S    
Cu5   O38   S    
C64   C67   A    
C21   H63   S    
C43   Cl3   S    
Cu2   O16   S    
C104  O31   S    
C20   H60   S    
C52   C73   A    
C10   C11   S    
C2    O15   A    
C47   C64   A    
C72   C91   S    
C8    C9    S    
C48   C63   A    
C45   C52   A    
C1    O3    A    
Cu4   O8    S    
C32   C78   A    
C83   O10   A    
C19   H58   S    
Cu3   O7    S    
C56   C60   A    
C62   C69   A    
C22   H68   S    
Cu6   O39   S    
C14   H46   S    
C57   C74   A    
C8    O26   S    
C8    H31   S    
C109  O36   S    
C83   C92   S    
C26   O35   S    
C108  O35   S    
C94   C100  S    
C66   O19   S    
C25   H71   S    
C28   H80   S    
C51   C117  A    
C2    O34   A    
C31   H88   S    
C7    H28   S    
C37   Cl9   S    
C17   C18   S    
C85   C98   A    
C4    H19   S    
C11   H39   S    
C12   O28   S    
C122  H3    S    
C102  C108  A    
C86   C99   A    
C39   C95   S    
C41   Cl12  S    
C7    H29   S    
C52   C58   A    
C21   O32   S    
C40   Cl11  S    
C55   C76   A    
C92   C106  A    
C49   C115  A    
C76   O29   S    
C12   C14   S    
Cu4   O14   S    
C47   C54   A    
Cu1   O1    S    
C3    H16   S    
Cu2   O12   S    
Cu5   O9    S    
C42   C88   A    
C29   H83   S    
C28   O36   S    
Cu4   O42   S    
C44   C90   A    
C120  C121  S    
C30   H85   S    
C48   C114  A    
C87   C100  A    
C6    H26   S    
C67   O20   S    
C61   O8    A    
C47   C113  A    
C15   H47   S    
C38   C71   A    
C45   C59   A    
C4    O24   S    
C49   C62   A    
C26   H75   S    
C32   C65   A    
C27   H79   S    
C118  H1    S    
C24   O17   A    
Cu6   O11   S    
C11   H40   S    
C119  H45   S    
C33   C79   A    
C4    C5    S    
C36   Cl8   S    
C34   C67   A    
C122  O20   S    
C126  O22   S    
Cu1   Cu2   S    
C45   C111  A    
C122  C123  S    
C6    C7    S    
C78   C91   A    
C28   H81   S    
C44   C77   A    
C96   C109  A    
C63   C68   A    
C121  H89   S    
C35   C81   A    
C10   O27   S    
C13   O1    A    
C12   H42   S    
C37   C70   A    
C30   H86   S    
C88   C115  A    
C106  O32   S    
C89   C114  A    
C10   H36   S    
C49   C56   A    
C118  O18   S    
Cu3   Cu4   S    
C93   C107  A    
C107  O33   S    
C14   H43   S    
C68   O21   S    
C50   C96   S    
C30   C31   S    
C21   H64   S    
C35   C68   A    
C17   O30   S    
Cu3   O2    S    
C12   H41   S    
C22   H66   S    
C46   C53   A    
C23   O33   S    
Cu2   O3    S    
C120  H56   S    
Cu5   O13   S    
C16   H50   S    
C18   H57   S    
C125  H13   S    
C5    H21   S    
C23   C25   S    
C102  C116  S    
C119  H23   S    
C36   C69   A    
C94   O11   A    
C2    C103  S    
C90   C103  A    
C75   O28   S    
C15   O29   S    
C95   C108  A    
C3    H17   S    
C34   Cl6   S    
C122  H4    S    
C25   H72   S    
C74   O27   S    
C70   O24   S    
C105  O39   A    
C80   C113  A    
C69   O22   S    
C1    C93   S    
C65   O18   S    
C50   O42   A    
C18   H55   S    
C16   H51   S    
C10   H37   S    
Cu3   O23   S    
C121  H2    S    
C6    O25   S    
C17   H52   S    
C103  C107  A    
C51   C60   A    
C29   H84   S    
C80   C93   A    
C21   C22   S    
C26   C27   S    
C44   Cl4   S    
C6    H25   S    
C39   O4    A    
C59   C65   A    
C116  O23   A    
C125  H11   S    
C61   C97   S    
C124  C125  S    
C23   H70   S    
C53   C71   A    
