data_mof_unit_26286.cif
_audit_creation_date              2013-03-05T15:55:25-0500
_audit_creation_method            fapswitch 2.2
_symmetry_space_group_name_H-M    P1
_symmetry_Int_Tables_number       1
_space_group_crystal_system       triclinic
_cell_length_a                    8.292322
_cell_length_b                    16.398648
_cell_length_c                    18.836275
_cell_angle_alpha                 96.140954
_cell_angle_beta                  93.739047
_cell_angle_gamma                 93.157385
_cell_volume                      2536.31608155

loop_
_atom_site_label
_atom_site_type_symbol
_atom_site_description
_atom_site_fract_x
_atom_site_fract_y
_atom_site_fract_z
_atom_type_partial_charge
P1    P     P_3+3 0.048660 0.430750 0.339650 0.480245
O1    O     O_2   0.875590 0.454550 0.328720 -0.394038
O2    O     O_3   0.127960 0.455900 0.416100 -0.332868
O3    O     O_3   0.634460 0.601950 0.371690 -0.301341
O4    O     O_2   0.776938 0.570693 0.248560 -0.423075
O5    O     O_3   0.047669 0.324165 0.342587 -0.575959
O6    O     O_3   0.545617 0.676195 0.240190 -0.643847
H1    H     H_    0.774143 0.732325 0.274602 0.098316
C1    C     C_3   0.648964 0.801366 0.196606 -0.232734
H2    H     H_    0.718502 0.773540 0.152894 0.079918
P2    P     P_3+3 0.638170 0.686040 0.555200 0.478612
P3    P     P_3+3 0.069570 0.751135 0.409301 0.498750
O7    O     O_2   0.810360 0.697790 0.534100 -0.349747
O8    O     O_3   0.049190 0.643760 0.407000 -0.364327
O9    O     O_2   0.922227 0.786047 0.445696 -0.330464
O10   O     O_3   0.661369 0.705562 0.648656 -0.591858
O11   O     O_3   0.039681 0.773354 0.320288 -0.510210
C2    C     C_3   0.185807 0.772817 0.285296 0.543253
H3    H     H_    0.289774 0.756589 0.319931 0.100022
C3    C     C_3   0.225643 0.859395 0.264327 -0.792618
H4    H     H_    0.124931 0.880908 0.231146 0.255854
H5    H     H_    0.250321 0.904011 0.313288 0.251319
C4    C     C_3   0.212937 0.716912 0.630922 0.362241
H6    H     H_    0.342115 0.703453 0.629493 0.078027
H7    H     H_    0.147662 0.697911 0.577814 0.082974
C5    C     C_3   0.200546 0.810025 0.648891 -0.490851
H8    H     H_    0.292307 0.843705 0.620898 0.149288
H9    H     H_    0.079938 0.826524 0.627412 0.179465
Ba1   Ba    Ba6+2 0.843980 0.537940 0.465850 1.580199
C6    C     C_3   0.926687 0.276078 0.298126 0.514847
H10   H     H_    0.807934 0.302713 0.304618 0.095231
C7    C     C_3   0.963483 0.275505 0.217564 -0.543032
H11   H     H_    0.893330 0.324925 0.195783 0.154968
H12   H     H_    0.093983 0.294028 0.213140 0.208441
C8    C     C_3   0.713173 0.636340 0.678558 0.452161
H13   H     H_    0.825091 0.616714 0.655105 0.100428
H14   H     H_    0.618209 0.585277 0.669382 0.136103
C9    C     C_3   0.747284 0.659212 0.758819 -1.017781
H15   H     H_    0.842553 0.710286 0.769148 0.262293
H16   H     H_    0.788910 0.605959 0.784830 0.234410
H17   H     H_    0.635277 0.678832 0.783141 0.258152
P4    P     P_3+3 0.141040 0.569320 0.660360 0.459668
O12   O     O_2   0.314110 0.545480 0.671320 -0.366380
O13   O     O_3   0.061730 0.544170 0.583900 -0.397339
O14   O     O_3   0.555240 0.398120 0.628310 -0.362930
O15   O     O_3   0.143592 0.675413 0.683298 -0.589523
P5    P     P_3+3 0.124541 0.248628 0.592661 0.476270
O16   O     O_3   0.629280 0.402460 0.464250 -0.380989
O17   O     O_3   0.140510 0.356300 0.593010 -0.346664
O18   O     O_2   0.253643 0.212731 0.544945 -0.379352
O19   O     O_3   0.191355 0.224820 0.677461 -0.512127
Ba2   Ba    Ba6+2 0.345840 0.462130 0.534150 1.569892
P6    P     P_3+3 0.609086 0.587044 0.277347 0.485460
C10   C     C_3   0.649626 0.748327 0.261055 0.652369
H18   H     H_    0.524259 0.801088 0.171345 0.123976
O20   O     O_3   0.560420 0.597610 0.535760 -0.405408
C11   C     C_3   0.475817 0.326736 0.314141 0.409511
H19   H     H_    0.358151 0.343723 0.334366 0.125114
H20   H     H_    0.561699 0.381775 0.318568 0.087124
C12   C     C_3   0.447045 0.291578 0.235860 -1.091179
H21   H     H_    0.366231 0.234475 0.231311 0.269588
H22   H     H_    0.388238 0.336302 0.204150 0.230054
H23   H     H_    0.564159 0.276711 0.213314 0.263845
P7    P     P_3+3 0.557709 0.299708 0.443510 0.449446
O21   O     O_2   0.379340 0.302240 0.465940 -0.335801
O22   O     O_3   0.542513 0.266503 0.351970 -0.588248
H24   H     H_    0.333020 0.860576 0.232377 0.233728
C13   C     C_3   0.076838 0.247584 0.726339 0.324954
H25   H     H_    0.060236 0.314847 0.729185 0.094026
H26   H     H_    0.959718 0.211842 0.710206 0.022208
C14   C     C_3   0.139003 0.226242 0.800226 -0.497237
H27   H     H_    0.260139 0.258408 0.815344 0.239249
H28   H     H_    0.155598 0.158774 0.795835 0.186074
P8    P     P_3+3 0.583731 0.403382 0.721816 0.459466
C15   C     C_3   0.591766 0.247517 0.728904 0.437460
H29   H     H_    0.722050 0.264040 0.742727 -0.038491
O23   O     O_2   0.476992 0.470520 0.753293 -0.373970
O24   O     O_3   0.498675 0.313606 0.750207 -0.515818
H30   H     H_    0.571479 0.230754 0.670072 0.086286
C16   C     C_3   0.539122 0.173970 0.768142 -0.526104
H31   H     H_    0.422073 0.145028 0.742964 0.223898
H32   H     H_    0.519926 0.196824 0.824516 0.193689
N1    N     N_R   0.222427 0.505990 0.949964 -0.073416
N2    N     N_R   0.276534 0.505635 0.018482 -0.079587
C17   C     C_2   0.313394 0.507889 0.294456 -0.405896
C18   C     C_3   0.453749 0.501333 0.246866 0.192518
C19   C     C_2   0.395435 0.499614 0.168162 -0.218489
C20   C     C_2   0.237010 0.481020 0.145669 0.048639
C21   C     C_2   0.119168 0.467824 0.202020 -0.320954
C22   C     C_1   0.169796 0.473068 0.271257 0.264339
N3    N     N_R   0.027178 0.446840 0.043678 -0.090157
N4    N     N_R   0.973216 0.447146 0.975228 -0.085245
C23   C     C_R   0.068793 0.477237 0.926604 0.138119
C24   C     C_R   0.180130 0.476327 0.067232 0.128736
C25   C     C_R   0.097935 0.513998 0.798715 -0.237617
C26   C     C_R   0.039082 0.510244 0.725923 0.347885
C27   C     C_R   0.795392 0.434958 0.752909 0.200025
C28   C     C_R   0.852120 0.438856 0.825229 -0.300774
C29   C     C_R   0.006922 0.476219 0.849196 0.032988
C30   C     C_R   0.892736 0.466646 0.703538 -0.490955
H33   H     H_    0.484937 0.508898 0.129730 0.143761
H34   H     H_    0.990274 0.459437 0.186402 0.160257
H35   H     H_    0.212426 0.547395 0.815952 0.158137
H36   H     H_    0.774449 0.413629 0.862543 0.157191
H37   H     H_    0.332446 0.539028 0.348545 0.164618
H38   H     H_    0.847047 0.464204 0.648172 0.161391
C31   C     C_R   0.362266 0.736510 0.485231 -0.421786
C32   C     C_R   0.514539 0.762084 0.518302 0.356320
C33   C     C_R   0.568970 0.845021 0.524463 -0.235270
C34   C     C_R   0.471514 0.903079 0.495367 0.233709
C35   C     C_R   0.316196 0.876246 0.463098 -0.270184
C36   C     C_R   0.262474 0.792750 0.457619 0.183214
C37   C     C_R   0.619008 0.147200 0.489318 -0.249574
C38   C     C_R   0.668754 0.230335 0.494554 0.278078
C39   C     C_R   0.720807 0.090697 0.517876 0.160448
N5    N     N_2   0.524606 0.987814 0.496795 -0.070558
N6    N     N_2   0.671000 0.005351 0.516356 -0.062232
C40   C     C_R   0.816955 0.259040 0.529334 -0.440595
H39   H     H_    0.503291 0.126860 0.461167 0.162782
H40   H     H_    0.239339 0.919811 0.440903 0.140228
C41   C     C_R   0.922601 0.204717 0.555836 0.204465
C42   C     C_R   0.876168 0.120055 0.549175 -0.337870
H41   H     H_    0.687384 0.863336 0.550713 0.135093
H42   H     H_    0.958638 0.077612 0.569341 0.162648
H43   H     H_    0.322925 0.671982 0.479812 0.154330
H44   H     H_    0.854412 0.323613 0.531703 0.175323
C43   C     C_3   0.217915 0.840082 0.729709 -0.224109
C44   C     C_3   0.372893 0.815574 0.769482 -0.221100
C45   C     C_3   0.524240 0.862791 0.750270 -0.875745
H45   H     H_    0.540131 0.852092 0.692048 0.277202
H46   H     H_    0.514965 0.929280 0.766198 0.246486
H47   H     H_    0.632350 0.842395 0.779820 0.252227
H48   H     H_    0.361838 0.829352 0.827984 0.164214
H49   H     H_    0.387311 0.748621 0.759041 0.223953
H50   H     H_    0.111505 0.814934 0.755178 0.177604
H51   H     H_    0.213166 0.908106 0.736856 0.162788
C46   C     C_3   0.914450 0.190456 0.327620 -0.410551
C47   C     C_3   0.075989 0.166176 0.362979 -0.202182
C48   C     C_3   0.072358 0.075011 0.373366 -0.850224
H52   H     H_    0.188797 0.061500 0.401236 0.239622
H53   H     H_    0.056923 0.036989 0.320618 0.289112
H54   H     H_    0.971292 0.058699 0.406137 0.280124
H55   H     H_    0.099451 0.202479 0.416363 0.243053
H56   H     H_    0.179102 0.180979 0.330866 0.208046
H57   H     H_    0.827262 0.193848 0.369928 0.175058
H58   H     H_    0.862552 0.140081 0.287539 0.215787
C49   C     C_3   0.915192 0.195887 0.166951 -0.348914
C50   C     C_3   0.054532 0.137282 0.162693 -0.235677
C51   C     C_3   0.995720 0.049872 0.131034 -0.847938
H59   H     H_    0.904973 0.023690 0.164533 0.305704
H60   H     H_    0.941108 0.049657 0.075363 0.247665
H61   H     H_    0.100157 0.010161 0.130247 0.246893
H62   H     H_    0.147425 0.161776 0.129036 0.195588
H63   H     H_    0.114977 0.133774 0.216542 0.213275
H64   H     H_    0.800100 0.165477 0.180770 0.210272
H65   H     H_    0.887984 0.213696 0.112395 0.194894
N7    N     N_R   0.714232 0.886541 0.217226 0.278111
O25   O     O_R   0.847454 0.901419 0.258213 -0.391523
O26   O     O_R   0.629420 0.947703 0.201664 -0.389769
N8    N     N_R   0.593871 0.792548 0.326216 0.226800
O27   O     O_R   0.562050 0.869812 0.332404 -0.387610
O28   O     O_R   0.568928 0.751046 0.380125 -0.408551
C52   C     C_3   0.026176 0.251664 0.859319 -0.396427
C53   C     C_3   0.010561 0.186534 0.911662 -0.227672
C54   C     C_3   0.874832 0.204151 0.960781 -0.941786
H66   H     H_    0.904161 0.262865 0.995524 0.269620
H67   H     H_    0.758297 0.208024 0.928977 0.262366
H68   H     H_    0.860102 0.153139 0.994480 0.250063
H69   H     H_    0.983197 0.124527 0.881894 0.193654
H70   H     H_    0.126764 0.185477 0.944468 0.201547
H71   H     H_    0.075785 0.310412 0.889587 0.216933
H72   H     H_    0.904635 0.263034 0.835974 0.197697
C55   C     C_3   0.664738 0.108875 0.770325 -0.446070
C56   C     C_3   0.679056 0.060722 0.697262 -0.196272
C57   C     C_3   0.822431 0.006069 0.698994 -0.962576
H73   H     H_    0.937870 0.044563 0.708763 0.258568
H74   H     H_    0.813725 0.964991 0.741911 0.270207
H75   H     H_    0.824102 0.967611 0.646935 0.255177
H76   H     H_    0.565432 0.022655 0.680162 0.199752
H77   H     H_    0.697665 0.104685 0.657794 0.197970
H78   H     H_    0.783894 0.138760 0.790252 0.227621
H79   H     H_    0.629666 0.065536 0.808948 0.209575
C58   C     C_3   0.171713 0.706912 0.219174 -0.409168
C59   C     C_3   0.030518 0.716536 0.164852 -0.230663
C60   C     C_3   0.027329 0.654969 0.098363 -0.896717
H80   H     H_    0.147029 0.655405 0.075054 0.268078
H81   H     H_    0.991520 0.593190 0.113065 0.277055
H82   H     H_    0.934416 0.670551 0.057518 0.247504
H83   H     H_    0.918395 0.702952 0.190199 0.221223
H84   H     H_    0.033830 0.779424 0.147829 0.204343
H85   H     H_    0.285618 0.709030 0.191131 0.204460
H86   H     H_    0.156132 0.645221 0.238621 0.202705

loop_
_geom_bond_atom_site_label_1
_geom_bond_atom_site_label_2
_geom_bond_distance
_ccdc_geom_bond_type
C9    H16   1.106577 S    
C19   C20   1.361601 D    
C54   H66   1.110447 S    
C34   N5    1.431234 S    
C21   H34   1.087201 S    
C48   H53   1.111045 S    
C31   C36   1.391552 A    
C3    H24   1.107185 S    
C53   H70   1.112262 S    
C25   C26   1.418923 A    
Ba2   O21   2.829974 S    
C49   C50   1.543708 S    
C11   O22   1.395935 S    
C15   H29   1.106506 S    
C58   H86   1.115962 S    
C27   C28   1.405534 A    
C11   H19   1.109279 S    
C57   H74   1.109618 S    
C7    C49   1.549265 S    
C55   C56   1.526693 S    
N5    N6    1.254061 D    
C5    H8    1.109230 S    
P1    C22   1.852974 S    
C50   H63   1.110291 S    
C12   H23   1.113834 S    
P4    C26   1.865575 S    
O7    Ba1   2.829846 S    
C53   C54   1.523391 S    
C8    H14   1.108972 S    
C43   H50   1.111885 S    
C16   C55   1.533791 S    
C2    H3    1.108502 S    
C47   H55   1.112230 S    
C51   H60   1.114372 S    
O10   C8    1.396167 S    
C6    H10   1.107745 S    
O3    P6    1.764834 S    
C48   H54   1.110440 S    
C25   C29   1.423270 A    
O12   Ba2   2.825956 S    
C60   H81   1.108521 S    
N1    C23   1.362091 A    
C32   C33   1.399545 A    
C12   H22   1.107968 S    
P1    O1    1.514836 D    
P4    O15   1.745823 S    
C4    C5    1.538796 S    
O2    Ba1   2.932664 S    
C56   C57   1.528515 S    
C37   C38   1.393717 A    
O16   P7    1.750095 S    
C39   C42   1.418090 A    
C19   H33   1.085940 S    
N7    O25   1.301824 A    
C8    H13   1.102721 S    
P4    O12   1.515106 D    
C13   H25   1.115122 S    
C39   N6    1.434020 S    
P8    O23   1.543780 D    
P3    O11   1.758362 S    
C4    H6    1.106978 S    
P6    C18   1.869719 S    
C1    H18   1.109326 S    
C57   H75   1.109017 S    
C52   H71   1.109336 S    
C15   C16   1.538252 S    
C23   C29   1.511876 S    
O3    Ba1   2.731933 S    
C5    C43   1.544071 S    
C45   H47   1.110471 S    
C20   C21   1.513106 S    
O13   Ba2   2.933581 S    
P5    C41   1.847316 S    
C55   H78   1.102858 S    
C54   H67   1.111822 S    
C6    C46   1.564898 S    
C37   H39   1.083387 S    
C44   C45   1.522397 S    
C53   H69   1.111678 S    
P4    O13   1.548016 S    
C17   H37   1.087454 S    
C25   H35   1.082210 S    
P5    O18   1.543418 D    
C20   C24   1.513963 S    
P7    C38   1.816726 S    
Ba1   O16   2.765764 S    
P1    O5    1.754222 S    
C46   H58   1.105726 S    
C8    C9    1.522342 S    
C43   H51   1.112380 S    
C31   H43   1.082176 S    
C9    H17   1.110389 S    
C16   H32   1.112149 S    
C51   H61   1.111765 S    
H1    C10   1.099956 S    
N3    N4    1.337555 A    
C14   H28   1.117373 S    
C18   C19   1.525936 S    
C33   H41   1.082267 S    
C11   C12   1.523354 S    
P5    O19   1.747185 S    
O14   Ba2   2.731320 S    
C17   C18   1.516225 S    
C34   C35   1.414256 A    
C7    H11   1.120468 S    
C12   H21   1.113335 S    
P1    O2    1.547824 S    
C40   C41   1.390803 A    
C7    H12   1.118583 S    
C58   C59   1.530164 S    
C49   H65   1.110620 S    
C44   H49   1.108960 S    
P2    O10   1.751233 S    
N1    N2    1.339174 A    
P3    O9    1.546901 D    
C1    N7    1.472402 S    
C17   C22   1.318631 D    
O17   Ba2   2.733586 S    
P1    Ba1   3.403257 S    
O11   C2    1.416645 S    
N2    C24   1.364229 A    
C50   C51   1.533068 S    
C52   H72   1.106501 S    
C41   C42   1.410320 A    
C38   C40   1.387925 A    
C14   C52   1.538721 S    
C13   H26   1.113466 S    
O5    C6    1.411252 S    
C3    H5    1.114557 S    
C55   H79   1.111028 S    
C54   H68   1.109093 S    
O1    Ba1   2.825380 S    
Ba1   O13   2.760928 S    
C59   H84   1.111707 S    
C50   H62   1.113863 S    
O6    P6    1.777570 S    
C31   C32   1.393382 A    
C42   H42   1.082363 S    
C43   C44   1.539510 S    
C56   H77   1.101652 S    
P3    C36   1.846572 S    
C27   C30   1.393388 A    
C49   H64   1.111315 S    
C45   H45   1.109548 S    
C1    H2    1.108683 S    
C46   H57   1.109493 S    
P4    Ba2   3.403953 S    
C35   C36   1.407285 A    
C30   H38   1.081946 S    
N8    O28   1.302628 A    
P3    O8    1.755226 S    
C16   H31   1.110538 S    
C60   H82   1.112329 S    
C58   H85   1.112551 S    
C48   H52   1.113242 S    
Ba1   O20   2.932936 S    
P5    O17   1.762621 S    
C40   H44   1.082404 S    
C46   C47   1.547776 S    
C5    H9    1.112470 S    
N8    O27   1.302996 A    
O4    P6    1.552964 D    
C14   H27   1.113791 S    
C57   H73   1.110984 S    
C47   H56   1.109922 S    
C44   H48   1.111727 S    
O2    Ba2   2.761575 S    
N3    C24   1.361049 A    
C6    C7    1.566408 S    
P2    O7    1.514581 D    
C60   H80   1.111212 S    
C9    H15   1.111598 S    
O14   P8    1.753964 S    
C2    C58   1.553068 S    
C13   C14   1.534835 S    
C28   H36   1.082529 S    
C26   C30   1.390986 A    
P7    O21   1.566035 D    
N4    C23   1.363379 A    
C2    C3    1.538239 S    
O19   C13   1.402968 S    
C4    H7    1.111265 S    
C15   O24   1.403922 S    
C52   C53   1.535015 S    
C11   H20   1.110889 S    
C47   C48   1.527272 S    
P2    O20   1.550888 S    
C10   N8    1.471942 S    
O16   Ba2   2.932005 S    
C3    H4    1.106387 S    
P2    Ba1   3.405904 S    
N7    O26   1.303914 A    
C28   C29   1.416197 A    
P8    O24   1.747594 S    
C33   C34   1.413692 A    
P2    C32   1.822754 S    
C4    O15   1.393417 S    
C59   H83   1.095394 S    
C35   H40   1.081964 S    
C59   C60   1.520113 S    
C1    C10   1.567116 S    
O8    Ba1   2.732774 S    
O6    C10   1.428790 S    
C45   H46   1.107699 S    
C21   C22   1.336071 D    
C51   H59   1.110435 S    
C15   H30   1.112348 S    
C56   H76   1.110762 S    
P8    C27   1.841927 S    
Ba2   O20   2.765149 S    
P7    O22   1.746048 S    
C37   C39   1.412107 A    
Ba1   Ba2   4.553375 S    
