data_mof_unit_19068.cif
_audit_creation_date              2012-12-11T14:39:38-0500
_audit_creation_method            fapswitch 2.2
_symmetry_space_group_name_H-M    P1
_symmetry_Int_Tables_number       1
_space_group_crystal_system       triclinic
_cell_length_a                    7.199014
_cell_length_b                    14.151136
_cell_length_c                    16.228817
_cell_angle_alpha                 90.000033
_cell_angle_beta                  95.944687
_cell_angle_gamma                 90.0
_cell_volume                      1644.40730329

loop_
_atom_site_label
_atom_site_type_symbol
_atom_type_description
_atom_site_fract_x
_atom_site_fract_y
_atom_site_fract_z
_atom_type_partial_charge
O1    O     O_R   0.525340 0.338340 0.164530 -0.492633
O2    O     O_R   0.474660 0.661660 0.835470 -0.503112
O3    O     O_R   0.974660 0.838340 0.835470 -0.492633
O4    O     O_R   0.025340 0.161660 0.164530 -0.503112
O5    O     O_R   0.253520 0.352000 0.336710 -0.561959
O6    O     O_R   0.746480 0.648000 0.663290 -0.560893
O7    O     O_R   0.246480 0.852000 0.663290 -0.561959
O8    O     O_R   0.753520 0.148000 0.336710 -0.560893
O9    O     O_R   0.083330 0.168380 0.337300 -0.552965
O10   O     O_R   0.916670 0.831620 0.662700 -0.530586
O11   O     O_R   0.416670 0.668380 0.662700 -0.552964
O12   O     O_R   0.583330 0.331620 0.337300 -0.530586
C1    C     C_R   0.431161 0.368724 0.363842 0.650657
C2    C     C_R   0.568835 0.631299 0.636115 0.626418
C3    C     C_R   0.068839 0.868724 0.636158 0.650659
C4    C     C_R   0.931165 0.131299 0.363885 0.626418
O13   O     O_R   0.195840 0.349670 0.165140 -0.485093
O14   O     O_R   0.804160 0.650330 0.834860 -0.528128
O15   O     O_R   0.304160 0.849670 0.834860 -0.485093
O16   O     O_R   0.695840 0.150330 0.165140 -0.528128
C5    C     C_R   0.361177 0.375935 0.140997 0.884111
C6    C     C_R   0.641353 0.631941 0.865061 0.825863
C7    C     C_R   0.138823 0.875935 0.859003 0.884112
C8    C     C_R   0.858647 0.131941 0.134939 0.825865
O17   O     O_3   0.387830 0.193120 0.250910 -0.383329
O18   O     O_3   0.612170 0.806880 0.749090 -0.332053
O19   O     O_3   0.112170 0.693120 0.749090 -0.383329
O20   O     O_3   0.887830 0.306880 0.250910 -0.332053
V1    V     V_3+5 0.113010 0.264540 0.250910 1.650576
V2    V     V_3+5 0.886990 0.735460 0.749090 1.606032
V3    V     V_3+5 0.386990 0.764540 0.749090 1.650575
V4    V     V_3+5 0.613010 0.235460 0.250910 1.606031
H1    H     H_    0.769837 0.809521 0.268724 0.161135
H2    H     H_    0.233475 0.190212 0.730944 0.164485
H3    H     H_    0.730161 0.309521 0.731276 0.161136
H4    H     H_    0.266526 0.690212 0.269056 0.164485
C9    C     C_R   0.072240 0.195130 0.527174 -0.148865
C10   C     C_R   0.927931 0.804824 0.472896 -0.159036
C11   C     C_R   0.427761 0.695130 0.472826 -0.148864
C12   C     C_R   0.572068 0.304824 0.527104 -0.159036
C13   C     C_R   0.143017 0.227673 0.605178 -0.140475
C14   C     C_R   0.858111 0.772197 0.394778 -0.098867
C15   C     C_R   0.356984 0.727673 0.394822 -0.140475
C16   C     C_R   0.641888 0.272197 0.605221 -0.098867
C17   C     C_R   0.178866 0.164542 0.670431 -0.076265
C18   C     C_R   0.823181 0.835269 0.329420 -0.112064
C19   C     C_R   0.321135 0.664542 0.329569 -0.076266
C20   C     C_R   0.676818 0.335269 0.670580 -0.112063
C21   C     C_R   0.143689 0.068455 0.658202 -0.056399
C22   C     C_R   0.857898 0.931410 0.341730 -0.154619
C23   C     C_R   0.356312 0.568455 0.341798 -0.056401
C24   C     C_R   0.642101 0.431410 0.658269 -0.154620
C25   C     C_R   0.073246 0.033245 0.579403 0.042467
C26   C     C_R   0.927221 0.966704 0.420641 0.064445
C27   C     C_R   0.426755 0.533245 0.420596 0.042467
C28   C     C_R   0.572779 0.466704 0.579359 0.064445
C29   C     C_R   0.037151 0.097691 0.512603 0.048926
C30   C     C_R   0.962945 0.902283 0.487475 0.053777
C31   C     C_R   0.462849 0.597691 0.487397 0.048926
C32   C     C_R   0.537055 0.402283 0.512525 0.053777
C33   C     C_R   0.035628 0.935788 0.566687 -0.151554
C34   C     C_R   0.964405 0.064209 0.433388 -0.154342
C35   C     C_R   0.464372 0.435788 0.433313 -0.151553
C36   C     C_R   0.535595 0.564209 0.566612 -0.154342
H5    H     H_    0.044210 0.247403 0.478855 0.116586
H6    H     H_    0.955541 0.752581 0.521267 0.111653
H7    H     H_    0.455791 0.747403 0.521145 0.116586
H8    H     H_    0.544458 0.252581 0.478733 0.111653
H9    H     H_    0.169495 0.302346 0.615078 0.136410
H10   H     H_    0.831946 0.697498 0.384838 0.154687
H11   H     H_    0.330506 0.802346 0.384922 0.136410
H12   H     H_    0.668053 0.197498 0.615162 0.154687
H13   H     H_    0.171624 0.022446 0.711265 0.128016
H14   H     H_    0.830747 0.977416 0.288618 0.101470
H15   H     H_    0.328377 0.522446 0.288735 0.128015
H16   H     H_    0.669252 0.477415 0.711383 0.101470
C37   C     C_2   0.135017 0.951376 0.922866 -0.359842
C38   C     C_2   0.860451 0.067158 0.063084 -0.416312
C39   C     C_2   0.364984 0.451377 0.077134 -0.359841
C40   C     C_2   0.639549 0.567158 0.936916 -0.416306
C41   C     C_2   0.979890 0.002408 0.937542 0.338829
C42   C     C_2   0.989109 0.071196 0.006574 0.390800
C43   C     C_2   0.520110 0.502408 0.062457 0.338828
C44   C     C_2   0.510891 0.571196 0.993425 0.390799
H17   H     H_    0.753825 0.012546 0.056701 0.137549
H18   H     H_    0.264559 0.963876 0.961971 0.162756
H19   H     H_    0.746175 0.512546 0.943298 0.137548
H20   H     H_    0.235441 0.463877 0.038030 0.162754
S1    S     S_3+6 0.143833 0.167779 0.998635 -0.008251
O21   O     O_2   0.045475 0.258969 0.013353 -0.322385
O22   O     O_2   0.311255 0.156702 0.061293 -0.358064
O23   O     O_3   0.214972 0.170167 0.903164 -0.517916
H21   H     H_    0.297041 0.226335 0.902921 0.359411
S2    S     S_3+6 0.767317 0.003135 0.871406 0.025794
O24   O     O_2   0.803900 0.999535 0.781936 -0.331464
O25   O     O_2   0.654075 0.918689 0.891506 -0.324789
O26   O     O_3   0.645859 0.102172 0.886599 -0.486987
H22   H     H_    0.559412 0.084867 0.927801 0.366388
S3    S     S_3+6 0.356167 0.667779 0.001365 -0.008253
O27   O     O_2   0.454526 0.758969 0.986647 -0.322388
O28   O     O_2   0.188745 0.656702 0.938707 -0.358062
O29   O     O_3   0.285029 0.670167 0.096836 -0.517919
H23   H     H_    0.202968 0.726337 0.097081 0.359415
S4    S     S_3+6 0.732686 0.503133 0.128592 0.025794
O30   O     O_2   0.696105 0.499534 0.218063 -0.331463
O31   O     O_2   0.845922 0.418685 0.108492 -0.324788
O32   O     O_3   0.854148 0.602168 0.113398 -0.486986
H24   H     H_    0.940596 0.584861 0.072197 0.366390

loop_
_geom_bond_atom_site_label_1
_geom_bond_atom_site_label_2
_ccdc_geom_bond_type
O1    C5    A    
C12   C32   A    
C27   C31   A    
O13   V1    S    
O3    C7    A    
C40   C44   D    
O15   V3    S    
S4    O31   D    
C41   C42   S    
C29   C34   A    
C31   C36   A    
C22   C26   A    
C42   S1    S    
C32   C35   A    
O20   V1    S    
O9    C4    A    
C23   H15   S    
C10   C14   A    
C40   H19   S    
O10   C3    A    
C22   H14   S    
O16   V4    S    
O4    C8    A    
O11   C2    A    
C14   H10   S    
H4    C19   S    
C14   C18   A    
O10   V2    S    
S4    O30   D    
C10   C30   A    
C25   C33   A    
S3    O27   D    
C9    H5    S    
O2    C6    A    
O32   H24   S    
C28   C36   A    
O14   V2    S    
C37   C41   D    
S1    O22   D    
O5    C1    A    
O4    V1    S    
O9    V1    S    
C30   C33   A    
O7    C3    A    
O11   V3    S    
O18   V3    S    
O8    C4    A    
O12   V4    S    
O19   V2    S    
H1    C18   S    
O29   H23   S    
C4    C34   S    
H3    C20   S    
C39   H20   S    
O26   H22   S    
O5    V1    S    
O7    V3    S    
C43   S4    S    
O8    V4    S    
C10   H6    S    
C25   C29   A    
C19   C23   A    
C26   C34   A    
S2    O26   S    
O1    V4    S    
O13   C5    A    
C28   C32   A    
C27   C35   A    
O2    V3    S    
O3    V2    S    
O15   C7    A    
O6    C2    A    
C38   C42   D    
C43   C44   S    
C1    C35   S    
C17   C21   A    
C11   C31   A    
C5    C39   S    
C3    C33   S    
H2    C17   S    
C7    C37   S    
S1    O23   S    
S2    O25   D    
C2    C36   S    
C38   H17   S    
C8    C38   S    
O6    V2    S    
C37   H18   S    
C21   H13   S    
C13   H9    S    
C26   C30   A    
C15   H11   S    
S3    O28   D    
O14   C6    A    
C44   S3    S    
C11   H7    S    
C24   H16   S    
C11   C15   A    
C18   C22   A    
C6    C40   S    
C39   C43   D    
C41   S2    S    
O17   V4    S    
C21   C25   A    
O23   H21   S    
C16   H12   S    
C23   C27   A    
C9    C13   A    
S2    O24   D    
C16   C20   A    
C12   C16   A    
S3    O29   S    
O12   C1    A    
C12   H8    S    
C13   C17   A    
S1    O21   D    
C20   C24   A    
C15   C19   A    
O16   C8    A    
S4    O32   S    
C9    C29   A    
C24   C28   A    
