data_mof_unit_20339.cif
_audit_creation_date              2012-12-11T16:48:16-0500
_audit_creation_method            fapswitch 2.2
_symmetry_space_group_name_H-M    P1
_symmetry_Int_Tables_number       1
_space_group_crystal_system       triclinic
_cell_length_a                    17.365996
_cell_length_b                    24.329356
_cell_length_c                    15.000059
_cell_angle_alpha                 90.758198
_cell_angle_beta                  125.415888
_cell_angle_gamma                 88.709137
_cell_volume                      5163.60637746

loop_
_atom_site_label
_atom_site_type_symbol
_atom_type_description
_atom_site_fract_x
_atom_site_fract_y
_atom_site_fract_z
_atom_type_partial_charge
C1    C     C_R   0.354727 0.347576 0.910701 -0.125214
C2    C     C_R   0.541656 0.494605 0.716179 -0.046287
C3    C     C_R   0.057128 0.846471 0.909802 -0.146379
C4    C     C_R   0.382739 0.316487 0.001868 0.080910
C5    C     C_R   0.618003 0.314668 0.001334 0.120091
C6    C     C_R   0.884810 0.817812 0.000705 0.109374
C7    C     C_R   0.119179 0.815001 0.001823 0.117345
C8    C     C_3   0.837379 0.251017 0.331549 0.277759
C9    C     C_3   0.896185 0.252978 0.455380 -0.765684
C10   C     C_3   0.134751 0.300755 0.804659 0.202087
C11   C     C_3   0.054331 0.341944 0.740079 -0.733145
C12   C     C_3   0.340840 0.751172 0.333633 0.251624
C13   C     C_R   0.064957 0.996094 0.366217 -0.049318
C14   C     C_3   0.400985 0.751000 0.457772 -0.712240
C15   C     C_3   0.786159 0.830414 0.155688 0.316914
C16   C     C_3   0.745625 0.848134 0.218672 -0.897724
C17   C     C_3   0.470982 0.711486 0.159513 0.291862
C18   C     C_3   0.534372 0.744906 0.263387 -0.799642
C19   C     C_3   0.453233 0.684901 0.790293 0.365285
C20   C     C_3   0.407337 0.724307 0.693581 -0.826405
C21   C     C_3   0.968131 0.210602 0.161972 0.293068
C22   C     C_3   0.033644 0.242680 0.267170 -0.787309
C23   C     C_3   0.971129 0.188197 0.801047 0.316864
C24   C     C_R   0.037056 0.994216 0.711477 -0.061628
C25   C     C_3   0.919148 0.221212 0.695184 -0.880953
C26   C     C_3   0.259665 0.709654 0.810406 0.271064
C27   C     C_3   0.190410 0.733127 0.696219 -0.816280
C28   C     C_3   0.715277 0.683935 0.235270 0.157090
C29   C     C_3   0.794951 0.706410 0.345867 -0.736555
C30   C     C_3   0.790598 0.207547 0.816027 0.276549
C31   C     C_3   0.732287 0.253743 0.820482 -0.891620
C32   C     C_3   0.209946 0.184423 0.223173 0.166695
C33   C     C_3   0.285555 0.211595 0.330511 -0.697042
C34   C     C_R   0.178614 0.498342 0.668847 0.031202
C35   C     C_R   0.794004 0.497879 0.369854 0.024726
C36   C     C_R   0.676208 0.998714 0.678972 0.045608
C37   C     C_R   0.294337 0.997025 0.369918 0.036867
C38   C     C_2   0.930870 0.461007 0.540878 0.298972
C39   C     C_2   0.024897 0.480647 0.622915 0.338451
C40   C     C_2   0.427916 0.956779 0.541476 0.314154
C41   C     C_R   0.648391 0.347584 0.091138 -0.110445
C42   C     C_2   0.523020 0.972481 0.628387 0.377777
C43   C     C_2   0.861412 0.499054 0.489054 0.310548
C44   C     C_2   0.078207 0.496905 0.589997 0.345729
C45   C     C_2   0.362059 0.997029 0.489307 0.298927
C46   C     C_2   0.575371 0.997534 0.601429 0.330349
C47   C     C_R   0.259422 0.685089 0.103973 0.087843
C48   C     C_R   0.687112 0.739791 0.945425 0.150572
C49   C     C_R   0.757651 0.184520 0.103147 0.073974
C50   C     C_R   0.251154 0.184901 0.903488 0.087680
C51   C     C_R   0.234280 0.663512 0.004115 -0.036242
C52   C     C_R   0.853746 0.848443 0.909665 -0.107417
C53   C     C_R   0.731090 0.690993 0.000344 -0.036909
C54   C     C_R   0.733350 0.163080 0.003501 -0.031669
C55   C     C_R   0.263943 0.166001 0.999651 -0.027795
C56   C     C_R   0.142713 0.675821 0.910679 0.524395
C57   C     C_R   0.827205 0.680224 0.045325 0.516494
C58   C     C_R   0.642239 0.175759 0.909414 0.552679
C59   C     C_R   0.350445 0.182059 0.098140 0.522526
C60   C     C_R   0.596399 0.223796 0.909638 -0.343227
C61   C     C_R   0.394227 0.230513 0.099846 -0.329943
C62   C     C_R   0.097623 0.724149 0.910731 -0.335417
C63   C     C_R   0.149237 0.847869 0.091469 -0.119508
C64   C     C_R   0.880299 0.721824 0.044063 -0.314414
C65   C     C_R   0.638831 0.255839 0.005282 -0.032322
C66   C     C_R   0.358645 0.259439 0.002162 -0.017048
C67   C     C_R   0.140511 0.756301 0.006251 -0.035640
C68   C     C_R   0.835906 0.772303 0.997688 -0.027389
C69   C     C_R   0.403012 0.628709 0.090547 0.493119
C70   C     C_R   0.587754 0.635515 0.909880 0.426586
C71   C     C_R   0.902272 0.127547 0.090791 0.474681
C72   C     C_R   0.095303 0.129468 0.910474 0.419971
C73   C     C_R   0.712519 0.232687 0.104782 -0.123447
C74   C     C_R   0.311240 0.640237 0.999614 -0.248672
C75   C     C_R   0.294237 0.231739 0.905936 -0.089705
C76   C     C_R   0.214615 0.733325 0.105906 -0.122132
C77   C     C_R   0.740031 0.780144 0.946423 -0.090428
C78   C     C_3   0.698283 0.206677 0.184872 0.437579
C79   C     C_3   0.233907 0.239188 0.784832 0.377392
C80   C     C_3   0.201102 0.707273 0.186649 0.439550
C81   C     C_3   0.685402 0.824815 0.957900 0.523397
C82   C     C_3   0.246090 0.655154 0.180493 -0.484307
C83   C     C_3   0.625129 0.779704 0.955790 -0.671730
C84   C     C_3   0.743567 0.154555 0.179070 -0.488843
C85   C     C_R   0.674009 0.650965 0.000628 -0.144481
C86   C     C_3   0.189800 0.184641 0.779482 -0.453024
C87   C     C_R   0.567606 0.440725 0.595665 0.139588
C88   C     C_R   0.574521 0.441398 0.509067 0.142480
C89   C     C_R   0.062179 0.940249 0.590850 0.139971
C90   C     C_R   0.070861 0.940784 0.505678 0.153513
C91   C     C_R   0.581750 0.488799 0.654599 0.068902
C92   C     C_R   0.597057 0.489941 0.480231 0.049612
C93   C     C_R   0.076837 0.988238 0.650015 0.082598
C94   C     C_R   0.095718 0.989142 0.478913 0.057018
C95   C     C_R   0.628079 0.532365 0.645111 -0.131877
C96   C     C_R   0.810154 0.138478 0.000022 -0.206080
C97   C     C_R   0.637058 0.532608 0.558288 -0.082137
C98   C     C_R   0.125117 0.031260 0.642792 -0.158300
C99   C     C_R   0.135978 0.031455 0.557553 -0.092238
C100  C     C_3   0.492068 0.404011 0.442680 -0.477712
C101  C     C_3   0.484967 0.403270 0.538295 -0.476994
C102  C     C_3   0.987090 0.904440 0.437266 -0.502272
C103  C     C_3   0.978236 0.903826 0.531563 -0.481708
C104  C     C_R   0.546920 0.452316 0.299968 -0.233335
C105  C     C_R   0.518663 0.450878 0.752263 -0.187782
C106  C     C_R   0.046641 0.952103 0.299486 -0.224791
C107  C     C_R   0.187771 0.139537 0.000368 -0.182908
C108  C     C_R   0.015817 0.950593 0.749293 -0.195235
C109  C     C_R   0.233555 0.544416 0.711129 0.057849
C110  C     C_R   0.750713 0.543766 0.305542 0.092691
C111  C     C_R   0.731822 0.044677 0.716814 0.034931
C112  C     C_R   0.251009 0.043366 0.306116 0.113329
C113  C     C_R   0.552404 0.543359 0.306396 0.497482
C114  C     C_R   0.506504 0.542275 0.734299 0.487152
C115  C     C_R   0.052610 0.043174 0.306534 0.502811
C116  C     C_R   0.003372 0.042015 0.731152 0.503280
C117  C     C_R   0.234819 0.452626 0.720501 -0.090746
C118  C     C_R   0.565156 0.496455 0.366683 -0.043406
C119  C     C_R   0.748638 0.452928 0.304091 -0.046765
C120  C     C_R   0.733555 0.952827 0.726109 -0.073860
C121  C     C_R   0.248611 0.952480 0.303425 -0.079954
C122  C     C_R   0.312264 0.629210 0.908736 0.496663
C123  C     C_R   0.683101 0.631568 0.091757 0.511397
C124  C     C_R   0.810997 0.127866 0.909152 0.515400
C125  C     C_R   0.188274 0.126102 0.091442 0.502107
C126  C     C_R   0.442649 0.348471 0.092659 -0.110113
C127  C     C_R   0.556526 0.346366 0.909578 -0.144409
C128  C     C_R   0.944958 0.848056 0.092237 -0.098659
Cl1   Cl    Cl    0.868160 0.560733 0.557685 -0.552371
Cl2   Cl    Cl    0.450795 0.593223 0.632524 -0.645590
Cl3   Cl    Cl    0.106673 0.106171 0.364101 -0.695334
Cl4   Cl    Cl    0.946506 0.093418 0.630495 -0.648375
Cl5   Cl    Cl    0.930027 0.396803 0.483498 -0.726312
Cl6   Cl    Cl    0.065380 0.482235 0.761707 -0.577944
Cl7   Cl    Cl    0.424025 0.891665 0.486081 -0.722882
Cl8   Cl    Cl    0.568569 0.951340 0.762799 -0.610426
Cl9   Cl    Cl    0.034184 0.505617 0.451132 -0.536835
Cl10  Cl    Cl    0.373341 0.058843 0.559823 -0.556578
Cl11  Cl    Cl    0.528979 0.021853 0.468285 -0.531978
Cl12  Cl    Cl    0.084086 0.633641 0.793731 -0.501318
Cl13  Cl    Cl    0.882672 0.616558 0.105257 -0.550636
Cl14  Cl    Cl    0.584151 0.133784 0.792065 -0.523598
Cl15  Cl    Cl    0.417589 0.137853 0.211613 -0.511033
Cl16  Cl    Cl    0.605199 0.606706 0.363095 -0.691255
H1    H     H_    0.320757 0.333216 0.827969 0.132670
H2    H     H_    0.275434 0.236911 0.749818 0.089761
H3    H     H_    0.866190 0.212668 0.885734 0.011816
H4    H     H_    0.749203 0.256855 0.903822 0.231428
H5    H     H_    0.750172 0.293499 0.801706 0.216816
H6    H     H_    0.655642 0.246707 0.759450 0.286025
H7    H     H_    0.157941 0.165393 0.233306 0.146527
H8    H     H_    0.174159 0.217033 0.159057 0.073765
H9    H     H_    0.339302 0.230212 0.322862 0.252280
H10   H     H_    0.253056 0.244424 0.351373 0.188336
H11   H     H_    0.320741 0.180728 0.397431 0.285255
H12   H     H_    0.125167 0.702057 0.152064 0.090419
H13   H     H_    0.645481 0.850600 0.883062 0.139339
H14   H     H_    0.313954 0.642743 0.257758 0.229618
H15   H     H_    0.628084 0.774182 0.030726 0.186120
H16   H     H_    0.811126 0.142085 0.256633 0.231822
H17   H     H_    0.112710 0.189314 0.732552 0.269348
H18   H     H_    0.195339 0.620943 0.139768 0.190678
H19   H     H_    0.552199 0.782490 0.880614 0.204351
H20   H     H_    0.692837 0.120365 0.137904 0.185557
H21   H     H_    0.684804 0.333972 0.174732 0.116334
H22   H     H_    0.212252 0.151376 0.747390 0.162786
H23   H     H_    0.648435 0.568237 0.697244 0.177734
H24   H     H_    0.667763 0.568082 0.549440 0.225755
H25   H     H_    0.145680 0.066628 0.695744 0.156919
H26   H     H_    0.168056 0.066660 0.550023 0.219136
H27   H     H_    0.429960 0.424311 0.369013 0.216892
H28   H     H_    0.502389 0.362327 0.578339 0.192913
H29   H     H_    0.926312 0.925523 0.363594 0.219793
H30   H     H_    0.993722 0.862715 0.570574 0.189638
H31   H     H_    0.513086 0.363371 0.427546 0.194233
H32   H     H_    0.810011 0.835144 0.825269 0.104879
H33   H     H_    0.418904 0.423154 0.519853 0.222263
H34   H     H_    0.006938 0.863529 0.421657 0.189385
H35   H     H_    0.912474 0.924516 0.512376 0.223310
H36   H     H_    0.564783 0.409727 0.324515 0.137650
H37   H     H_    0.532284 0.407854 0.747525 0.135242
H38   H     H_    0.064136 0.909437 0.323612 0.135274
H39   H     H_    0.028638 0.907506 0.743817 0.134656
H40   H     H_    0.212560 0.585067 0.676586 0.184555
H41   H     H_    0.758204 0.584852 0.336341 0.181167
H42   H     H_    0.709364 0.085594 0.684136 0.196613
H43   H     H_    0.186208 0.834355 0.175232 0.119611
H44   H     H_    0.259183 0.084560 0.337277 0.188275
H45   H     H_    0.215498 0.409891 0.702487 0.140151
H46   H     H_    0.750160 0.411806 0.331350 0.147660
H47   H     H_    0.713608 0.910190 0.708683 0.127590
H48   H     H_    0.249275 0.911282 0.329610 0.156265
H49   H     H_    0.486894 0.335274 0.177021 0.097234
H50   H     H_    0.509787 0.331556 0.826607 0.096523
H51   H     H_    0.985629 0.834691 0.176572 0.085580
H52   H     H_    0.010545 0.831535 0.826915 0.098152
H53   H     H_    0.830608 0.293178 0.300104 0.130894
H54   H     H_    0.532172 0.237578 0.834025 0.174231
H55   H     H_    0.876830 0.224715 0.309530 0.122568
H56   H     H_    0.906564 0.210622 0.487679 0.273082
H57   H     H_    0.966433 0.270462 0.488162 0.253683
H58   H     H_    0.859703 0.278846 0.482339 0.266765
H59   H     H_    0.190966 0.321684 0.880442 0.129514
H60   H     H_    0.109513 0.265853 0.827409 0.132087
H61   H     H_    0.993302 0.322698 0.665794 0.261809
H62   H     H_    0.031803 0.358467 0.791120 0.228019
H63   H     H_    0.079072 0.375728 0.714589 0.290291
H64   H     H_    0.334348 0.793914 0.304728 0.135850
H65   H     H_    0.455083 0.244989 0.177050 0.174829
H66   H     H_    0.379226 0.725740 0.308942 0.125137
H67   H     H_    0.411764 0.708127 0.487879 0.268769
H68   H     H_    0.471069 0.768711 0.490559 0.238164
H69   H     H_    0.365488 0.775760 0.487338 0.271050
H70   H     H_    0.860934 0.843154 0.204432 0.104709
H71   H     H_    0.787449 0.784899 0.150801 0.083338
H72   H     H_    0.671435 0.834788 0.175394 0.247896
H73   H     H_    0.788319 0.829545 0.301582 0.216977
H74   H     H_    0.747607 0.893583 0.227314 0.279371
H75   H     H_    0.405631 0.736355 0.103142 0.071968
H76   H     H_    0.033194 0.737837 0.835240 0.177263
H77   H     H_    0.508876 0.705193 0.120353 0.029850
H78   H     H_    0.496599 0.756691 0.300187 0.239910
H79   H     H_    0.555454 0.783019 0.243410 0.195665
H80   H     H_    0.599170 0.721120 0.324035 0.286237
H81   H     H_    0.467265 0.707936 0.862746 0.021017
H82   H     H_    0.402882 0.651439 0.770278 0.125686
H83   H     H_    0.368772 0.700892 0.615769 0.282341
H84   H     H_    0.461526 0.749735 0.697505 0.266519
H85   H     H_    0.356261 0.752143 0.694320 0.200954
H86   H     H_    0.902392 0.235675 0.108807 0.083353
H87   H     H_    0.955033 0.715606 0.081258 0.171627
H88   H     H_    0.003700 0.205944 0.119789 0.033708
H89   H     H_    0.999507 0.251436 0.309350 0.243798
H90   H     H_    0.050960 0.282395 0.247615 0.200091
H91   H     H_    0.100339 0.219324 0.323234 0.283096
H92   H     H_    0.996057 0.217104 0.870650 0.040529
H93   H     H_    0.919921 0.158947 0.794688 0.111521
H94   H     H_    0.861100 0.196875 0.626722 0.288342
H95   H     H_    0.968047 0.232123 0.674027 0.275074
H96   H     H_    0.888182 0.259537 0.704038 0.199414
H97   H     H_    0.331923 0.721971 0.841056 0.042211
H98   H     H_    0.622161 0.201527 0.149755 0.100614
H99   H     H_    0.242872 0.728873 0.864742 0.086481
H100  H     H_    0.116821 0.724613 0.667541 0.277111
H101  H     H_    0.198864 0.778303 0.697469 0.195279
H102  H     H_    0.203464 0.714072 0.638331 0.258435
H103  H     H_    0.663388 0.663951 0.244395 0.155261
H104  H     H_    0.680289 0.719283 0.178127 0.075044
H105  H     H_    0.847730 0.726538 0.338369 0.238663
H106  H     H_    0.766155 0.737166 0.375171 0.200478
H107  H     H_    0.830508 0.672716 0.406819 0.289302
H108  H     H_    0.784552 0.213094 0.739031 0.139994
N1    N     N_R   0.395410 0.396350 0.944340 -0.040172
N2    N     N_R   0.474920 0.471030 0.794350 -0.060492
N3    N     N_R   0.025080 0.971030 0.205650 -0.062562
N4    N     N_R   0.974920 0.971030 0.794350 -0.060970
N5    N     N_R   0.320260 0.527820 0.794570 -0.063689
N6    N     N_R   0.679740 0.527820 0.205430 -0.064294
N7    N     N_R   0.820260 0.027820 0.794570 -0.067932
N8    N     N_R   0.179740 0.027820 0.205430 -0.071809
N9    N     N_R   0.524590 0.527840 0.205200 -0.091051
N10   N     N_R   0.475410 0.527840 0.794800 -0.093157
N11   N     N_R   0.024590 0.027840 0.205200 -0.089887
N12   N     N_R   0.604590 0.396350 0.055660 -0.041773
N13   N     N_R   0.975410 0.027840 0.794800 -0.090668
N14   N     N_R   0.320750 0.471000 0.795020 -0.050110
N15   N     N_R   0.679250 0.471000 0.204980 -0.060581
N16   N     N_R   0.820750 0.971000 0.795020 -0.051846
N17   N     N_R   0.179250 0.971000 0.204980 -0.062335
N18   N     N_R   0.393620 0.602490 0.942710 -0.151941
N19   N     N_R   0.606380 0.602490 0.057290 -0.150895
N20   N     N_R   0.893620 0.102490 0.942710 -0.159640
N21   N     N_R   0.106380 0.102490 0.057290 -0.153518
N22   N     N_R   0.451720 0.396350 0.057510 -0.038131
N23   N     N_R   0.895410 0.896350 0.944340 -0.037816
N24   N     N_R   0.548280 0.396350 0.942490 -0.040453
N25   N     N_R   0.951720 0.896350 0.057510 -0.033760
N26   N     N_R   0.048280 0.896350 0.942490 -0.041572
N27   N     N_R   0.104590 0.896350 0.055660 -0.043296
N28   N     N_R   0.449930 0.602500 0.055880 -0.139241
N29   N     N_R   0.550070 0.602500 0.944120 -0.163128
N30   N     N_R   0.949930 0.102500 0.055880 -0.138471
N31   N     N_R   0.050070 0.102500 0.944120 -0.157139
N32   N     N_R   0.525080 0.471030 0.205650 -0.064936
Ni1   Ni    Ni4+2 0.435420 0.434270 0.870230 0.224138
Ni2   Ni    Ni4+2 0.564580 0.434270 0.129770 0.213781
Ni3   Ni    Ni4+2 0.935420 0.934270 0.870230 0.223099
Ni4   Ni    Ni4+2 0.064580 0.934270 0.129770 0.213713
Ni5   Ni    Ni4+2 0.563430 0.564580 0.128740 0.233579
Ni6   Ni    Ni4+2 0.436570 0.564580 0.871260 0.222441
Ni7   Ni    Ni4+2 0.063430 0.064580 0.128740 0.230567
Ni8   Ni    Ni4+2 0.936570 0.064580 0.871260 0.220446
O1    O     O_3   0.746839 0.230568 0.291386 -0.609481
O2    O     O_3   0.752942 0.645450 0.198496 -0.588962
O3    O     O_3   0.753825 0.155195 0.810565 -0.614025
O4    O     O_3   0.252873 0.143716 0.197017 -0.577287
O5    O     O_3   0.167445 0.284162 0.740714 -0.613480
O6    O     O_3   0.250062 0.731052 0.293306 -0.613138
O7    O     O_3   0.737107 0.858340 0.053731 -0.589465
O8    O     O_3   0.448458 0.660673 0.184069 -0.579455
O9    O     O_3   0.538529 0.663335 0.811372 -0.581706
O10   O     O_3   0.946952 0.158897 0.185124 -0.580167
O11   O     O_3   0.048973 0.159360 0.815208 -0.618157
O12   O     O_3   0.252329 0.651734 0.805618 -0.616924

loop_
_geom_bond_atom_site_label_1
_geom_bond_atom_site_label_2
_ccdc_geom_bond_type
C110  H41   S    
C44   Cl9   S    
C55   C59   A    
C19   C20   S    
N4    N13   A    
N23   Ni3   S    
C27   H100  S    
C121  H48   S    
C125  N21   A    
C20   H83   S    
C122  O12   S    
C19   H82   S    
C47   C76   A    
C87   C91   A    
C81   O7    S    
C56   Cl12  S    
C8    O1    S    
C58   C60   A    
C42   Cl8   S    
N8    N17   A    
C22   H90   S    
C98   H25   S    
N15   Ni2   S    
C119  H46   S    
C11   H62   S    
C124  O3    S    
C117  N14   A    
C17   H75   S    
C9    H56   S    
C60   H54   S    
C17   O8    S    
C15   O7    S    
C21   C22   S    
C114  Cl2   S    
C30   O3    S    
C52   N23   A    
N24   Ni1   S    
N20   N30   A    
C40   Cl7   S    
N26   Ni3   S    
C15   H71   S    
C72   O11   S    
C31   H6    S    
N3    Ni4   S    
C14   H69   S    
C28   H103  S    
N9    N32   A    
C100  H31   S    
C69   C74   A    
C18   H79   S    
C13   C115  A    
C37   C121  A    
N6    Ni5   S    
N3    N11   A    
C60   C65   A    
C70   O9    S    
C56   C62   A    
C127  H50   S    
C37   C45   S    
C68   C77   A    
C20   H85   S    
C71   N30   A    
N11   Ni7   S    
C13   C106  A    
C64   H87   S    
C95   C97   A    
C57   Cl13  S    
N31   Ni8   S    
N28   Ni5   S    
C113  Cl16  S    
C13   C94   S    
N12   Ni2   S    
C114  N10   A    
C38   C43   D    
C4    C66   S    
C2    C114  A    
N14   Ni1   S    
C21   H86   S    
C85   C123  A    
C17   H77   S    
C9    H58   S    
C98   C99   A    
C53   C85   S    
N21   Ni7   S    
C6    C52   A    
C75   C79   S    
N19   Ni5   S    
C104  N32   A    
C46   Cl11  S    
C39   Cl6   S    
C1    H1    S    
C126  H49   S    
C71   O10   S    
C28   O2    S    
C30   H3    S    
N12   N24   A    
C14   H67   S    
C64   C68   A    
C49   C84   S    
C110  N6    A    
N1    N22   A    
C27   H101  S    
C28   H104  S    
C38   C39   S    
C82   H14   S    
C33   H9    S    
C25   H95   S    
C101  H28   S    
C92   C118  S    
C90   C102  S    
N7    N16   A    
C87   C101  S    
C69   O8    S    
C32   H8    S    
C16   H74   S    
N22   Ni2   S    
C35   C43   S    
C40   C42   S    
C126  N22   A    
C59   Cl15  S    
C89   C103  S    
C11   H63   S    
C18   H78   S    
C81   C83   S    
C92   C97   A    
C79   H2    S    
C48   C53   A    
C59   C61   A    
C43   Cl1   S    
C107  C125  A    
C80   C82   S    
C120  H47   S    
C26   H99   S    
C78   O1    S    
C82   H18   S    
C21   H88   S    
C103  H30   S    
C51   C74   S    
C29   H105  S    
C48   C77   A    
C116  Cl4   S    
C17   C18   S    
C86   H17   S    
C7    C63   A    
C117  H45   S    
C24   C116  A    
C63   H43   S    
C102  H34   S    
C121  N17   A    
C123  N19   A    
C124  N20   A    
C111  H42   S    
C41   N12   A    
C76   C80   S    
C95   H23   S    
C33   H11   S    
C39   C44   D    
C97   H24   S    
C20   H84   S    
C48   C83   S    
C4    C126  A    
N32   Ni2   S    
C19   H81   S    
C6    C128  A    
C24   C93   S    
C112  N8    A    
C10   O5    S    
C63   N27   A    
N7    Ni8   S    
C100  C101  S    
C89   C93   A    
C102  C103  S    
C10   C11   S    
C91   C95   A    
C22   H91   S    
N2    N10   A    
N26   N27   A    
C11   H61   S    
C105  H37   S    
C70   C85   A    
C87   C88   A    
C120  N16   A    
N17   Ni4   S    
C86   H22   S    
C128  H51   S    
C79   O5    S    
C84   H16   S    
C26   H97   S    
C99   H26   S    
C102  H29   S    
C26   C27   S    
C29   H107  S    
C28   C29   S    
C3    C7    A    
C30   C31   S    
C31   H5    S    
N19   N29   A    
C21   O10   S    
C42   C46   D    
N18   N28   A    
C16   H72   S    
N9    Ni5   S    
C24   C108  A    
C18   H80   S    
C10   H59   S    
C52   H32   S    
N29   Ni6   S    
C108  N4    A    
C105  N2    A    
C111  N7    A    
N25   Ni4   S    
C1    N1    A    
C90   C94   A    
C104  C118  A    
C32   O4    S    
C40   C45   D    
C81   H13   S    
C53   C57   A    
C47   C51   A    
C71   C96   A    
C69   N28   A    
C62   H76   S    
C22   H89   S    
C58   Cl14  S    
C77   C81   S    
C5    C127  A    
C72   N31   A    
C61   H65   S    
C88   C100  S    
C35   C110  A    
C9    H57   S    
C31   H4    S    
C74   C122  A    
N16   Ni3   S    
C125  O4    S    
N2    Ni1   S    
C83   H19   S    
C12   O6    S    
C108  H39   S    
N5    N14   A    
N18   Ni6   S    
C70   N29   A    
C3    H52   S    
C14   H68   S    
C32   C33   S    
C12   H66   S    
C50   C75   A    
C29   H106  S    
C25   H94   S    
C66   C75   A    
C30   H108  S    
C103  H35   S    
C36   C120  A    
C101  H33   S    
C122  N18   A    
N30   Ni7   S    
N4    Ni3   S    
C45   Cl10  S    
C89   C90   A    
C79   C86   S    
C49   C54   A    
C35   C119  A    
C127  N24   A    
C115  Cl3   S    
C78   H98   S    
C62   C67   A    
C12   H64   S    
N23   N25   A    
C23   H93   S    
N1    Ni1   S    
C47   C82   S    
C15   C16   S    
C65   C73   A    
C51   C56   A    
C38   Cl5   S    
C106  H38   S    
C37   C112  A    
C61   C66   A    
C88   C92   A    
C8    C9    S    
C41   H21   S    
N13   Ni8   S    
C73   C78   S    
C19   O9    S    
C54   C96   S    
C84   H20   S    
C80   O6    S    
C34   C117  A    
C6    C68   S    
N8    Ni7   S    
C100  H27   S    
C8    H53   S    
C2    C91   S    
C36   C111  A    
C15   H70   S    
N6    N15   A    
N5    Ni6   S    
C80   H12   S    
C96   C124  A    
N21   N31   A    
C34   C44   S    
C5    C65   S    
C116  N13   A    
C27   H102  S    
C33   H10   S    
C3    N26   A    
C25   H96   S    
C7    C67   S    
N10   Ni6   S    
C55   C107  S    
C72   C107  A    
C119  N15   A    
C16   H73   S    
C113  N9    A    
C36   C46   S    
C115  N11   A    
C23   H92   S    
C12   C14   S    
C128  N25   A    
C109  H40   S    
C57   C64   A    
C54   C58   A    
C5    C41   A    
C106  N3    A    
C112  H44   S    
C2    C105  A    
C50   C55   A    
C26   O12   S    
C1    C4    A    
N27   Ni4   S    
N20   Ni8   S    
C104  H36   S    
C32   H7    S    
C94   C99   A    
C49   C73   A    
C23   C25   S    
C109  N5    A    
C23   O11   S    
C50   C86   S    
C113  C118  A    
C78   C84   S    
C83   H15   S    
C34   C109  A    
C8    H55   S    
C67   C76   A    
C123  O2    S    
C10   H60   S    
C93   C98   A    
