data_mof_unit_28717.cif
_audit_creation_date              2012-10-26T20:17:09-0400
_audit_creation_method            fapswitch 2.2
_symmetry_space_group_name_H-M    P1
_symmetry_Int_Tables_number       1
_space_group_crystal_system       triclinic
_cell_length_a                    10.627594
_cell_length_b                    11.055436
_cell_length_c                    9.920282
_cell_angle_alpha                 111.613614
_cell_angle_beta                  98.871998
_cell_angle_gamma                 90.620088
_cell_volume                      1067.7379378

loop_
_atom_site_label
_atom_site_type_symbol
_atom_type_description
_atom_site_fract_x
_atom_site_fract_y
_atom_site_fract_z
_atom_type_partial_charge
C1    C     C_R   0.490802 0.254051 0.440348 0.552198
C2    C     C_3   0.122607 0.499884 0.501441 0.043506
C3    C     C_3   0.972743 0.615217 0.594638 -0.126662
C4    C     C_3   0.027250 0.384288 0.405097 -0.131616
C5    C     C_2   0.486032 0.114217 0.406901 -0.137945
C6    C     C_2   0.514629 0.885793 0.593154 -0.138868
C7    C     C_2   0.502716 0.069706 0.516131 -0.165518
C8    C     C_2   0.498463 0.930338 0.483949 -0.163578
C9    C     C_2   0.522764 0.494970 0.078856 -0.015518
C10   C     C_2   0.504234 0.476369 0.913955 -0.015417
C11   C     C_3   0.653274 0.653937 0.969425 -0.098227
C12   C     C_R   0.509377 0.745950 0.559657 0.551795
C13   C     C_3   0.699855 0.761630 0.922342 -0.251010
C14   C     C_3   0.808413 0.849517 0.037915 -0.505871
C15   C     C_3   0.344535 0.348280 0.031170 -0.098840
C16   C     C_3   0.237379 0.304504 0.094033 -0.252931
C17   C     C_3   0.148317 0.196029 0.973296 -0.506596
C18   C     C_R   0.259461 0.499845 0.500511 0.548221
C19   C     C_R   0.740533 0.499960 0.499423 0.548004
C20   C     C_3   0.059999 0.519074 0.636508 -0.111616
C21   C     C_3   0.939978 0.480418 0.363217 -0.117116
C22   C     C_3   0.962355 0.403476 0.540068 -0.121276
C23   C     C_3   0.037618 0.596019 0.459654 -0.125542
C24   C     C_3   0.877370 0.499640 0.498314 0.046819
Cu1   Cu    Cu3+1 0.522260 0.521810 0.644920 0.913622
Cu2   Cu    Cu3+1 0.477740 0.478190 0.355080 0.913113
H1    H     H_    0.928419 0.324673 0.572828 0.107704
H2    H     H_    0.469008 0.047295 0.292550 0.095577
H3    H     H_    0.442161 0.395627 0.833462 0.129063
H4    H     H_    0.603751 0.555638 0.154297 0.129819
H5    H     H_    0.776252 0.895456 0.145716 0.151067
H6    H     H_    0.891553 0.792262 0.050787 0.147790
H7    H     H_    0.839226 0.927975 0.002716 0.140790
H8    H     H_    0.737169 0.721167 0.818167 0.207920
H9    H     H_    0.620745 0.824469 0.913325 0.174560
H10   H     H_    0.613299 0.708564 0.070358 0.103278
H11   H     H_    0.737401 0.603812 0.998776 0.114860
H12   H     H_    0.071585 0.674787 0.426862 0.108011
H13   H     H_    0.105007 0.230053 0.885430 0.148073
H14   H     H_    0.201518 0.108929 0.924422 0.150926
H15   H     H_    0.070366 0.167489 0.020915 0.138835
H16   H     H_    0.275316 0.265453 0.178440 0.207905
H17   H     H_    0.178361 0.387543 0.139215 0.178810
H18   H     H_    0.292781 0.390413 0.954306 0.104273
H19   H     H_    0.391032 0.260439 0.967561 0.114312
H20   H     H_    0.111664 0.534784 0.748464 0.115793
H21   H     H_    0.888359 0.464630 0.251218 0.111087
H22   H     H_    0.947259 0.709645 0.672090 0.099145
H23   H     H_    0.052732 0.289852 0.327678 0.099128
H24   H     H_    0.481701 0.863689 0.369412 0.155122
H25   H     H_    0.519633 0.136369 0.630666 0.150860
H26   H     H_    0.531552 0.952683 0.707521 0.089625
N1    N     N_2   0.444270 0.445410 0.137360 -0.228655
N2    N     N_2   0.555730 0.554590 0.862640 -0.228426
O1    O     O_R   0.511880 0.332340 0.577400 -0.502774
O2    O     O_R   0.488120 0.667660 0.422600 -0.493703
O3    O     O_R   0.474280 0.295500 0.332650 -0.506106
O4    O     O_R   0.525720 0.704500 0.667350 -0.513992
O5    O     O_R   0.335640 0.518390 0.622350 -0.498771
O6    O     O_R   0.664360 0.481610 0.377650 -0.508179
O7    O     O_R   0.298050 0.481550 0.377590 -0.517462
O8    O     O_R   0.701950 0.518450 0.622410 -0.509392

loop_
_geom_bond_atom_site_label_1
_geom_bond_atom_site_label_2
_ccdc_geom_bond_type
C2    C4    S    
C18   O7    A    
C7    C8    S    
C1    O3    A    
C19   O6    A    
C2    C18   S    
C5    H2    S    
C4    C22   S    
C9    C10   S    
C4    H23   S    
C3    C23   S    
C10   H3    S    
C14   H5    S    
Cu1   O8    S    
C12   O4    A    
C18   O5    A    
C14   H7    S    
C19   C24   S    
C1    O1    A    
C7    H25   S    
C3    C20   S    
C13   C14   S    
C4    C21   S    
C11   C13   S    
C16   H17   S    
C3    C24   S    
C12   O2    A    
C11   N2    S    
C9    H4    S    
C1    C5    S    
C15   N1    S    
C11   H10   S    
Cu2   O7    S    
C20   C22   S    
C15   H18   S    
C13   H9    S    
C8    H24   S    
C17   H15   S    
C22   H1    S    
C21   C23   S    
C6    C12   S    
C10   N2    D    
Cu2   O3    S    
C22   C24   S    
C9    N1    D    
Cu1   O4    S    
C15   H19   S    
C19   O8    A    
C2    C20   S    
C15   C16   S    
C23   H12   S    
Cu2   N1    S    
C16   H16   S    
C3    H22   S    
C13   H8    S    
Cu1   N2    S    
C5    C7    D    
C17   H13   S    
C21   C24   S    
C2    C23   S    
C11   H11   S    
C6    C8    D    
Cu1   O5    S    
C6    H26   S    
Cu1   Cu2   S    
Cu2   O6    S    
C20   H20   S    
Cu1   O1    S    
C14   H6    S    
C16   C17   S    
C21   H21   S    
C17   H14   S    
Cu2   O2    S    
