data_mof_unit_67990.cif
_audit_creation_date              2013-03-05T16:49:26-0500
_audit_creation_method            fapswitch 2.2
_symmetry_space_group_name_H-M    P1
_symmetry_Int_Tables_number       1
_space_group_crystal_system       triclinic
_cell_length_a                    11.088911
_cell_length_b                    9.039716
_cell_length_c                    8.382961
_cell_angle_alpha                 90.277596
_cell_angle_beta                  92.506506
_cell_angle_gamma                 89.806708
_cell_volume                      839.495075671

loop_
_atom_site_label
_atom_site_type_symbol
_atom_site_description
_atom_site_fract_x
_atom_site_fract_y
_atom_site_fract_z
_atom_type_partial_charge
O1    O     O_R   0.499990 0.285340 0.636850 -0.550960
O2    O     O_R   0.500010 0.714660 0.363150 -0.550791
O3    O     O_R   0.500010 0.285350 0.363100 -0.624024
O4    O     O_R   0.499990 0.714650 0.636900 -0.624138
C1    C     C_R   0.499977 0.218933 0.499726 0.978144
C2    C     C_R   0.500021 0.781067 0.500274 0.978035
O5    O     O_R   0.316750 0.500000 0.636870 -0.638437
O6    O     O_R   0.683250 0.500000 0.363130 -0.638437
O7    O     O_R   0.316770 0.500020 0.363120 -0.612090
O8    O     O_R   0.683230 0.499980 0.636880 -0.612020
C3    C     C_R   0.259944 0.499840 0.497296 0.918345
C4    C     C_R   0.740057 0.500153 0.502704 0.918448
Zn1   Zn    Zn3+2 0.499990 0.499990 0.682780 1.039840
Zn2   Zn    Zn3+2 0.500010 0.500010 0.317220 1.039941
C5    C     C_R   0.230364 0.564709 0.007648 -0.094621
C6    C     C_R   0.769629 0.435301 0.992356 -0.094668
C7    C     C_R   0.151378 0.585431 0.130227 -0.057868
C8    C     C_R   0.848613 0.414562 0.869784 -0.057870
C9    C     C_R   0.103710 0.460004 0.202923 -0.077736
C10   C     C_R   0.896295 0.539973 0.797084 -0.077746
C11   C     C_R   0.122481 0.315440 0.146076 -0.070111
C12   C     C_R   0.877558 0.684542 0.853940 -0.070249
C13   C     C_R   0.198048 0.294930 0.018569 -0.033120
C14   C     C_R   0.801964 0.705085 0.981422 -0.033295
C15   C     C_R   0.252024 0.418575 0.954804 -0.264206
C16   C     C_R   0.747973 0.581441 0.045189 -0.264024
C17   C     C_R   0.929644 0.477945 0.363077 -0.112981
C18   C     C_R   0.070357 0.522005 0.636928 -0.113021
C19   C     C_R   0.873156 0.499262 0.505038 -0.052436
C20   C     C_R   0.126844 0.500702 0.494966 -0.052387
C21   C     C_R   0.946595 0.520819 0.642963 0.018863
C22   C     C_R   0.053406 0.479136 0.357044 0.019038
C23   C     C_1   0.499993 0.065214 0.499632 -0.120527
C24   C     C_1   0.500003 0.934786 0.500368 -0.120503
N1    N     N_1   0.500020 0.500030 0.073640 -0.055798
N2    N     N_1   0.499980 0.499970 0.926360 -0.055832
H1    H     H_    0.315366 0.394398 0.868049 0.231056
H2    H     H_    0.684631 0.605613 0.131943 0.231178
C25   C     C_2   0.290812 0.694532 0.937920 0.982617
O9    O     O_2   0.258699 0.739975 0.805882 -0.647621
O10   O     O_R   0.381520 0.768995 0.026846 -0.726282
H3    H     H_    0.417545 0.853588 0.966036 0.345415
C26   C     C_2   0.709169 0.305475 0.062061 0.982412
O11   O     O_2   0.741241 0.260042 0.194117 -0.647520
O12   O     O_R   0.618519 0.230974 0.973068 -0.726492
H4    H     H_    0.582494 0.146361 0.033845 0.345351
C27   C     C_2   0.131608 0.733975 0.200837 1.000885
O13   O     O_2   0.028945 0.781296 0.210496 -0.603199
O14   O     O_R   0.229088 0.812078 0.270245 -0.734752
H5    H     H_    0.203281 0.905537 0.326634 0.376758
C28   C     C_2   0.868377 0.266005 0.799207 1.001178
O15   O     O_2   0.971015 0.218543 0.789870 -0.602977
O16   O     O_R   0.770942 0.188026 0.729526 -0.734996
H6    H     H_    0.796759 0.094499 0.673271 0.376733
C29   C     C_2   0.064561 0.188913 0.223439 0.963773
O17   O     O_2   0.088643 0.161309 0.363972 -0.606265
O18   O     O_R   0.978740 0.105559 0.136887 -0.706364
H7    H     H_    0.936417 0.033749 0.207585 0.398973
C30   C     C_2   0.935549 0.811038 0.776613 0.964000
O19   O     O_2   0.911493 0.838688 0.636085 -0.606258
O20   O     O_R   0.021393 0.894321 0.863206 -0.706491
H8    H     H_    0.063723 0.966156 0.792544 0.399026
C31   C     C_2   0.231799 0.147111 0.955682 0.967252
O21   O     O_2   0.227730 0.037558 0.039640 -0.590155
O22   O     O_R   0.271986 0.134191 0.800201 -0.787077
H9    H     H_    0.295133 0.029242 0.771379 0.359668
C32   C     C_2   0.768220 0.852931 0.044289 0.967244
O23   O     O_2   0.772702 0.962555 0.960515 -0.590041
O24   O     O_R   0.727614 0.865818 0.199549 -0.787230
H10   H     H_    0.704614 0.970807 0.228408 0.359712
H11   H     H_    0.879085 0.459200 0.255366 0.184859
H12   H     H_    0.120915 0.540757 0.744637 0.184873

loop_
_geom_bond_atom_site_label_1
_geom_bond_atom_site_label_2
_geom_bond_distance
_ccdc_geom_bond_type
O12   H4    1.013825 S    
O5    C3    1.304347 A    
O7    Zn2   2.084511 S    
C31   O22   1.400009 S    
C5    C7    1.390650 A    
C10   C21   1.438932 S    
C4    C19   1.475199 S    
C17   C19   1.381261 A    
C26   O12   1.398088 S    
O10   H3    1.013831 S    
C27   O13   1.220646 D    
O6    C4    1.304354 A    
C26   O11   1.220509 D    
C15   H1    1.054575 S    
O3    C1    1.295744 A    
C29   O17   1.223249 D    
C18   C20   1.381251 A    
C23   C24   1.179085 T    
C30   O19   1.223246 D    
C25   O10   1.398099 S    
C29   O18   1.392473 S    
O2    C2    1.294230 A    
O16   H6    1.012651 S    
C20   C22   1.398034 A    
O7    C3    1.313112 A    
C6    C26   1.488108 S    
C5    C25   1.488108 S    
O18   H7    1.011436 S    
C18   H12   1.055083 S    
O3    Zn2   1.980040 S    
O8    C4    1.313107 A    
O1    C1    1.294230 A    
C9    C22   1.438928 S    
C27   O14   1.397001 S    
C9    C11   1.406771 A    
C14   C16   1.389876 A    
C10   C12   1.406784 A    
C8    C28   1.484296 S    
O14   H5    1.012640 S    
C8    C10   1.405394 A    
O24   H10   1.012845 S    
C11   C13   1.398015 A    
C6    C16   1.414406 A    
O20   H8    1.011436 S    
O2    Zn2   1.976377 S    
C12   C14   1.398076 A    
C13   C31   1.486801 S    
C5    C15   1.414385 A    
O4    C2    1.295743 A    
O1    Zn1   1.976376 S    
O4    Zn1   1.980041 S    
C32   O23   1.219756 D    
C25   O9    1.220517 D    
C2    C24   1.389566 S    
O5    Zn1   2.051455 S    
C13   C15   1.389811 A    
C17   H11   1.055096 S    
Zn1   N2    2.041927 S    
C6    C8    1.390606 A    
O22   H9    1.012852 S    
C30   O20   1.392473 S    
C32   O24   1.399911 S    
C12   C30   1.479825 S    
C11   C29   1.479830 S    
C16   H2    1.054566 S    
O6    Zn2   2.051455 S    
N1    N2    1.234620 T    
C14   C32   1.486939 S    
C7    C9    1.405438 A    
C17   C22   1.375611 A    
C19   C21   1.398045 A    
Zn2   N1    2.041927 S    
C18   C21   1.375600 A    
C28   O15   1.220555 D    
C3    C20   1.475198 S    
C7    C27   1.484314 S    
C31   O21   1.219835 D    
C28   O16   1.396940 S    
O8    Zn1   2.084511 S    
C1    C23   1.389565 S    
