data_mof_unit_35118.cif
_audit_creation_date              2012-12-11T16:53:49-0500
_audit_creation_method            fapswitch 2.2
_symmetry_space_group_name_H-M    P1
_symmetry_Int_Tables_number       1
_space_group_crystal_system       triclinic
_cell_length_a                    14.833046
_cell_length_b                    15.008281
_cell_length_c                    16.839787
_cell_angle_alpha                 109.105735
_cell_angle_beta                  106.378668
_cell_angle_gamma                 107.925715
_cell_volume                      3049.74209886

loop_
_atom_site_label
_atom_site_type_symbol
_atom_type_description
_atom_site_fract_x
_atom_site_fract_y
_atom_site_fract_z
_atom_type_partial_charge
C1    C     C_R   0.092604 0.292916 0.079351 -0.141183
C2    C     C_R   0.065222 0.474862 0.250906 -0.101538
C3    C     C_R   0.231442 0.798253 0.189256 0.528240
C4    C     C_R   0.935973 0.460587 0.732753 -0.117192
C5    C     C_R   0.746357 0.472088 0.056192 -0.029684
C6    C     C_R   0.244565 0.805522 0.276784 -0.083272
C7    C     C_R   0.723159 0.551606 0.045539 0.037265
C8    C     C_R   0.974657 0.409068 0.249875 0.069797
C9    C     C_R   0.997754 0.796726 0.936402 0.054667
C10   C     C_R   0.530187 0.659099 0.051123 -0.108116
C11   C     C_R   0.474546 0.598657 0.085349 0.016946
C12   C     C_R   0.029316 0.480172 0.722574 0.126362
C13   C     C_R   0.529413 0.564391 0.142227 -0.143273
C14   C     C_R   0.623851 0.564551 0.142346 -0.178318
C15   C     C_R   0.662849 0.598010 0.084864 0.093023
C16   C     C_R   0.719746 0.217150 0.823272 -0.064996
C17   C     C_R   0.623008 0.657836 0.050674 0.057767
C18   C     C_3   0.605056 0.666902 0.962157 -0.710285
C19   C     C_3   0.503501 0.669902 0.961810 1.006832
C20   C     C_R   0.967689 0.359225 0.311771 0.103905
C21   C     C_R   0.040850 0.442415 0.635098 -0.053972
C22   C     C_R   0.145950 0.446510 0.548119 -0.342256
C23   C     C_R   0.660325 0.225149 0.748132 0.151083
C24   C     C_R   0.135152 0.492150 0.629120 0.473265
C25   C     C_R   0.954157 0.359293 0.553700 -0.305461
C26   C     C_R   0.958323 0.337807 0.467875 0.185979
C27   C     C_R   0.055788 0.382078 0.465688 0.127612
C28   C     C_R   0.300874 0.592305 0.002595 -0.174334
C29   C     C_R   0.059604 0.384070 0.384746 -0.198429
C30   C     C_R   0.870468 0.302257 0.308895 -0.150105
C31   C     C_R   0.866188 0.288004 0.385976 -0.179634
C32   C     C_R   0.548026 0.160363 0.685954 -0.097392
C33   C     C_R   0.286686 0.902362 0.364281 0.104949
C34   C     C_R   0.361113 0.559961 0.053618 0.044047
C35   C     C_R   0.382109 0.091529 0.446440 -0.199056
C36   C     C_R   0.313252 0.000784 0.364778 -0.135074
C37   C     C_R   0.307897 0.898263 0.449420 -0.107271
C38   C     C_R   0.373727 0.990286 0.533898 -0.087941
C39   C     C_R   0.418830 0.085028 0.529256 0.163410
C40   C     C_R   0.724187 0.314736 0.748860 -0.152511
C41   C     C_R   0.507697 0.168261 0.604326 -0.324323
C42   C     C_R   0.482952 0.083245 0.701144 0.384278
C43   C     C_R   0.400762 0.990990 0.622335 0.333476
C44   C     C_R   0.121633 0.139728 0.144921 0.095150
C45   C     C_R   0.217327 0.702942 0.266158 -0.221572
C46   C     C_R   0.021704 0.125305 0.090871 0.055396
C47   C     C_R   0.935424 0.033043 0.068746 -0.179499
C48   C     C_R   0.951936 0.952814 0.087847 -0.170360
C49   C     C_R   0.053759 0.960577 0.122571 0.080370
C50   C     C_R   0.136593 0.055949 0.151068 -0.012200
C51   C     C_3   0.241618 0.092106 0.148565 0.524306
C52   C     C_R   0.296267 0.496966 0.078740 -0.113849
C53   C     C_3   0.229676 0.191264 0.151612 -0.755786
C54   C     C_R   0.110445 0.540676 0.811376 -0.054819
C55   C     C_R   0.919784 0.203604 0.002558 -0.129503
C56   C     C_R   0.758711 0.571584 0.982639 -0.136203
C57   C     C_R   0.010356 0.200028 0.053947 0.061868
C58   C     C_3   0.349611 0.876257 0.141245 0.223504
C59   C     C_3   0.456268 0.926441 0.224574 -0.314954
C60   C     C_3   0.506204 0.046271 0.268015 -0.830145
C61   C     C_3   0.397713 0.483021 0.860586 0.113429
C62   C     C_3   0.383966 0.429419 0.760612 -0.273559
C63   C     C_3   0.377506 0.319472 0.734755 -0.918086
C64   C     C_3   0.206323 0.037134 0.986570 0.215954
C65   C     C_3   0.204758 0.954834 0.902500 -0.384262
C66   C     C_3   0.146248 0.956640 0.812900 -0.846280
C67   C     C_R   0.892610 0.391184 0.173576 -0.151396
C68   C     C_R   0.082934 0.790629 0.990915 -0.054881
C69   C     C_R   0.912373 0.708846 0.916826 -0.152929
H1    H     H_    0.170052 0.328621 0.134232 0.114509
H2    H     H_    0.666214 0.741505 0.974454 0.228977
H3    H     H_    0.856946 0.415097 0.678808 0.097761
H4    H     H_    0.593298 0.597190 0.902921 0.184706
H5    H     H_    0.135092 0.422793 0.386066 0.121403
H6    H     H_    0.797542 0.276726 0.251252 0.127056
H7    H     H_    0.219767 0.482994 0.545299 0.187268
H8    H     H_    0.790503 0.251637 0.385591 0.126343
H9    H     H_    0.880025 0.321933 0.555314 0.140001
H10   H     H_    0.550178 0.233809 0.594811 0.150489
H11   H     H_    0.693793 0.161660 0.848782 0.167286
H12   H     H_    0.762030 0.633586 0.963443 0.120775
H13   H     H_    0.411329 0.165741 0.443858 0.117327
H14   H     H_    0.286841 0.008984 0.302362 0.166329
H15   H     H_    0.278045 0.822910 0.448663 0.187246
H16   H     H_    0.856131 0.019951 0.032246 0.160611
H17   H     H_    0.885459 0.880681 0.067470 0.143211
H18   H     H_    0.304921 0.108594 0.213189 0.052605
H19   H     H_    0.281546 0.260453 0.220745 0.188309
H20   H     H_    0.328231 0.653751 0.984296 0.194140
H21   H     H_    0.230848 0.211661 0.094633 0.194542
H22   H     H_    0.700370 0.354033 0.709411 0.098756
H23   H     H_    0.812846 0.331826 0.143442 0.110444
H24   H     H_    0.319866 0.469394 0.129195 0.088650
H25   H     H_    0.193009 0.565936 0.830361 0.176021
H26   H     H_    0.839946 0.151090 0.983175 0.122622
H27   H     H_    0.218713 0.677221 0.319087 0.152688
H28   H     H_    0.355095 0.918922 0.098689 0.180199
H29   H     H_    0.331621 0.794955 0.094911 0.069221
H30   H     H_    0.448033 0.900836 0.278046 0.193277
H31   H     H_    0.509818 0.899085 0.200773 0.219731
H32   H     H_    0.521863 0.073038 0.217008 0.259433
H33   H     H_    0.581629 0.079153 0.329142 0.239364
H34   H     H_    0.163003 0.836682 0.007947 0.168577
H35   H     H_    0.454210 0.076828 0.291151 0.253809
H36   H     H_    0.405581 0.868963 0.959025 0.369907
H37   H     H_    0.325091 0.439220 0.864684 0.135571
H38   H     H_    0.461930 0.476522 0.907949 0.110796
H39   H     H_    0.311129 0.423737 0.712445 0.213449
H40   H     H_    0.450995 0.477269 0.752051 0.214157
H41   H     H_    0.451955 0.324255 0.779028 0.300839
H42   H     H_    0.364288 0.281691 0.661076 0.262987
H43   H     H_    0.311750 0.270098 0.743688 0.275744
H44   H     H_    0.221958 0.756970 0.805006 0.364680
H45   H     H_    0.833791 0.681016 0.866007 0.115196
H46   H     H_    0.370030 0.117638 0.868321 0.361793
H47   H     H_    0.314676 0.880768 0.752880 0.383843
H48   H     H_    0.260641 0.113697 0.995975 0.107202
H49   H     H_    0.125729 0.030551 0.970581 0.123660
H50   H     H_    0.286450 0.970687 0.912326 0.216152
H51   H     H_    0.165369 0.874805 0.894087 0.214473
H52   H     H_    0.061976 0.930597 0.797708 0.252646
H53   H     H_    0.152953 0.902297 0.754094 0.304043
H54   H     H_    0.178966 0.037003 0.818955 0.261922
H55   H     H_    0.144818 0.493949 0.293014 0.093948
H56   H     H_    0.731493 0.437362 0.100829 0.092522
H57   H     H_    0.494381 0.525540 0.177218 0.119705
H58   H     H_    0.657226 0.525497 0.177035 0.123297
N1    N     N_R   0.055640 0.348550 0.045600 -0.042472
N2    N     N_R   0.811290 0.303400 0.871650 -0.056616
N3    N     N_R   0.205180 0.552990 0.997660 -0.055296
N4    N     N_R   0.814810 0.361830 0.823710 -0.049681
N5    N     N_R   0.201660 0.494570 0.045600 -0.040275
N6    N     N_R   0.068420 0.560530 0.871650 -0.056140
N7    N     N_R   0.948050 0.295860 0.997660 -0.043280
N8    N     N_R   0.185190 0.638170 0.176290 -0.065093
N9    N     N_R   0.798340 0.505430 0.954400 -0.041166
N10   N     N_R   0.931580 0.439470 0.128350 -0.044284
N11   N     N_R   0.051950 0.704140 0.002340 -0.056978
N12   N     N_R   0.944360 0.651450 0.954400 -0.049231
N13   N     N_R   0.039170 0.492150 0.176290 -0.041077
N14   N     N_R   0.188710 0.696600 0.128350 -0.103627
N15   N     N_R   0.794820 0.447010 0.002340 -0.033657
N16   N     N_R   0.960830 0.507850 0.823710 -0.047000
Ni1   Ni    Ni4+2 0.119330 0.493420 0.109950 0.199310
Ni2   Ni    Ni4+2 0.880670 0.506580 0.890050 0.213893
Ni3   Ni    Ni4+2 0.872590 0.372590 0.000000 0.250915
Ni4   Ni    Ni4+2 0.127410 0.627410 0.000000 0.220221
O1    O     O_3   0.269405 0.881191 0.169847 -0.688936
O2    O     O_2   0.544856 0.236514 0.871836 -0.346292
O3    O     O_3   0.362253 0.082293 0.804089 -0.537833
O4    O     O_2   0.222760 0.836547 0.586049 -0.284689
O5    O     O_2   0.366665 0.792965 0.577261 -0.262126
O6    O     O_3   0.376576 0.887819 0.739388 -0.367187
O7    O     O_3   0.244644 0.024022 0.067309 -0.656745
O8    O     O_2   0.588047 0.878993 0.075005 -0.347597
O9    O     O_2   0.548386 0.824795 0.910607 -0.212730
O10   O     O_3   0.394311 0.799634 0.957249 -0.580391
O11   O     O_3   0.410354 0.587346 0.882912 -0.639030
O12   O     O_2   0.319492 0.645312 0.764840 -0.215374
O13   O     O_2   0.241317 0.669488 0.630783 -0.175814
O14   O     O_3   0.162665 0.694032 0.750104 -0.555481
O15   O     O_2   0.536688 0.067803 0.862189 -0.248189
S1    S     S_3+6 0.511064 0.797581 0.977620 -0.014605
S2    S     S_3+6 0.218429 0.628102 0.696102 -0.007632
S3    S     S_3+6 0.485433 0.119251 0.813894 -0.040433
S4    S     S_3+6 0.339463 0.874644 0.630603 0.053419

loop_
_geom_bond_atom_site_label_1
_geom_bond_atom_site_label_2
_ccdc_geom_bond_type
N5    Ni1   S    
C51   O7    S    
C69   N12   A    
C6    C45   A    
O6    S4    S    
C27   C29   A    
C59   H30   S    
N15   Ni3   S    
C68   N11   A    
C35   C36   A    
C3    N14   A    
C68   H34   S    
C22   H7    S    
C3    C6    A    
C4    N16   A    
C56   H12   S    
C39   C41   A    
C20   C30   A    
C26   C27   A    
C62   C63   S    
C8    C20   S    
O13   S2    D    
C9    C69   A    
N1    N7    A    
C30   C31   A    
C58   O1    S    
C62   H39   S    
C36   H14   S    
C23   C40   A    
C64   O7    S    
C11   C13   A    
C33   C36   A    
C64   H49   S    
N16   Ni2   S    
C18   C19   S    
N2    Ni3   S    
C63   H43   S    
N9    N15   A    
C44   C53   S    
C65   H51   S    
H36   O10   S    
O9    S1    D    
C58   H29   S    
C32   C41   A    
C1    N1    A    
C37   H15   S    
C28   H20   S    
N6    Ni4   S    
C4    C12   A    
O10   S1    S    
C28   N3    A    
N9    Ni2   S    
C42   S3    S    
C7    C15   S    
C28   C34   A    
C59   C60   S    
C13   C14   A    
C59   H31   S    
C24   S2    S    
C58   H28   S    
C7    C56   A    
C60   H33   S    
C56   N9    A    
C35   H13   S    
C44   C46   A    
C31   H8    S    
C20   C29   A    
N7    Ni3   S    
N10   N13   A    
C69   H45   S    
N6    N16   A    
C45   N8    A    
C25   H9    S    
C52   N5    A    
N10   Ni3   S    
O2    S3    D    
C55   H26   S    
N11   N12   A    
C51   H18   S    
C5    C7    A    
N14   Ni4   S    
C29   H5    S    
O8    S1    D    
C25   C26   A    
O3    S3    S    
C12   C21   S    
C33   C37   A    
C14   H58   S    
C16   H11   S    
N3    N5    A    
C37   C38   A    
C16   N2    A    
C1    C57   A    
O15   S3    D    
C47   C48   A    
C14   C15   A    
N8    N14   A    
C10   C19   S    
C66   H53   S    
C17   C18   S    
C65   H50   S    
C66   H52   S    
C52   H24   S    
C50   C51   S    
C19   S1    S    
C61   H37   S    
N1    Ni1   S    
H47   O6    S    
C13   H57   S    
C48   C49   A    
C40   N4    A    
C49   C50   A    
C18   H4    S    
C22   C27   A    
C55   C57   A    
C46   C57   S    
C22   C24   A    
C42   C43   A    
C60   H32   S    
O4    S4    D    
C47   H16   S    
C4    H3    S    
O14   S2    S    
C43   S4    S    
C44   C50   A    
C18   H2    S    
C15   C17   A    
C21   C25   A    
C46   C47   A    
N8    Ni1   S    
N3    Ni4   S    
C66   H54   S    
C19   O11   S    
C26   C31   A    
C11   C34   S    
C2    C8    A    
N13   Ni1   S    
C41   H10   S    
O5    S4    D    
C2    H55   S    
C16   C23   A    
C55   N7    A    
C34   C52   A    
C1    H1    S    
C6    C33   S    
C2    N13   A    
C64   C65   S    
C63   H41   S    
C58   C59   S    
C9    C68   A    
C38   C43   A    
C61   O11   S    
C23   C32   S    
C30   H6    S    
C54   N6    A    
C5    N15   A    
C38   C39   A    
C62   H40   S    
C35   C39   A    
H46   O3    S    
C67   H23   S    
N11   Ni4   S    
C45   H27   S    
N4    Ni2   S    
C53   H19   S    
C48   H17   S    
C40   H22   S    
C63   H42   S    
C61   C62   S    
C61   H38   S    
C54   H25   S    
C10   C11   A    
C64   H48   S    
H44   O14   S    
C3    O1    S    
C8    C67   A    
C65   C66   S    
C21   C24   A    
C5    H56   S    
C53   H21   S    
C32   C42   A    
O12   S2    D    
C10   C17   A    
C51   C53   S    
C60   H35   S    
C67   N10   A    
C12   C54   A    
N12   Ni2   S    
N2    N4    A    
