data_mof_unit_52991.cif
_audit_creation_date              2012-12-11T16:20:25-0500
_audit_creation_method            fapswitch 2.2
_symmetry_space_group_name_H-M    P1
_symmetry_Int_Tables_number       1
_space_group_crystal_system       triclinic
_cell_length_a                    6.915512
_cell_length_b                    34.328875
_cell_length_c                    38.33643
_cell_angle_alpha                 99.601634
_cell_angle_beta                  89.622833
_cell_angle_gamma                 90.605726
_cell_volume                      8973.03153344

loop_
_atom_site_label
_atom_site_type_symbol
_atom_type_description
_atom_site_fract_x
_atom_site_fract_y
_atom_site_fract_z
_atom_type_partial_charge
O1    O     O_R   0.494320 0.461440 0.460990 -0.511452
O2    O     O_R   0.821450 0.462560 0.532500 -0.534887
O3    O     O_R   0.994330 0.538560 0.539010 -0.544728
C1    C     C_R   0.651924 0.454759 0.544537 0.707364
O4    O     O_R   0.823870 0.456770 0.460860 -0.533260
O5    O     O_R   0.996760 0.532730 0.466860 -0.551660
C2    C     C_R   0.654435 0.445571 0.448226 0.766785
O6    O     O_R   0.491880 0.467270 0.533140 -0.530878
O7    O     O_3   0.661650 0.524930 0.502050 -0.374963
V1    V     V_3+5 0.935500 0.495380 0.499620 1.520863
O8    O     O_R   0.326630 0.537440 0.467500 -0.509459
C3    C     C_R   0.158789 0.546336 0.456254 0.739781
O9    O     O_R   0.324210 0.543230 0.539140 -0.552092
C4    C     C_R   0.155503 0.553936 0.552147 0.717622
V2    V     V_3+5 0.435810 0.504620 0.500380 1.535798
O10   O     O_3   0.159790 0.475070 0.497950 -0.337558
C5    C     C_R   0.053412 0.834557 0.791474 0.595193
N1    N     N_R   0.047158 0.824023 0.824491 -0.553261
C6    C     C_R   0.053679 0.784994 0.828380 0.584822
C7    C     C_R   0.065664 0.754937 0.798535 -0.035166
C8    C     C_R   0.072661 0.765366 0.764550 -0.015797
C9    C     C_R   0.066864 0.805479 0.760888 -0.041484
C10   C     C_R   0.071345 0.714783 0.801879 -0.130863
C11   C     C_R   0.083708 0.685437 0.771922 -0.128783
C12   C     C_R   0.091191 0.695490 0.737852 -0.039581
C13   C     C_R   0.085661 0.735609 0.734164 -0.016600
C14   C     C_R   0.093171 0.746036 0.700163 -0.034468
C15   C     C_R   0.087115 0.786182 0.696825 -0.128333
C16   C     C_R   0.073999 0.815522 0.726797 -0.126655
C17   C     C_R   0.104447 0.666423 0.707294 0.593859
N2    N     N_R   0.113371 0.677016 0.674351 -0.570388
C18   C     C_R   0.107180 0.715958 0.670349 0.578764
O11   O     O_2   0.044753 0.873009 0.788163 -0.500148
O12   O     O_2   0.050487 0.775238 0.861045 -0.509830
H1    H     H_    0.066153 0.705868 0.827671 0.178604
H2    H     H_    0.087744 0.654846 0.775574 0.178330
O13   O     O_2   0.108562 0.627894 0.710477 -0.498275
O14   O     O_2   0.115619 0.725578 0.637660 -0.508164
H3    H     H_    0.092575 0.795090 0.671031 0.179781
H4    H     H_    0.069684 0.846109 0.723141 0.182418
C19   C     C_R   0.963864 0.635600 0.622895 -0.095909
H5    H     H_    0.828305 0.650356 0.629960 0.178986
C20   C     C_R   0.971972 0.605503 0.593437 -0.185807
H6    H     H_    0.841402 0.597664 0.578329 0.146430
C21   C     C_R   0.146611 0.586042 0.583462 -0.126624
C22   C     C_R   0.312801 0.597411 0.603802 -0.175470
H7    H     H_    0.449088 0.582810 0.596751 0.139619
C23   C     C_R   0.306143 0.627332 0.633616 0.408819
C24   C     C_R   0.128759 0.646666 0.643417 0.275717
C25   C     C_R   0.872228 0.855623 0.878160 -0.071661
H8    H     H_    0.757150 0.833955 0.872003 0.153418
C26   C     C_R   0.860520 0.883597 0.909276 0.325147
C27   C     C_R   0.009376 0.912696 0.917312 -0.153298
C28   C     C_R   0.170366 0.911042 0.894380 -0.168628
H9    H     H_    0.286910 0.932508 0.899672 0.169709
C29   C     C_R   0.182543 0.882145 0.864052 -0.065944
H10   H     H_    0.308700 0.881410 0.847080 0.151842
C30   C     C_R   0.033266 0.854315 0.855572 0.282680
C31   C     C_R   0.129665 0.862037 0.177794 0.689827
O15   O     O_2   0.200635 0.899275 0.184855 -0.470684
N3    N     N_R   0.045089 0.848788 0.145855 -0.552334
C32   C     C_R   0.972302 0.811150 0.137806 0.698020
C33   C     C_R   0.184738 0.880167 0.098315 -0.115734
C34   C     C_R   0.172422 0.905822 0.073819 -0.271668
C35   C     C_R   0.842595 0.922483 0.093071 0.282844
C36   C     C_R   0.856982 0.896419 0.118168 0.326879
C37   C     C_R   0.028430 0.875269 0.120511 0.277827
C38   C     C_R   0.065606 0.798455 0.196106 -0.115663
C39   C     C_R   0.141299 0.837266 0.203436 -0.034046
C40   C     C_R   0.226767 0.850699 0.236216 -0.086768
C41   C     C_R   0.980276 0.785001 0.162778 -0.085557
C42   C     C_R   0.002452 0.927053 0.070662 -0.124145
H11   H     H_    0.289145 0.880122 0.242247 0.183225
C43   C     C_R   0.151079 0.573659 0.429785 -0.086530
C44   C     C_R   0.151697 0.763733 0.282833 0.031561
C45   C     C_R   0.023524 0.708226 0.239740 0.054784
C46   C     C_R   0.091292 0.723632 0.274237 0.066671
C47   C     C_R   0.206348 0.778219 0.318191 -0.170556
C48   C     C_R   0.208473 0.753802 0.343744 -0.118596
C49   C     C_R   0.157150 0.713877 0.335184 -0.038221
C50   C     C_R   0.098876 0.698649 0.300438 -0.046675
C51   C     C_R   0.048362 0.658379 0.291948 -0.040590
C52   C     C_R   0.059737 0.634046 0.318061 0.585301
N4    N     N_R   0.114932 0.649485 0.351903 -0.549450
C53   C     C_R   0.161581 0.688828 0.360787 0.583034
C54   C     C_R   0.301198 0.620422 0.395929 -0.171935
C55   C     C_R   0.314852 0.595901 0.421920 0.328142
C56   C     C_R   0.976883 0.577442 0.411852 -0.272256
C57   C     C_R   0.964467 0.602472 0.386711 -0.093493
C58   C     C_R   0.126703 0.623985 0.378329 0.341839
O16   O     O_2   0.210727 0.703851 0.394385 -0.515716
C59   C     C_R   0.153642 0.788044 0.256097 0.048034
C60   C     C_R   0.074960 0.773342 0.222199 0.072162
C61   C     C_R   0.005128 0.733884 0.214250 -0.000083
C62   C     C_R   0.233084 0.826700 0.261993 -0.169955
H12   H     H_    0.426884 0.636891 0.389323 0.127254
H13   H     H_    0.251424 0.766481 0.370385 0.176150
H14   H     H_    0.244125 0.808706 0.327338 0.130986
H15   H     H_    0.305269 0.839193 0.286145 0.129112
O17   O     O_2   0.892189 0.799316 0.105757 -0.458300
C63   C     C_R   0.903371 0.746275 0.155541 0.421345
H16   H     H_    0.296274 0.908746 0.056973 0.179716
H17   H     H_    0.316640 0.863903 0.100037 0.191815
C64   C     C_R   0.978027 0.667374 0.231925 -0.168033
C65   C     C_R   0.990303 0.643093 0.257488 -0.121247
O18   O     O_2   0.018154 0.595144 0.309486 -0.512917
C66   C     C_R   0.916244 0.721491 0.181121 -0.262214
H18   H     H_    0.936918 0.652790 0.205924 0.133436
H19   H     H_    0.849332 0.560754 0.417092 0.175090
H20   H     H_    0.953699 0.612071 0.250011 0.179288
H21   H     H_    0.827978 0.605037 0.373631 0.140846
H22   H     H_    0.849650 0.692751 0.174636 0.119837
C67   C     C_R   0.463118 0.323672 0.647474 0.633847
O19   O     O_2   0.318788 0.323188 0.623883 -0.510898
N5    N     N_R   0.618559 0.348641 0.646467 -0.551097
C68   C     C_R   0.766214 0.349657 0.670340 0.602841
C69   C     C_R   0.483604 0.404322 0.621396 -0.067863
C70   C     C_R   0.492088 0.431502 0.597849 0.328727
C71   C     C_R   0.781214 0.398858 0.571261 -0.196864
C72   C     C_R   0.773259 0.372629 0.595529 -0.064561
C73   C     C_R   0.624183 0.375054 0.620726 0.270632
C74   C     C_R   0.604773 0.298542 0.697163 -0.060160
C75   C     C_R   0.453418 0.298243 0.672812 -0.077300
C76   C     C_R   0.291759 0.273955 0.675273 -0.213702
C77   C     C_R   0.761189 0.324950 0.696245 -0.030833
C78   C     C_R   0.640811 0.428350 0.571649 -0.154666
H23   H     H_    0.896767 0.395751 0.551810 0.174492
H24   H     H_    0.883037 0.350216 0.594631 0.172394
H25   H     H_    0.168019 0.275754 0.658441 0.170263
C79   C     C_R   0.514701 0.073170 0.929532 -0.244045
C80   C     C_R   0.457752 0.215343 0.744227 -0.041010
C81   C     C_R   0.725805 0.252787 0.776614 0.078565
C82   C     C_R   0.585578 0.221897 0.773520 0.016047
C83   C     C_R   0.353944 0.178847 0.737924 0.459527
C84   C     C_R   0.341917 0.155030 0.764071 -0.165544
C85   C     C_R   0.447422 0.164294 0.795424 -0.124823
C86   C     C_R   0.575837 0.196784 0.799540 -0.046899
C87   C     C_R   0.696189 0.203812 0.829474 -0.035502
C88   C     C_R   0.681060 0.179064 0.855272 0.653736
N6    N     N_R   0.551370 0.148227 0.851236 -0.524650
C89   C     C_R   0.436481 0.140326 0.821886 0.675574
C90   C     C_R   0.657150 0.090341 0.875630 -0.180416
C91   C     C_R   0.645888 0.065265 0.900773 0.328879
C92   C     C_R   0.394944 0.106950 0.932270 0.216780
C93   C     C_R   0.405021 0.131710 0.905969 0.385280
C94   C     C_R   0.538066 0.123267 0.877968 0.234432
O20   O     O_2   0.312349 0.109343 0.818269 -0.498047
C95   C     C_R   0.446694 0.244528 0.721795 0.018624
C96   C     C_R   0.598662 0.272825 0.722686 -0.006376
C97   C     C_R   0.742600 0.276150 0.749309 0.076973
C98   C     C_R   0.283327 0.248355 0.700361 0.413428
H26   H     H_    0.757881 0.083955 0.853709 0.197952
H27   H     H_    0.257508 0.127931 0.758849 0.207851
O21   O     O_2   0.916180 0.374951 0.669444 -0.512478
C99   C     C_R   0.907862 0.326487 0.721424 -0.148448
H28   H     H_    0.370288 0.406903 0.641276 0.171778
H29   H     H_    0.031179 0.346158 0.721113 0.170908
C100  C     C_R   0.844762 0.259078 0.806966 -0.163132
C101  C     C_R   0.829228 0.235191 0.832912 -0.110534
O22   O     O_2   0.795075 0.185752 0.884121 -0.493988
C102  C     C_R   0.897829 0.302990 0.747716 -0.145629
H30   H     H_    0.948088 0.283061 0.811938 0.124324
H31   H     H_    0.923021 0.241409 0.855730 0.179894
H32   H     H_    0.018080 0.305449 0.765727 0.125946
C103  C     C_R   0.577188 0.167175 0.206515 0.703665
N7    N     N_R   0.549172 0.177592 0.173991 -0.535125
C104  C     C_R   0.542198 0.216523 0.170044 0.652606
C105  C     C_R   0.573308 0.247116 0.199376 -0.221327
C106  C     C_R   0.593445 0.236645 0.233247 -0.057261
C107  C     C_R   0.595593 0.196364 0.236817 -0.013897
C108  C     C_R   0.583601 0.287716 0.196105 0.386328
C109  C     C_R   0.600785 0.317040 0.226205 0.382688
C110  C     C_R   0.607511 0.306730 0.260567 -0.215825
C111  C     C_R   0.609893 0.266331 0.263731 -0.052334
C112  C     C_R   0.626778 0.255422 0.297495 -0.002087
C113  C     C_R   0.631606 0.215212 0.300471 -0.127343
C114  C     C_R   0.616607 0.186085 0.270536 -0.112845
C115  C     C_R   0.609265 0.335317 0.291983 0.615904
N8    N     N_R   0.628123 0.324069 0.324462 -0.551821
C116  C     C_R   0.638016 0.285011 0.327629 0.598163
O23   O     O_2   0.587010 0.128647 0.209541 -0.475804
O24   O     O_2   0.500765 0.225372 0.137962 -0.482264
O25   O     O_2   0.586320 0.373932 0.290372 -0.496638
O26   O     O_2   0.658063 0.274798 0.359901 -0.500585
H33   H     H_    0.645713 0.206053 0.326029 0.180109
H34   H     H_    0.619753 0.155419 0.273982 0.182503
C117  C     C_R   0.477696 0.358685 0.379462 -0.113799
H35   H     H_    0.352184 0.339515 0.374142 0.161742
C118  C     C_R   0.481050 0.387947 0.409762 0.341509
C119  C     C_R   0.644608 0.413304 0.416913 -0.141326
C120  C     C_R   0.802453 0.407811 0.393220 -0.195621
H36   H     H_    0.929661 0.426613 0.397752 0.172463
C121  C     C_R   0.797177 0.378590 0.363023 -0.071857
H37   H     H_    0.919793 0.375158 0.345096 0.140377
C122  C     C_R   0.634614 0.353912 0.355879 0.305038
C123  C     C_R   0.687666 0.141582 0.118813 -0.090040
H38   H     H_    0.815314 0.160241 0.123514 0.192664
C124  C     C_R   0.676905 0.113274 0.087997 0.348183
C125  C     C_R   0.511186 0.088127 0.081865 -0.213157
C126  C     C_R   0.356025 0.094376 0.106100 -0.222500
H39   H     H_    0.227023 0.076052 0.101859 0.191205
C127  C     C_R   0.366169 0.123695 0.136289 0.448071
C128  C     C_R   0.534024 0.147175 0.143064 0.212339
O27   O     O_R   0.662230 0.032770 0.966890 -0.519265
O28   O     O_R   0.330090 0.043230 0.039150 -0.529002
O29   O     O_R   0.157350 0.967260 0.033130 -0.554102
C129  C     C_R   0.499665 0.054835 0.051432 0.746423
O30   O     O_R   0.332650 0.037450 0.967510 -0.511075
O31   O     O_R   0.159930 0.961430 0.960980 -0.544983
C130  C     C_R   0.502447 0.046143 0.956188 0.841510
O32   O     O_R   0.659640 0.038600 0.039040 -0.537961
O33   O     O_3   0.492510 0.975090 0.997960 -0.380963
V3    V     V_3+5 0.218600 0.004620 0.000380 1.585343
O34   O     O_R   0.830050 0.956730 0.960830 -0.530962
C131  C     C_R   0.998948 0.945345 0.948349 0.733918
O35   O     O_R   0.827490 0.962520 0.032470 -0.519346
C132  C     C_R   0.995175 0.954159 0.044099 0.744486
V4    V     V_3+5 0.718310 0.995320 0.999580 1.575286
O36   O     O_3   0.994270 0.024900 0.002040 -0.346322
O37   O     O_3   0.704398 0.880646 0.931256 -0.629728
H40   H     H_    0.747003 0.888816 0.956016 0.290471
O38   O     O_3   0.678702 0.944534 0.090312 -0.631424
H41   H     H_    0.577026 0.938164 0.106716 0.343980
Cl1   Cl    Cl    0.665296 0.890179 0.147569 -0.612979
O39   O     O_3   0.485426 0.593818 0.440032 -0.638073
H42   H     H_    0.581660 0.612276 0.432311 0.287668
O40   O     O_3   0.814636 0.732981 0.123461 -0.589146
H43   H     H_    0.769512 0.705320 0.122537 0.301495
Cl2   Cl    Cl    0.794321 0.023167 0.894015 -0.596919
Cl3   Cl    Cl    0.278917 0.156244 0.695274 -0.522024
O41   O     O_3   0.110367 0.230217 0.706771 -0.614012
H44   H     H_    0.011831 0.235777 0.689617 0.314707
O42   O     O_3   0.356329 0.461099 0.602224 -0.627301
H45   H     H_    0.413726 0.484813 0.594530 0.285577
Cl4   Cl    Cl    0.243317 0.119789 0.969795 -0.584239
O43   O     O_3   0.290104 0.164544 0.906629 -0.599197
H46   H     H_    0.187919 0.165016 0.924802 0.369523
O44   O     O_3   0.587982 0.300026 0.163698 -0.562370
H47   H     H_    0.687400 0.284114 0.149174 0.338087
O45   O     O_3   0.620532 0.355504 0.220648 -0.565595
H48   H     H_    0.735622 0.366809 0.234111 0.334074
Cl5   Cl    Cl    0.279757 0.390155 0.438439 -0.624572
O46   O     O_3   0.829049 0.111980 0.064413 -0.604653
H49   H     H_    0.777791 0.104228 0.040172 0.316231
Cl6   Cl    Cl    0.165697 0.130774 0.165055 -0.584724
O47   O     O_3   0.475367 0.636577 0.652200 -0.643140
H50   H     H_    0.454950 0.659769 0.670903 0.301044

loop_
_geom_bond_atom_site_label_1
_geom_bond_atom_site_label_2
_ccdc_geom_bond_type
C63   C66   A    
C108  C109  A    
C82   C86   A    
O30   V3    S    
N5    C73   S    
C9    C16   A    
C3    C43   S    
C99   H29   S    
C81   C97   A    
C66   H22   S    
C90   C94   A    
C64   C65   A    
C6    C7    A    
C95   C98   A    
C64   H18   S    
C1    O6    A    
C80   C83   A    
C50   C51   A    
V3    O36   S    
C113  H33   S    
C32   C41   A    
C103  N7    A    
N8    C122  S    
C21   C22   A    
C99   C102  A    
C34   H16   S    
C42   C132  S    
C13   C14   A    
O31   C131  A    
N4    C58   S    
C59   C60   A    
C15   C16   A    
C65   H20   S    
O35   V4    S    
O5    C3    A    
C17   N2    A    
C62   H15   S    
C104  O24   S    
N5    C68   A    
C103  C107  A    
C29   H10   S    
N1    C6    A    
C19   H5    S    
C51   C65   A    
C90   H26   S    
C127  Cl6   S    
C69   C73   A    
C111  C112  A    
C35   O38   S    
C23   O47   S    
C45   C61   A    
O47   H50   S    
O8    V2    S    
C87   C101  A    
N1    C30   S    
C105  C108  A    
C98   O41   S    
C52   N4    A    
C126  H39   S    
C121  C122  A    
O46   H49   S    
C47   H14   S    
C23   C24   A    
C25   C26   A    
C106  C111  A    
C2    C119  S    
C124  C125  A    
O1    V2    S    
C18   O14   S    
C43   C55   A    
C79   C92   A    
O42   H45   S    
C68   O21   S    
C115  O25   S    
C121  H37   S    
C75   C76   A    
N3    C32   A    
C72   H24   S    
C34   C42   A    
C36   C37   A    
C41   C63   A    
O28   V3    S    
C125  C126  A    
C27   C131  S    
O1    C2    A    
C8    C9    A    
C129  O32   A    
C19   C20   A    
N7    C104  A    
C118  C119  A    
C5    O11   S    
N2    C24   S    
C19   C24   A    
O37   H40   S    
C8    C13   A    
O39   H42   S    
C4    C21   S    
C28   C29   A    
C45   C46   A    
O28   C129  A    
O29   C132  A    
C53   O16   S    
C22   C23   A    
C61   C66   A    
C26   O37   S    
C74   C75   A    
C31   N3    A    
C127  C128  A    
O30   C130  A    
C107  C114  A    
C120  H36   S    
C25   C30   A    
C74   C96   A    
C115  N8    A    
C84   C85   A    
N4    C53   A    
C11   C12   A    
C33   H17   S    
O43   H46   S    
C54   C58   A    
N6    C94   S    
C104  C105  A    
O4    C2    A    
C100  H30   S    
O34   C131  A    
C49   C50   A    
C15   H3    S    
C55   O39   S    
C12   C13   A    
C110  C111  A    
C59   C62   A    
C81   C100  A    
C114  H34   S    
N8    C116  A    
C17   O13   S    
O27   V4    S    
C123  C128  A    
C63   O40   S    
O2    C1    A    
C45   C64   A    
C120  C121  A    
C33   C37   A    
C49   C53   A    
C44   C46   A    
N3    C37   S    
O40   H43   S    
C67   C75   A    
C7    C10   A    
C46   C50   A    
C10   C11   A    
O35   C132  A    
C7    C8    A    
C40   H11   S    
C125  C129  S    
C5    N1    A    
C80   C95   A    
C25   H8    S    
C106  C107  A    
C22   H7    S    
C26   C27   A    
C95   C96   A    
C71   C72   A    
C79   C91   A    
C20   C21   A    
C112  C116  A    
O3    C4    A    
C54   H12   S    
C44   C59   A    
C31   C39   A    
C32   O17   S    
C56   H19   S    
C109  O45   S    
O29   V3    S    
C123  C124  A    
C113  C114  A    
O41   H44   S    
C76   C98   A    
C88   O22   S    
C35   C36   A    
C69   H28   S    
C10   H1    S    
C68   C77   A    
O9    V2    S    
C20   H6    S    
O34   V4    S    
C100  C101  A    
C101  H31   S    
C48   C49   A    
C79   C130  S    
C119  C120  A    
C109  C110  A    
O2    V1    S    
C93   C94   A    
C118  Cl5   S    
C102  H32   S    
C72   C73   A    
C36   Cl1   S    
C67   O19   S    
O7    V1    S    
C12   C17   A    
O32   V4    S    
O44   H47   S    
C105  C106  A    
C92   Cl4   S    
C117  C122  A    
C14   C18   A    
C54   C55   A    
C48   H13   S    
N2    C18   A    
C38   C60   A    
C123  H38   S    
C80   C82   A    
C6    O12   S    
O5    V1    S    
C28   H9    S    
C88   N6    A    
C97   C102  A    
C27   C28   A    
C83   C84   A    
C108  O44   S    
C124  O46   S    
O6    V2    S    
C35   C42   A    
C86   C87   A    
C57   H21   S    
C69   C70   A    
C5    C9    A    
C84   H27   S    
C52   O18   S    
C1    C78   S    
C11   H2    S    
C92   C93   A    
C103  O23   S    
C60   C61   A    
C40   C62   A    
O7    V2    S    
O4    V1    S    
C112  C113  A    
V1    O10   S    
C96   C97   A    
C47   C48   A    
C70   O42   S    
V4    O36   S    
O33   V3    S    
O33   V4    S    
C110  C115  A    
C74   C77   A    
C38   C41   A    
N6    C89   A    
V2    O10   S    
C16   H4    S    
O45   H48   S    
C91   Cl2   S    
C85   C89   A    
C29   C30   A    
C76   H25   S    
C81   C82   A    
N7    C128  S    
C83   Cl3   S    
C39   C40   A    
C38   C39   A    
C44   C47   A    
O31   V3    S    
C117  C118  A    
C87   C88   A    
C89   O20   S    
C33   C34   A    
C71   C78   A    
C77   C99   A    
C31   O15   S    
C56   C57   A    
C126  C127  A    
C51   C52   A    
C93   O43   S    
O27   C130  A    
C14   C15   A    
O3    V1    S    
C90   C91   A    
C85   C86   A    
C117  H35   S    
C70   C78   A    
C43   C56   A    
C57   C58   A    
O9    C4    A    
O38   H41   S    
C116  O26   S    
O8    C3    A    
C67   N5    A    
C71   H23   S    
