data_mof_unit_33530.cif
_audit_creation_date              2012-12-11T17:01:14-0500
_audit_creation_method            fapswitch 2.2
_symmetry_space_group_name_H-M    P1
_symmetry_Int_Tables_number       1
_space_group_crystal_system       triclinic
_cell_length_a                    19.453425
_cell_length_b                    7.129076
_cell_length_c                    17.538038
_cell_angle_alpha                 89.729907
_cell_angle_beta                  108.486147
_cell_angle_gamma                 90.278993
_cell_volume                      2306.71773649

loop_
_atom_site_label
_atom_site_type_symbol
_atom_type_description
_atom_site_fract_x
_atom_site_fract_y
_atom_site_fract_z
_atom_type_partial_charge
O1    O     O_R   0.413720 0.494330 0.415730 -0.540353
O2    O     O_R   0.586280 0.994330 0.584270 -0.540859
O3    O     O_R   0.560210 0.819300 0.430070 -0.532240
O4    O     O_R   0.439790 0.319300 0.569930 -0.550675
C1    C     C_R   0.581788 0.655950 0.415308 0.772788
C2    C     C_R   0.416799 0.154834 0.583218 0.745364
O5    O     O_R   0.412670 0.823730 0.406310 -0.505904
O6    O     O_R   0.587330 0.323730 0.593690 -0.521330
O7    O     O_R   0.437690 0.998790 0.560340 -0.527052
O8    O     O_R   0.562310 0.498790 0.439660 -0.532527
C3    C     C_R   0.386506 0.654736 0.382319 0.804654
C4    C     C_R   0.614401 0.155237 0.616268 0.788056
O9    O     O_3   0.508380 0.662350 0.550560 -0.384055
O10   O     O_3   0.491620 0.162350 0.449440 -0.362502
V1    V     V_3+5 0.498450 0.935370 0.490620 1.608749
V2    V     V_3+5 0.501550 0.435370 0.509380 1.569000
C5    C     C_R   0.695477 0.020846 0.746249 -0.076523
C6    C     C_R   0.257559 0.550796 0.320894 -0.060874
C7    C     C_R   0.684182 0.145599 0.682174 -0.205082
C8    C     C_R   0.318229 0.645078 0.313687 -0.192707
C9    C     C_R   0.744785 0.256692 0.682045 0.620371
C10   C     C_R   0.310483 0.735014 0.239742 0.643247
C11   C     C_R   0.812209 0.242479 0.745456 0.118508
C12   C     C_R   0.244448 0.723931 0.175166 0.098938
C13   C     C_R   0.819860 0.118997 0.811868 -0.183992
C14   C     C_R   0.184155 0.620841 0.183321 -0.199289
C15   C     C_R   0.759536 0.007583 0.807247 0.006976
C16   C     C_R   0.191619 0.544523 0.259760 0.023243
C17   C     C_3   0.729125 0.875926 0.854786 0.244574
C18   C     C_3   0.172894 0.359908 0.290813 0.268246
C19   C     C_3   0.656368 0.890247 0.784847 0.020448
C20   C     C_3   0.249019 0.361477 0.352647 -0.025379
H1    H     H_    0.640739 0.759084 0.749438 0.142939
H2    H     H_    0.250331 0.365969 0.416409 0.149763
C21   C     C_R   0.300769 0.036077 0.603582 0.097757
C22   C     C_R   0.704300 0.721413 0.401272 0.121823
C23   C     C_R   0.365234 0.144379 0.629887 -0.131253
C24   C     C_R   0.633175 0.649973 0.368896 -0.135664
C25   C     C_R   0.380852 0.246225 0.701593 -0.122484
C26   C     C_R   0.610073 0.575896 0.291025 -0.125009
C27   C     C_R   0.334631 0.239196 0.748896 -0.070559
C28   C     C_R   0.656447 0.573784 0.243766 -0.076085
C29   C     C_R   0.269769 0.134243 0.722601 -0.035258
C30   C     C_R   0.727833 0.643627 0.275547 -0.039309
C31   C     C_R   0.252540 0.033015 0.649589 0.112742
C32   C     C_R   0.751830 0.718493 0.354420 0.097561
C33   C     C_R   0.352832 0.334116 0.822594 0.621173
C34   C     C_R   0.631812 0.507433 0.164436 0.618738
C35   C     C_R   0.307021 0.327165 0.870200 0.103368
C36   C     C_R   0.677778 0.505682 0.116935 0.122582
C37   C     C_R   0.240384 0.228832 0.843178 -0.059974
C38   C     C_R   0.750800 0.564323 0.149504 -0.058858
C39   C     C_R   0.221968 0.130861 0.769322 0.010333
C40   C     C_R   0.775164 0.639258 0.228234 0.007558
C41   C     C_R   0.155852 0.029310 0.741958 0.100494
C42   C     C_R   0.846363 0.712871 0.259337 0.101190
C43   C     C_R   0.139801 0.930237 0.669382 -0.145304
C44   C     C_R   0.868898 0.787329 0.337532 -0.134036
C45   C     C_R   0.187192 0.931262 0.624440 -0.137136
C46   C     C_R   0.822758 0.789438 0.384130 -0.133131
C47   C     C_R   0.192130 0.224140 0.888388 -0.136443
C48   C     C_R   0.799835 0.551575 0.105332 -0.130789
C49   C     C_R   0.126717 0.123713 0.861893 -0.106263
C50   C     C_R   0.870465 0.624027 0.135486 -0.107029
C51   C     C_R   0.107583 0.028427 0.787703 0.098421
C52   C     C_R   0.893045 0.711186 0.211578 0.111541
H3    H     H_    0.430356 0.328440 0.721260 0.195289
H4    H     H_    0.555087 0.522987 0.266937 0.196475
H5    H     H_    0.205100 0.296125 0.945362 0.156844
H6    H     H_    0.783395 0.488050 0.046423 0.171212
H7    H     H_    0.090782 0.848476 0.646293 0.173594
H8    H     H_    0.922686 0.843891 0.364494 0.177421
H9    H     H_    0.171126 0.850797 0.569627 0.178939
H10   H     H_    0.843792 0.848504 0.443640 0.175863
O11   O     O_R   0.937800 0.775460 0.060470 -0.521849
O12   O     O_R   0.062200 0.275460 0.939530 -0.540551
O13   O     O_R   0.087350 0.441340 0.093710 -0.534028
O14   O     O_R   0.912650 0.941340 0.906290 -0.524099
C53   C     C_R   0.114673 0.609852 0.116267 0.775724
C54   C     C_R   0.886346 0.110041 0.882609 0.784477
O15   O     O_R   0.939820 0.446010 0.069950 -0.534899
O16   O     O_R   0.060180 0.946010 0.930050 -0.527575
O17   O     O_R   0.913690 0.271230 0.915700 -0.527428
O18   O     O_R   0.086310 0.771230 0.084300 -0.520323
C55   C     C_R   0.918891 0.614267 0.085036 0.752728
C56   C     C_R   0.079970 0.114947 0.913916 0.742268
O19   O     O_3   0.991670 0.603050 0.949510 -0.363537
O20   O     O_3   0.008330 0.103050 0.050490 -0.358578
V3    V     V_3+5 0.001550 0.329940 0.009370 1.582823
V4    V     V_3+5 0.998450 0.829940 0.990630 1.605760
F1    F     F_    0.739124 0.375812 0.619749 -0.642010
F2    F     F_    0.368323 0.824956 0.228717 -0.627429
I1    I     I_    0.344455 0.463313 0.983836 -0.070403
I2    I     I_    0.629968 0.431668 0.993898 -0.056856
I3    I     I_    0.002757 0.898039 0.742526 -0.307175
I4    I     I_    0.997235 0.842242 0.252633 -0.292368
I5    I     I_    0.900775 0.404410 0.735237 -0.180600
I6    I     I_    0.241639 0.856069 0.065175 -0.226261
I7    I     I_    0.737366 0.986919 0.970968 -0.291124
I8    I     I_    0.145956 0.126041 0.210298 -0.229745
I9    I     I_    0.776049 0.603974 0.865628 -0.340190
I10   I     I_    0.091614 0.389339 0.348420 -0.285535
I11   I     I_    0.566418 0.025091 0.807790 -0.224056
I12   I     I_    0.324739 0.172043 0.327686 -0.215969
I13   I     I_    0.274113 0.885916 0.492296 -0.384582
I14   I     I_    0.739043 0.825355 0.522320 -0.250625
F3    F     F_    0.416119 0.431708 0.849161 -0.612015
F4    F     F_    0.562144 0.447793 0.132266 -0.604826

loop_
_geom_bond_atom_site_label_1
_geom_bond_atom_site_label_2
_ccdc_geom_bond_type
C18   C20   S    
C49   C51   A    
C15   C17   S    
C13   C54   S    
O1    C3    A    
O2    C4    A    
C2    O7    A    
C33   C35   A    
O14   V4    S    
O5    C3    A    
O13   V3    S    
O18   V4    S    
C12   I6    S    
C21   C23   A    
C12   C14   A    
C53   O18   A    
O14   C54   A    
C43   C45   A    
C44   C46   A    
C18   I8    S    
C48   H6    S    
C47   C49   A    
C48   C50   A    
O11   V4    S    
C20   H2    S    
C29   C39   A    
C30   C32   A    
C35   C37   A    
C37   C47   A    
C36   C38   A    
C20   I12   S    
C22   C32   A    
C45   H9    S    
O12   V3    S    
O15   V3    S    
C34   C36   A    
O6    V2    S    
C1    C24   S    
C27   C29   A    
C28   C30   A    
C54   O17   A    
C41   C51   A    
C38   C40   A    
C39   C41   A    
O17   V3    S    
C40   C42   A    
C3    C8    S    
C2    C23   S    
C17   I7    S    
C22   I14   S    
C5    C15   A    
C6    C16   A    
O4    C2    A    
C36   I2    S    
O5    V1    S    
O16   C56   A    
C37   C39   A    
C19   I11   S    
O4    V2    S    
C21   I13   S    
C51   I3    S    
O6    C4    A    
C18   I10   S    
C19   H1    S    
C27   C33   A    
O13   C53   A    
C17   I9    S    
O1    V2    S    
C28   C34   A    
C43   H7    S    
O2    V1    S    
C29   C31   A    
C11   I5    S    
C8    C10   A    
C33   F3    S    
C41   C43   A    
C49   C56   S    
C5    C19   S    
C10   C12   A    
O19   V4    S    
C6    C20   S    
C22   C24   A    
C21   C31   A    
O12   C56   A    
C50   C55   S    
O3    V1    S    
C52   I4    S    
C9    F1    S    
C47   H5    S    
C31   C45   A    
C32   C46   A    
C25   H3    S    
O20   V4    S    
C26   C28   A    
O3    C1    A    
C13   C15   A    
C14   C16   A    
C14   C53   S    
O16   V4    S    
C9    C11   A    
O7    V1    S    
C16   C18   S    
C17   C19   S    
O8    V2    S    
O11   C55   A    
C24   C26   A    
C44   H8    S    
C34   F4    S    
C42   C52   A    
C4    C7    S    
C46   H10   S    
C5    C7    A    
C42   C44   A    
C6    C8    A    
C11   C13   A    
C30   C40   A    
C1    O8    A    
O20   V3    S    
C25   C27   A    
C23   C25   A    
C26   H4    S    
O9    V2    S    
O19   V3    S    
C10   F2    S    
O10   V1    S    
C38   C48   A    
C35   I1    S    
O15   C55   A    
C50   C52   A    
C7    C9    A    
