data_mof_unit_10330.cif
_audit_creation_date              2012-12-11T14:34:06-0500
_audit_creation_method            fapswitch 2.2
_symmetry_space_group_name_H-M    P1
_symmetry_Int_Tables_number       1
_space_group_crystal_system       triclinic
_cell_length_a                    13.906766
_cell_length_b                    13.98826
_cell_length_c                    27.30093
_cell_angle_alpha                 90.064939
_cell_angle_beta                  89.87876
_cell_angle_gamma                 119.988352
_cell_volume                      4599.89485585

loop_
_atom_site_label
_atom_site_type_symbol
_atom_type_description
_atom_site_fract_x
_atom_site_fract_y
_atom_site_fract_z
_atom_type_partial_charge
C1    C     C_R   0.233507 0.787607 0.568613 0.541232
C2    C     C_1   0.710272 0.864069 0.859732 -0.074559
C3    C     C_1   0.109380 0.890289 0.851153 -0.077307
C4    C     C_1   0.154074 0.290379 0.859870 -0.075559
C5    C     C_1   0.631486 0.817163 0.658384 -0.057914
C6    C     C_1   0.173430 0.823263 0.654993 -0.055901
C7    C     C_1   0.186313 0.369913 0.658617 -0.057295
C8    C     C_1   0.602841 0.797794 0.616252 0.000746
C9    C     C_1   0.197008 0.808521 0.614324 0.001540
C10   C     C_1   0.195259 0.398007 0.616434 0.001220
C11   C     C_R   0.064572 0.150346 0.095878 0.578564
C12   C     C_R   0.212555 0.446863 0.568929 0.542031
C13   C     C_R   0.777191 0.883676 0.088260 0.545125
C14   C     C_R   0.116199 0.893409 0.088123 0.559680
C15   C     C_R   0.107513 0.220555 0.950837 0.562207
C16   C     C_R   0.779901 0.886963 0.950734 0.547031
C17   C     C_R   0.089853 0.931826 0.943693 0.568376
C18   C     C_R   0.619638 0.896492 0.361644 -0.132445
C19   C     C_R   0.097207 0.732810 0.363085 -0.134009
C20   C     C_R   0.263202 0.356515 0.363906 -0.134551
C21   C     C_R   0.645604 0.911802 0.311919 0.014180
C22   C     C_R   0.080474 0.744199 0.313434 0.014135
C23   C     C_R   0.553142 0.765712 0.568866 0.539624
C24   C     C_R   0.239947 0.305303 0.317825 0.013892
C25   C     C_R   0.680842 0.928787 0.210261 0.016997
C26   C     C_R   0.059688 0.759968 0.211797 0.016943
C27   C     C_R   0.199174 0.224336 0.221049 0.016340
C28   C     C_R   0.232672 0.788405 0.431803 0.546887
C29   C     C_R   0.211603 0.444476 0.431426 0.547774
C30   C     C_R   0.555784 0.767467 0.431959 0.546952
C31   C     C_R   0.654090 0.000869 0.234458 -0.138170
C32   C     C_R   0.975942 0.671285 0.238173 -0.127779
C33   C     C_R   0.300988 0.254518 0.243669 -0.124011
C34   C     C_3   0.667166 0.738983 0.788981 -0.218380
C35   C     C_R   0.636247 0.992262 0.285038 -0.130930
C36   C     C_R   0.986882 0.662724 0.288646 -0.128884
C37   C     C_R   0.321393 0.295086 0.291670 -0.128300
C38   C     C_R   0.703622 0.938976 0.159940 -0.150205
C39   C     C_R   0.049440 0.771047 0.161433 -0.135822
C40   C     C_R   0.181502 0.193814 0.171520 -0.129508
C41   C     C_R   0.727730 0.863922 0.136877 -0.002971
C42   C     C_R   0.134714 0.860853 0.136194 -0.004938
C43   C     C_R   0.082086 0.172077 0.148603 -0.007525
C44   C     C_R   0.659212 0.745633 0.364176 -0.130577
C45   C     C_3   0.242290 0.957674 0.782129 -0.218566
C46   C     C_R   0.267897 0.910569 0.361550 -0.127784
C47   C     C_R   0.075903 0.327665 0.368179 -0.129268
C48   C     C_R   0.682803 0.758021 0.314531 0.013251
C49   C     C_R   0.255891 0.920054 0.311848 0.013703
C50   C     C_R   0.052228 0.278544 0.322107 0.011564
C51   C     C_R   0.673475 0.839680 0.287977 0.063898
C52   C     C_R   0.162892 0.835749 0.287368 0.063269
C53   C     C_R   0.135167 0.269381 0.296267 0.062573
C54   C     C_R   0.707032 0.684270 0.290444 -0.126752
C55   C     C_R   0.339745 0.008831 0.285793 -0.127322
C56   C     C_3   0.088897 0.358456 0.791143 -0.218656
C57   C     C_R   0.949213 0.245219 0.300203 -0.128774
C58   C     C_R   0.718139 0.688733 0.239885 -0.127514
C59   C     C_R   0.333345 0.012434 0.235195 -0.130120
C60   C     C_R   0.930288 0.208143 0.251958 -0.122527
C61   C     C_R   0.708459 0.769081 0.213342 0.010966
C62   C     C_R   0.241221 0.929335 0.210560 0.014265
C63   C     C_R   0.012914 0.201338 0.225452 0.016185
C64   C     C_3   0.564399 0.851943 0.737869 -0.079383
C65   C     C_3   0.128590 0.735704 0.738011 -0.082171
C66   C     C_3   0.295447 0.420420 0.736682 -0.081166
C67   C     C_3   0.645396 0.726377 0.733113 -0.225774
C68   C     C_R   0.688035 0.846269 0.237211 0.065297
C69   C     C_R   0.154382 0.841650 0.236574 0.063910
C70   C     C_R   0.115119 0.229820 0.247847 0.061980
C71   C     C_R   0.722528 0.775278 0.163279 -0.123484
C72   C     C_R   0.232835 0.935233 0.160396 -0.132788
C73   C     C_R   0.996878 0.171759 0.176193 -0.129397
C74   C     C_R   0.619380 0.808674 0.386841 -0.002832
C75   C     C_R   0.194280 0.813195 0.386342 -0.002806
C76   C     C_R   0.182746 0.372031 0.388244 -0.004261
C77   C     C_3   0.771119 0.930181 0.722513 -0.217411
C78   C     C_3   0.258754 0.939672 0.727500 -0.224872
C79   C     C_3   0.055489 0.862263 0.711872 -0.215420
C80   C     C_3   0.137277 0.224328 0.722322 -0.218020
C81   C     C_3   0.789886 0.944455 0.778687 -0.218481
C82   C     C_3   0.038270 0.880535 0.766577 -0.222233
C83   C     C_3   0.129594 0.204031 0.778392 -0.219046
C84   C     C_1   0.736285 0.873510 0.902235 -0.023147
C85   C     C_1   0.099765 0.907938 0.893543 -0.021149
C86   C     C_1   0.137744 0.264160 0.902353 -0.026393
C87   C     C_3   0.653270 0.832522 0.711417 0.056389
C88   C     C_3   0.152991 0.838883 0.706552 0.053587
C89   C     C_3   0.097153 0.378668 0.735137 -0.223476
C90   C     C_3   0.179913 0.348005 0.711618 0.055207
C91   C     C_3   0.585466 0.863648 0.794221 -0.210592
C92   C     C_3   0.109075 0.754451 0.792552 -0.206584
C93   C     C_3   0.286297 0.397461 0.792880 -0.210154
C94   C     C_3   0.688203 0.853080 0.806797 0.056259
C95   C     C_3   0.124106 0.871104 0.799410 0.054464
C96   C     C_3   0.165031 0.312666 0.806963 0.056379
C97   C     C_1   0.562306 0.949322 0.718259 0.164950
C98   C     C_1   0.033305 0.633097 0.719053 0.164758
C99   C     C_1   0.382674 0.402904 0.714769 0.166653
Cr1   Cr    Cr6+3 0.164410 0.584450 0.499910 1.031000
Cr2   Cr    Cr6+3 0.415550 0.579960 0.499910 1.031688
Cr3   Cr    Cr6+3 0.420040 0.835590 0.499910 1.029736
Cr4   Cr    Cr6+3 0.155170 0.075460 0.019960 1.011772
Cr5   Cr    Cr6+3 0.924540 0.079710 0.019960 1.009772
Cr6   Cr    Cr6+3 0.920290 0.844830 0.019960 1.013227
H1    H     H_    0.598236 0.944105 0.808138 0.126123
H2    H     H_    0.740316 0.729678 0.797487 0.121881
H3    H     H_    0.255870 0.042446 0.787219 0.119075
H4    H     H_    0.001211 0.298996 0.801210 0.126392
H5    H     H_    0.706464 0.006521 0.139309 0.104408
H6    H     H_    0.973740 0.713619 0.142534 0.113590
H7    H     H_    0.246407 0.191324 0.150469 0.122486
H8    H     H_    0.590340 0.946585 0.379397 0.128062
H9    H     H_    0.039077 0.658407 0.382475 0.123909
H10   H     H_    0.345470 0.389514 0.379421 0.125733
H11   H     H_    0.647026 0.063766 0.214306 0.098040
H12   H     H_    0.024554 0.691476 0.805286 0.128442
H13   H     H_    0.902992 0.607842 0.219667 0.098162
H14   H     H_    0.366181 0.250368 0.223682 0.100945
H15   H     H_    0.613952 0.047582 0.303022 0.099857
H16   H     H_    0.922778 0.592099 0.308184 0.101336
H17   H     H_    0.401977 0.321498 0.307796 0.102762
H18   H     H_    0.739066 0.715484 0.145548 0.128846
H19   H     H_    0.299309 0.004139 0.140811 0.123217
H20   H     H_    0.919173 0.152169 0.158715 0.118453
H21   H     H_    0.734563 0.629648 0.221530 0.097933
H22   H     H_    0.399806 0.080645 0.215381 0.094449
H23   H     H_    0.341878 0.365774 0.804710 0.126594
H24   H     H_    0.852741 0.188941 0.234748 0.110427
H25   H     H_    0.713794 0.621035 0.310483 0.101896
H26   H     H_    0.411836 0.073517 0.304358 0.097461
H27   H     H_    0.885023 0.252301 0.319645 0.103901
H28   H     H_    0.661248 0.679409 0.383922 0.129512
H29   H     H_    0.341595 0.974478 0.379555 0.132257
H30   H     H_    0.012602 0.337409 0.387013 0.131893
H31   H     H_    0.834917 0.914536 0.705635 0.107772
H32   H     H_    0.073363 0.936994 0.690400 0.109454
H33   H     H_    0.053899 0.172495 0.705611 0.109241
H34   H     H_    0.480669 0.779239 0.731183 0.087953
H35   H     H_    0.782140 0.007921 0.706258 0.135283
H36   H     H_    0.977702 0.792350 0.696895 0.134680
H37   H     H_    0.193584 0.198206 0.705666 0.131242
H38   H     H_    0.804540 0.027296 0.789760 0.120890
H39   H     H_    0.952522 0.818425 0.778035 0.115329
H40   H     H_    0.183848 0.170017 0.788798 0.113690
H41   H     H_    0.865734 0.941201 0.788364 0.103030
H42   H     H_    0.047121 0.963521 0.771002 0.103136
H43   H     H_    0.042917 0.141195 0.788294 0.106509
H44   H     H_    0.561582 0.654168 0.726047 0.127295
H45   H     H_    0.202123 0.724097 0.736201 0.088769
H46   H     H_    0.330959 0.926450 0.723877 0.142453
H47   H     H_    0.124613 0.466996 0.727920 0.127431
H48   H     H_    0.706979 0.709158 0.715012 0.133560
H49   H     H_    0.278614 0.015338 0.706306 0.138041
H50   H     H_    0.013471 0.328629 0.718423 0.140802
H51   H     H_    0.594472 0.671881 0.808575 0.118645
H52   H     H_    0.305522 0.951296 0.804632 0.124981
H53   H     H_    0.113209 0.437170 0.810706 0.118478
H54   H     H_    0.321889 0.509031 0.730997 0.088231
H55   H     H_    0.511120 0.797926 0.813489 0.097531
H56   H     H_    0.169348 0.745359 0.816061 0.102318
H57   H     H_    0.313546 0.476102 0.813042 0.097618
N1    N     N_1   0.560916 0.025661 0.702856 -0.302073
N2    N     N_1   0.958747 0.552712 0.704197 -0.299323
N3    N     N_1   0.451042 0.389273 0.697598 -0.292431
O1    O     O_R   0.137150 0.468200 0.553200 -0.503762
O2    O     O_R   0.140110 0.470540 0.446010 -0.521305
O3    O     O_R   0.529460 0.669570 0.446010 -0.520713
O4    O     O_R   0.330430 0.859890 0.446010 -0.524194
O5    O     O_R   0.176710 0.690910 0.450560 -0.502505
O6    O     O_R   0.309090 0.485800 0.450560 -0.501174
O7    O     O_R   0.514200 0.823290 0.450560 -0.505139
O8    O     O_3   0.333333 0.666667 0.499990 -0.269912
O9    O     O_R   0.176750 0.985260 0.074180 -0.529976
O10   O     O_R   0.014740 0.191490 0.074180 -0.503734
O11   O     O_R   0.808510 0.823250 0.074180 -0.519772
O12   O     O_R   0.531800 0.668950 0.553200 -0.504051
O13   O     O_R   0.146100 0.172630 0.068980 -0.491310
O14   O     O_R   0.827370 0.973470 0.068980 -0.517676
O15   O     O_R   0.026530 0.853900 0.068980 -0.491088
O16   O     O_3   0.000000 0.000000 0.020040 -0.267512
O17   O     O_R   0.148270 0.170520 0.969620 -0.511344
O18   O     O_R   0.829480 0.977750 0.969620 -0.498483
O19   O     O_R   0.022250 0.851730 0.969620 -0.485794
O20   O     O_R   0.331050 0.862850 0.553200 -0.501255
O21   O     O_R   0.179100 0.982980 0.967000 -0.503036
O22   O     O_R   0.017020 0.196120 0.967000 -0.500405
O23   O     O_R   0.803880 0.820900 0.967000 -0.514313
O24   O     O_R   0.173970 0.688730 0.549930 -0.495265
O25   O     O_R   0.311270 0.485240 0.549930 -0.493879
O26   O     O_R   0.514760 0.826030 0.549930 -0.493291

loop_
_geom_bond_atom_site_label_1
_geom_bond_atom_site_label_2
_ccdc_geom_bond_type
C92   H56   S    
C25   C31   A    
C13   O11   A    
C26   C32   A    
C55   C59   A    
C65   C92   S    
C18   C21   A    
C56   H4    S    
C57   H27   S    
Cr2   O8    S    
Cr1   O24   S    
C17   O19   A    
C77   H35   S    
C6    C9    T    
C13   C41   S    
C82   H42   S    
C16   O18   A    
C40   H7    S    
C29   C76   S    
C27   C33   A    
Cr3   O8    S    
C48   C54   A    
C34   H51   S    
Cr4   O21   S    
C46   C49   A    
C81   H38   S    
C60   C63   A    
C17   C85   S    
C34   H2    S    
C32   C36   A    
Cr6   O23   S    
C71   H18   S    
C47   C76   A    
C12   O1    A    
C30   C74   S    
C73   H20   S    
C26   C39   A    
C89   H50   S    
Cr5   O14   S    
C67   H44   S    
C59   H22   S    
Cr4   O17   S    
C15   O17   A    
C16   C84   S    
C8    C23   S    
C6    C88   S    
C20   C76   A    
Cr1   O1    S    
C7    C10   T    
C65   H45   S    
C39   C42   A    
C66   H54   S    
C56   H53   S    
C52   C69   A    
C4    C96   S    
C2    C84   T    
C43   C73   A    
C89   H47   S    
C20   C24   A    
C97   N1    T    
Cr6   O11   S    
C11   C43   S    
C45   C78   S    
C77   H31   S    
C38   H5    S    
C17   O21   A    
C64   C87   S    
C45   H3    S    
C14   C42   S    
C61   C71   A    
C58   C61   A    
C39   H6    S    
Cr5   O16   S    
C46   C75   A    
C18   C74   A    
C83   H40   S    
C72   H19   S    
C91   H1    S    
C35   H15   S    
C25   C68   A    
C80   C83   S    
C53   C70   A    
C18   H8    S    
C23   O26   A    
C79   C88   S    
C78   H46   S    
Cr3   O26   S    
C47   C50   A    
C79   C82   S    
C40   C43   A    
Cr3   O7    S    
C54   H25   S    
C48   C51   A    
C50   C53   A    
Cr1   O5    S    
Cr3   O20   S    
C2    C94   S    
C19   C22   A    
C1    C9    S    
C38   C41   A    
C82   H39   S    
Cr2   O25   S    
C16   O23   A    
C78   H49   S    
C57   C60   A    
C63   C73   A    
C19   H9    S    
C24   C53   A    
C13   O14   A    
C7    C90   S    
C15   O22   A    
Cr4   O9    S    
C33   C37   A    
C37   H17   S    
C62   C69   A    
C67   C87   S    
C66   C99   S    
C34   C67   S    
Cr2   O3    S    
C92   H12   S    
C25   C38   A    
C46   H29   S    
C63   C70   A    
C77   C81   S    
C27   C40   A    
C49   C52   A    
C42   C72   A    
C24   C37   A    
C45   H52   S    
C11   O13   A    
C29   O6    A    
C44   C74   A    
C30   O7    A    
C91   H55   S    
C27   C70   A    
C10   C12   S    
C15   C86   S    
C28   O5    A    
C56   C89   S    
C79   H32   S    
C33   H14   S    
C93   C96   S    
C55   H26   S    
C66   C93   S    
C31   C35   A    
C3    C85   T    
C5    C8    T    
Cr6   O15   S    
C45   C95   S    
C31   H11   S    
C21   C51   A    
C12   O25   A    
C65   C88   S    
C22   C52   A    
C54   C58   A    
C78   C88   S    
C44   H28   S    
C56   C96   S    
Cr5   O22   S    
C64   C97   S    
C59   C62   A    
C82   C95   S    
C47   H30   S    
Cr4   O16   S    
C50   C57   A    
C11   O10   A    
C34   C94   S    
C32   H13   S    
C60   H24   S    
C65   C98   S    
C20   H10   S    
C98   N2    T    
C58   H21   S    
C21   C35   A    
C1    O20   A    
C22   C36   A    
C80   H37   S    
C41   C71   A    
C67   H48   S    
Cr4   O13   S    
C29   O2    A    
C19   C75   A    
C36   H16   S    
C93   H23   S    
C30   O3    A    
C14   O9    A    
C49   C55   A    
C91   C94   S    
C81   C94   S    
C61   C68   A    
C79   H36   S    
C93   H57   S    
Cr3   O4    S    
C80   H33   S    
C83   C96   S    
Cr1   O2    S    
C66   C90   S    
Cr5   O10   S    
Cr2   O6    S    
C51   C68   A    
C92   C95   S    
Cr6   O19   S    
C80   C90   S    
C23   O12   A    
Cr2   O12   S    
C83   H43   S    
C5    C87   S    
C28   O4    A    
C62   C72   A    
Cr5   O18   S    
C4    C86   T    
C77   C87   S    
C81   H41   S    
Cr1   O8    S    
C26   C69   A    
C3    C95   S    
C64   C91   S    
Cr6   O16   S    
C89   C90   S    
C28   C75   S    
C14   O15   A    
C44   C48   A    
C99   N3    T    
C64   H34   S    
C1    O24   A    
