data_mof_unit_5790.cif
_audit_creation_date              2012-12-10T17:49:30-0500
_audit_creation_method            fapswitch 2.2
_symmetry_space_group_name_H-M    P1
_symmetry_Int_Tables_number       1
_space_group_crystal_system       triclinic
_cell_length_a                    14.729164
_cell_length_b                    14.79512
_cell_length_c                    15.866362
_cell_angle_alpha                 76.391207
_cell_angle_beta                  102.773808
_cell_angle_gamma                 115.239341
_cell_volume                      3010.88707993

loop_
_atom_site_label
_atom_site_type_symbol
_atom_type_description
_atom_site_fract_x
_atom_site_fract_y
_atom_site_fract_z
_atom_type_partial_charge
C1    C     C_R   0.880445 0.312499 0.510428 0.802893
C2    C     C_3   0.026560 0.413969 0.072891 -0.446215
C3    C     C_3   0.994656 0.498496 0.082118 0.296113
C4    C     C_3   0.074598 0.601325 0.042159 -0.018011
C5    C     C_3   0.070933 0.603556 0.942864 -0.430000
C6    C     C_1   0.997239 0.498314 0.174994 -0.055156
C7    C     C_1   0.998755 0.499746 0.824544 -0.095750
C8    C     C_1   0.999334 0.499881 0.749095 -0.194866
C9    C     C_R   0.813870 0.204683 0.509694 -0.115953
C10   C     C_R   0.188626 0.794805 0.474096 -0.046693
C11   C     C_R   0.788970 0.026484 0.545752 0.094485
C12   C     C_R   0.999804 0.499945 0.659573 0.832850
C13   C     C_R   0.851566 0.129548 0.546672 -0.254327
C14   C     C_R   0.713298 0.176653 0.468347 0.082358
C15   C     C_R   0.643779 0.075618 0.488633 0.031248
C16   C     C_R   0.682896 0.999285 0.520966 0.078516
C17   C     C_R   0.537225 0.048940 0.479076 0.075982
C18   C     C_R   0.469684 0.945490 0.486768 0.066622
C19   C     C_R   0.511145 0.871279 0.510100 -0.220237
C20   C     C_R   0.614865 0.897587 0.528489 -0.233992
C21   C     C_R   0.497300 0.122706 0.470081 -0.224518
C22   C     C_R   0.393930 0.097380 0.461304 -0.259360
C23   C     C_R   0.119863 0.687519 0.484371 0.793806
C24   C     C_R   0.326318 0.996891 0.464029 0.169340
C25   C     C_R   0.363228 0.919893 0.475743 0.087005
C26   C     C_R   0.222016 0.972324 0.457209 -0.204828
C27   C     C_R   0.153536 0.871646 0.462930 -0.201231
C28   C     C_R   0.292075 0.819651 0.477357 -0.251716
C29   C     C_R   0.733488 0.689961 0.370339 -0.018204
C30   C     C_R   0.805535 0.646788 0.385435 0.006922
C31   C     C_R   0.712164 0.509393 0.486000 0.311229
C32   C     C_R   0.627174 0.538079 0.460935 -0.084983
C33   C     C_R   0.642474 0.633973 0.408449 0.083815
C34   C     C_R   0.000068 0.499870 0.340419 0.818801
C35   C     C_R   0.529763 0.477428 0.489015 0.096302
C36   C     C_R   0.456315 0.519307 0.480502 0.103062
C37   C     C_R   0.478573 0.618606 0.435190 -0.233403
C38   C     C_R   0.567355 0.672747 0.397165 -0.203413
C39   C     C_R   0.500712 0.373592 0.518884 -0.249285
C40   C     C_R   0.412436 0.316097 0.555100 -0.225053
C41   C     C_R   0.345124 0.358543 0.559361 0.101620
C42   C     C_R   0.363389 0.459583 0.517443 -0.051461
C43   C     C_R   0.259572 0.301672 0.603959 -0.013635
C44   C     C_R   0.199462 0.351308 0.612443 0.303320
C45   C     C_3   0.030004 0.416048 0.975631 -0.393498
C46   C     C_R   0.285228 0.493913 0.511224 -0.041922
C47   C     C_3   0.889136 0.477797 0.931281 -0.411414
C48   C     C_3   0.886811 0.482280 0.028179 -0.043450
C49   C     C_1   0.999478 0.498920 0.250877 -0.190131
C50   C     C_3   0.997462 0.499518 0.916468 0.290075
Cu1   Cu    Cu3+1 0.081750 0.475690 0.522550 0.918149
Cu2   Cu    Cu3+1 0.918250 0.524310 0.477450 0.952899
H1    H     H_    0.974318 0.337934 0.100774 0.169792
H2    H     H_    0.108146 0.430241 0.966819 0.167116
H3    H     H_    0.102841 0.425153 0.110709 0.165811
H4    H     H_    0.640394 0.836299 0.550574 0.146954
H5    H     H_    0.315055 0.759017 0.480172 0.141521
H6    H     H_    0.073621 0.853938 0.459217 0.147613
H7    H     H_    0.366777 0.156758 0.453387 0.150669
H8    H     H_    0.930654 0.152544 0.573822 0.153843
H9    H     H_    0.978907 0.340787 0.956695 0.168410
H10   H     H_    0.465809 0.791263 0.520491 0.139619
H11   H     H_    0.545734 0.200719 0.473386 0.178630
H12   H     H_    0.193630 0.030923 0.448979 0.132343
H13   H     H_    0.576704 0.746716 0.359962 0.142166
H14   H     H_    0.285927 0.562805 0.469208 0.137478
H15   H     H_    0.399295 0.237879 0.580725 0.160143
H16   H     H_    0.874257 0.684603 0.355810 0.140893
H17   H     H_    0.862002 0.534244 0.886618 0.150158
H18   H     H_    0.427291 0.655775 0.425895 0.126276
H19   H     H_    0.544533 0.334306 0.512515 0.139901
H20   H     H_    0.837394 0.402457 0.912890 0.163864
H21   H     H_    0.871740 0.550239 0.026232 0.149316
H22   H     H_    0.148449 0.622153 0.929215 0.155200
H23   H     H_    0.046463 0.663614 0.901967 0.167656
H24   H     H_    0.151212 0.606023 0.075526 0.150077
N1    N     N_R   0.795410 0.560790 0.443550 -0.183707
N2    N     N_R   0.204590 0.439170 0.556520 -0.202081
O1    O     O_R   0.977910 0.338120 0.529720 -0.608165
O2    O     O_R   0.839850 0.379180 0.491640 -0.545754
O3    O     O_R   0.069060 0.479460 0.639610 -0.599676
O4    O     O_R   0.931000 0.520530 0.601530 -0.535838
O5    O     O_R   0.160150 0.620820 0.508360 -0.591422
O6    O     O_R   0.022090 0.661880 0.470280 -0.595464
O7    O     O_R   0.069000 0.479470 0.398470 -0.572265
O8    O     O_R   0.930940 0.520540 0.360390 -0.584404
N3    N     N_3   0.061797 0.688971 0.057833 -0.603732
H25   H     H_    0.126401 0.753771 0.043089 0.218984
H26   H     H_    0.000695 0.699537 0.015306 0.213595
C51   C     C_3   0.832449 0.945112 0.572967 -0.398861
C52   C     C_3   0.948615 0.983300 0.588156 -0.369903
C53   C     C_3   0.982592 0.895890 0.603566 -0.846845
H27   H     H_    0.956153 0.842719 0.663815 0.253823
H28   H     H_    0.951730 0.854272 0.546937 0.254034
H29   H     H_    0.066590 0.925954 0.611416 0.245498
H30   H     H_    0.980486 0.037424 0.529983 0.221713
H31   H     H_    0.978979 0.021639 0.646758 0.209199
H32   H     H_    0.802957 0.895992 0.633858 0.193255
H33   H     H_    0.804458 0.898116 0.519970 0.198346
N4    N     N_3   0.686390 0.247014 0.398343 -0.588484
H34   H     H_    0.626452 0.206550 0.354615 0.213932
H35   H     H_    0.745630 0.284333 0.360368 0.221965
C54   C     C_3   0.142386 0.316499 0.690983 -0.381472
C55   C     C_3   0.197391 0.388113 0.759454 -0.311043
C56   C     C_3   0.287944 0.368852 0.815463 -0.879170
H36   H     H_    0.262052 0.292571 0.855937 0.243573
H37   H     H_    0.342458 0.375421 0.773647 0.262658
H38   H     H_    0.327452 0.425787 0.860209 0.240140
H39   H     H_    0.224925 0.468487 0.727272 0.245288
H40   H     H_    0.143150 0.377201 0.803489 0.202089
H41   H     H_    0.064118 0.311295 0.670757 0.203081
H42   H     H_    0.132765 0.239090 0.724405 0.164297
C57   C     C_3   0.752829 0.794908 0.316091 -0.422142
C58   C     C_3   0.856549 0.851624 0.283104 -0.357446
C59   C     C_3   0.868685 0.957282 0.234171 -0.846552
H43   H     H_    0.808878 0.952245 0.176692 0.250566
H44   H     H_    0.863761 0.002888 0.278203 0.252673
H45   H     H_    0.943878 0.996204 0.210791 0.241326
H46   H     H_    0.918116 0.859736 0.339510 0.214845
H47   H     H_    0.864141 0.808982 0.237815 0.216548
H48   H     H_    0.692713 0.787280 0.258537 0.203112
H49   H     H_    0.746592 0.842785 0.357285 0.202150
N5    N     N_3   0.722453 0.443197 0.566397 -0.541689
H50   H     H_    0.682565 0.445361 0.612285 0.196389
H51   H     H_    0.699196 0.369493 0.554954 0.222323
C60   C     C_3   0.226364 0.187725 0.633649 -0.424453
C61   C     C_3   0.285184 0.160580 0.721697 -0.336041
C62   C     C_3   0.265640 0.048322 0.739647 -0.862395
H52   H     H_    0.183757 0.001531 0.742574 0.255883
H53   H     H_    0.290245 0.028730 0.687499 0.259685
H54   H     H_    0.309040 0.030754 0.803455 0.240654
H55   H     H_    0.367880 0.205717 0.722928 0.220647
H56   H     H_    0.260936 0.177371 0.775407 0.221329
H57   H     H_    0.144074 0.151184 0.638037 0.176738
H58   H     H_    0.234085 0.153256 0.581887 0.196532
C63   C     C_3   0.796893 0.389301 0.067392 -0.413599
C64   C     C_3   0.745502 0.417471 0.125842 -0.358311
C65   C     C_3   0.656957 0.325015 0.161304 -0.854812
H59   H     H_    0.597686 0.294216 0.106645 0.252756
H60   H     H_    0.683411 0.265291 0.199123 0.246750
H61   H     H_    0.623171 0.346911 0.205155 0.250877
H62   H     H_    0.800167 0.449923 0.181962 0.237284
H63   H     H_    0.716365 0.475108 0.087294 0.213155
H64   H     H_    0.737145 0.355884 0.013868 0.203093
H65   H     H_    0.821869 0.328761 0.105175 0.204783

loop_
_geom_bond_atom_site_label_1
_geom_bond_atom_site_label_2
_ccdc_geom_bond_type
C10   C27   A    
N3    H25   S    
C60   C61   S    
C41   C42   A    
C36   C42   A    
C35   C36   A    
C64   H62   S    
C3    C6    S    
C62   H52   S    
Cu1   O7    S    
C58   C59   S    
C7    C8    T    
C13   H8    S    
C28   H5    S    
C25   C28   A    
C56   H37   S    
C26   C27   A    
C37   C38   A    
C23   O5    A    
C21   C22   A    
C36   C37   A    
C24   C26   A    
C46   H14   S    
C2    H3    S    
C42   C46   A    
C55   H39   S    
N5    H51   S    
C19   H10   S    
C15   C16   A    
C29   C33   A    
C3    C48   S    
C54   H41   S    
C18   C19   A    
C34   O8    A    
C45   H9    S    
C5    H22   S    
Cu2   O6    S    
C9    C13   A    
C61   H55   S    
C47   H17   S    
C26   H12   S    
C52   H30   S    
C30   N1    A    
C57   H49   S    
C31   C32   A    
C59   H44   S    
C40   H15   S    
Cu1   O3    S    
C63   H65   S    
C8    C12   S    
C64   H63   S    
C37   H18   S    
C41   C43   A    
C18   C25   A    
C43   C60   S    
N4    H35   S    
C55   C56   S    
C44   C54   S    
C31   N1    A    
C47   C50   S    
C2    C45   S    
C56   H38   S    
C4    H24   S    
C23   O6    A    
Cu1   Cu2   S    
C32   C35   A    
N5    H50   S    
C1    C9    S    
C24   C25   A    
C52   C53   S    
C4    N3    S    
C9    C14   A    
C63   C64   S    
C2    H1    S    
C53   H29   S    
C17   C21   A    
C3    C4    S    
C54   H42   S    
C34   O7    A    
C5    H23   S    
C35   C39   A    
C43   C44   A    
C29   C30   A    
C11   C16   A    
C47   C48   S    
C38   H13   S    
C16   C20   A    
C59   H45   S    
C53   H28   S    
C17   C18   A    
C12   O4    A    
C58   H47   S    
C52   H31   S    
Cu2   O4    S    
C65   H60   S    
C40   C41   A    
C60   H58   S    
N3    H26   S    
C1    O1    A    
C22   C24   A    
C5    C50   S    
Cu2   N1    S    
C62   H54   S    
Cu1   O5    S    
C51   H33   S    
C22   H7    S    
C46   N2    A    
C57   C58   S    
C56   H36   S    
C10   C28   A    
C15   C17   A    
C29   C57   S    
C34   C49   S    
C48   H21   S    
C48   C63   S    
C61   H56   S    
C7    C50   S    
C4    C5    S    
C65   H61   S    
C62   H53   S    
C45   H2    S    
C14   N4    S    
C10   C23   S    
C64   C65   S    
C33   C38   A    
C32   C33   A    
C19   C20   A    
C44   N2    A    
C2    C3    S    
Cu1   N2    S    
C31   N5    S    
C63   H64   S    
C55   H40   S    
C11   C13   A    
C11   C51   S    
C51   C52   S    
C58   H46   S    
C45   C50   S    
C27   H6    S    
Cu2   O8    S    
C53   H27   S    
C12   O3    A    
C20   H4    S    
C6    C49   T    
Cu1   O1    S    
C47   H20   S    
C21   H11   S    
C65   H59   S    
C39   C40   A    
C57   H48   S    
C60   H57   S    
C54   C55   S    
C1    O2    A    
C39   H19   S    
C14   C15   A    
N4    H34   S    
C59   H43   S    
Cu2   O2    S    
C51   H32   S    
C30   H16   S    
C61   C62   S    
