data_mof_unit_48529.cif
_audit_creation_date              2012-12-11T17:07:28-0500
_audit_creation_method            fapswitch 2.2
_symmetry_space_group_name_H-M    P1
_symmetry_Int_Tables_number       1
_space_group_crystal_system       triclinic
_cell_length_a                    6.98155
_cell_length_b                    14.629642
_cell_length_c                    16.021116
_cell_angle_alpha                 89.88898
_cell_angle_beta                  89.708305
_cell_angle_gamma                 89.817817
_cell_volume                      1636.32547182

loop_
_atom_site_label
_atom_site_type_symbol
_atom_type_description
_atom_site_fract_x
_atom_site_fract_y
_atom_site_fract_z
_atom_type_partial_charge
O1    O     O_R   0.505720 0.583900 0.413310 -0.545829
O2    O     O_R   0.175940 0.594920 0.586080 -0.545470
O3    O     O_R   0.005640 0.416100 0.586690 -0.532833
C1    C     C_R   0.344397 0.618286 0.613496 0.694034
O4    O     O_R   0.176000 0.594930 0.413930 -0.548082
O5    O     O_R   0.005700 0.416110 0.413310 -0.538953
C2    C     C_R   0.344585 0.614586 0.383660 0.748321
O6    O     O_R   0.505660 0.583890 0.586690 -0.542237
O7    O     O_3   0.339200 0.441330 0.500000 -0.354309
V1    V     V_3+5 0.064350 0.510880 0.500000 1.415658
O8    O     O_R   0.675980 0.405080 0.413920 -0.519969
C3    C     C_R   0.845178 0.384496 0.384403 0.734779
O9    O     O_R   0.675920 0.405070 0.586070 -0.539630
C4    C     C_R   0.844551 0.382964 0.614444 0.686731
V2    V     V_3+5 0.564340 0.489120 0.500000 1.445100
O10   O     O_3   0.839360 0.558670 0.500000 -0.386327
H1    H     H_    0.072838 0.086200 0.509329 0.094605
C5    C     C_R   0.719341 0.427190 0.782509 -0.124916
C6    C     C_R   0.664525 0.452116 0.863084 -0.093336
C7    C     C_R   0.682264 0.390136 0.928470 -0.134015
C8    C     C_R   0.753126 0.302463 0.913584 -0.126547
C9    C     C_R   0.808481 0.274966 0.832264 0.067092
C10   C     C_R   0.793339 0.339036 0.765420 0.061245
C11   C     C_R   0.879792 0.185645 0.817127 -0.179114
C12   C     C_R   0.935608 0.160460 0.735137 0.073430
C13   C     C_R   0.923829 0.224985 0.668517 0.073021
C14   C     C_R   0.853723 0.314644 0.683619 -0.182496
C15   C     C_R   0.999513 0.070603 0.717610 -0.139609
C16   C     C_R   0.049086 0.044692 0.636818 -0.123716
C17   C     C_R   0.037240 0.107440 0.571939 -0.132775
C18   C     C_R   0.977687 0.196904 0.587247 -0.139321
H2    H     H_    0.702481 0.477630 0.733837 0.105236
H3    H     H_    0.608319 0.519971 0.874813 0.146733
H4    H     H_    0.640686 0.410014 0.991078 0.118069
H5    H     H_    0.764768 0.256817 0.966556 0.099712
H6    H     H_    0.009200 0.019020 0.765807 0.094011
H7    H     H_    0.095657 0.975342 0.624413 0.108122
H8    H     H_    0.970375 0.242945 0.534407 0.099908
C19   C     C_R   0.720923 0.245047 0.191050 -0.087161
C20   C     C_R   0.880304 0.187524 0.181772 -0.163091
C21   C     C_R   0.027067 0.195182 0.241602 0.420758
C22   C     C_R   0.020539 0.264685 0.303074 -0.305781
H9    H     H_    0.130125 0.267264 0.349952 0.196985
C23   C     C_R   0.858573 0.320177 0.313345 -0.151302
C24   C     C_R   0.708969 0.308177 0.256785 -0.007235
C25   C     C_3   0.505249 0.283863 0.274176 0.331803
C26   C     C_3   0.517640 0.216009 0.202124 -0.369947
H10   H     H_    0.409246 0.342468 0.259592 0.087770
H11   H     H_    0.428783 0.236628 0.147827 0.152977
H12   H     H_    0.506893 0.142462 0.217834 0.206972
C27   C     C_R   0.506959 0.684798 0.737776 0.050731
C28   C     C_R   0.352277 0.684647 0.683202 -0.103177
C29   C     C_R   0.201072 0.745466 0.700826 -0.157202
H13   H     H_    0.078041 0.748286 0.660276 0.117106
C30   C     C_R   0.214070 0.808095 0.767438 -0.122315
H14   H     H_    0.101099 0.857974 0.775227 0.106785
C31   C     C_R   0.376201 0.810303 0.819974 -0.153283
C32   C     C_R   0.515564 0.741657 0.807342 0.036808
C33   C     C_3   0.729657 0.747732 0.799762 0.266475
C34   C     C_3   0.714114 0.694994 0.718586 -0.386792
H15   H     H_    0.786735 0.818222 0.792785 0.048556
H16   H     H_    0.792656 0.628898 0.718001 0.187956
H17   H     H_    0.738022 0.738343 0.662413 0.115717
C35   C     C_R   0.460967 0.760998 0.321506 -0.012143
C36   C     C_R   0.352072 0.681691 0.314577 -0.184956
C37   C     C_R   0.242630 0.670810 0.240932 0.395865
C38   C     C_R   0.255148 0.736906 0.175743 -0.270540
H18   H     H_    0.178723 0.725622 0.118328 0.140432
C39   C     C_R   0.379577 0.812375 0.181283 -0.209482
C40   C     C_R   0.478222 0.822603 0.256342 0.132025
C41   C     C_3   0.680325 0.844708 0.277761 0.175501
C42   C     C_3   0.660390 0.776966 0.350405 -0.461649
H19   H     H_    0.786453 0.825255 0.228855 0.095559
H20   H     H_    0.662619 0.808996 0.413283 0.174019
H21   H     H_    0.753113 0.715857 0.343907 0.142517
O11   O     O_R   0.229140 0.916090 0.913340 -0.545633
O12   O     O_R   0.558860 0.905090 0.086080 -0.542651
O13   O     O_R   0.729100 0.083920 0.086690 -0.538143
C43   C     C_R   0.390178 0.881904 0.113848 0.745175
O14   O     O_R   0.558860 0.905090 0.913930 -0.560689
O15   O     O_R   0.729100 0.083920 0.913310 -0.535560
C44   C     C_R   0.390111 0.881580 0.886200 0.668230
O16   O     O_R   0.229140 0.916080 0.086720 -0.534511
O17   O     O_3   0.395570 0.058660 0.000020 -0.361222
V3    V     V_3+5 0.670450 0.989140 0.000000 1.395011
O18   O     O_R   0.058810 0.094980 0.913910 -0.539417
C45   C     C_R   0.889928 0.117478 0.886090 0.686981
O19   O     O_R   0.058810 0.094980 0.086060 -0.518507
C46   C     C_R   0.889451 0.116763 0.115043 0.763764
V4    V     V_3+5 0.170450 0.010950 0.999970 1.437333
O20   O     O_3   0.895460 0.941370 0.999990 -0.397043
O21   O     O_3   0.467768 0.249795 0.356380 -0.545326
C47   C     C_3   0.566844 0.169137 0.379857 0.113483
H22   H     H_    0.719764 0.170289 0.363364 0.116241
H23   H     H_    0.502448 0.108280 0.350963 0.158157
C48   C     C_3   0.552580 0.158188 0.474028 -0.714186
H24   H     H_    0.400459 0.152057 0.493308 0.217938
H25   H     H_    0.631220 0.095844 0.494018 0.182714
H26   H     H_    0.615042 0.218772 0.505204 0.227655
O22   O     O_3   0.824745 0.691499 0.858267 -0.548206
C49   C     C_3   0.831504 0.734024 0.936588 0.138465
H27   H     H_    0.688007 0.758367 0.956970 0.124809
H28   H     H_    0.936349 0.790726 0.934828 0.152665
C50   C     C_3   0.895222 0.664251 0.000498 -0.738322
H29   H     H_    0.046232 0.643661 0.988756 0.226453
H30   H     H_    0.881280 0.694271 0.063658 0.170470
H31   H     H_    0.801696 0.603163 0.996790 0.223423
O23   O     O_3   0.158354 0.587432 0.224835 -0.557990
C51   C     C_3   0.957617 0.594867 0.232163 0.098475
H32   H     H_    0.915729 0.587436 0.298743 0.138305
H33   H     H_    0.899609 0.660577 0.207557 0.093228
C52   C     C_3   0.867083 0.517100 0.183834 -0.721693
H34   H     H_    0.895302 0.525104 0.116254 0.223025
H35   H     H_    0.932236 0.451519 0.203317 0.231446
H36   H     H_    0.710040 0.515567 0.195237 0.180841
O24   O     O_3   0.696123 0.935346 0.304465 -0.662926
H37   H     H_    0.803142 0.936005 0.344753 0.285626
O25   O     O_3   0.157708 0.124814 0.248718 -0.552823
C53   C     C_3   0.112769 0.073740 0.321167 0.048039
H38   H     H_    0.956193 0.067946 0.332463 0.115174
H39   H     H_    0.178130 0.106312 0.376370 0.138706
C54   C     C_3   0.192074 0.978146 0.312149 -0.713807
H40   H     H_    0.346001 0.982779 0.296842 0.256771
H41   H     H_    0.173310 0.939538 0.371360 0.170331
H42   H     H_    0.116776 0.941961 0.261126 0.226137

loop_
_geom_bond_atom_site_label_1
_geom_bond_atom_site_label_2
_ccdc_geom_bond_type
C30   H14   S    
C49   H27   S    
H1    C17   S    
C21   C22   A    
C29   C30   A    
C6    C7    A    
C1    O6    A    
C50   H30   S    
V3    O20   S    
C26   H11   S    
C29   H13   S    
C28   C29   A    
C12   C15   A    
C13   C14   A    
C16   C17   A    
C22   C23   A    
C1    C28   S    
C34   H17   S    
O21   C47   S    
C15   C16   A    
C51   H33   S    
O5    C3    A    
C17   C18   A    
C25   O21   S    
O4    V1    S    
V2    O10   S    
C31   C44   S    
C48   H26   S    
O23   C51   S    
C34   H16   S    
C5    C6    A    
O25   C53   S    
C50   H29   S    
O8    V2    S    
C48   H25   S    
C41   O24   S    
C40   C41   S    
O1    V2    S    
C10   C14   A    
C21   O25   S    
O7    V1    S    
V4    O20   S    
C19   C24   A    
C7    H4    S    
C53   H39   S    
C37   C38   A    
O12   V3    S    
C33   C34   S    
C49   H28   S    
C8    C9    A    
C33   O22   S    
O17   V4    S    
C42   H21   S    
C52   H35   S    
C52   H34   S    
C26   H12   S    
O12   C43   A    
O13   C46   A    
C25   H10   S    
C33   H15   S    
C5    C10   A    
C11   C12   A    
C42   H20   S    
C6    H3    S    
C51   C52   S    
O11   C44   A    
C19   C20   A    
O4    C2    A    
O18   C45   A    
C12   C13   A    
C24   C25   S    
C38   H18   S    
C38   C39   A    
O2    C1    A    
O14   V3    S    
C2    C36   S    
C53   H38   S    
C16   H7    S    
C48   H24   S    
C7    C8    A    
C27   C32   A    
O17   V3    S    
C50   H31   S    
O15   C45   A    
O3    C4    A    
O13   V3    S    
O14   C44   A    
C20   C21   A    
O19   V4    S    
C47   C48   S    
O6    V2    S    
C35   C40   A    
C30   C31   A    
O18   V4    S    
C4    C14   S    
C9    C11   A    
C39   C43   S    
C5    H2    S    
C22   H9    S    
C54   H41   S    
O2    V1    S    
C23   C24   A    
C19   C26   S    
C53   C54   S    
O16   V4    S    
C25   C26   S    
O1    C2    A    
C37   O23   S    
O5    V1    S    
O8    C3    A    
C8    H5    S    
C49   C50   S    
C47   H22   S    
C20   C46   S    
C18   H8    S    
C35   C36   A    
C54   H42   S    
O9    V2    S    
C32   C33   S    
C27   C28   A    
C3    C23   S    
O3    V1    S    
V1    O10   S    
C51   H32   S    
C43   O16   A    
C31   C32   A    
O22   C49   S    
O24   H37   S    
C35   C42   S    
O7    V2    S    
C39   C40   A    
C11   C45   S    
C13   C18   A    
C41   C42   S    
O19   C46   A    
C15   H6    S    
C47   H23   S    
C36   C37   A    
C41   H19   S    
C9    C10   A    
C27   C34   S    
C54   H40   S    
O9    C4    A    
C52   H36   S    
O15   V3    S    
O11   V4    S    
