data_mof_unit_55399.cif
_audit_creation_date              2013-03-05T15:41:25-0500
_audit_creation_method            fapswitch 2.2
_symmetry_space_group_name_H-M    P1
_symmetry_Int_Tables_number       1
_space_group_crystal_system       monoclinic
_cell_length_a                    12.108252
_cell_length_b                    19.39148
_cell_length_c                    10.911701
_cell_angle_alpha                 90.0
_cell_angle_beta                  110.985
_cell_angle_gamma                 90.0
_cell_volume                      2392.10495084

loop_
_atom_site_label
_atom_site_type_symbol
_atom_site_description
_atom_site_fract_x
_atom_site_fract_y
_atom_site_fract_z
_atom_type_partial_charge
O1    O     O_R   0.267710 0.668200 0.902110 -0.457972
O2    O     O_R   0.732290 0.331800 0.097890 -0.437078
O3    O     O_R   0.732290 0.168200 0.097890 -0.457972
O4    O     O_R   0.267710 0.831800 0.902110 -0.437078
O5    O     O_R   0.099480 0.674460 0.038850 -0.439937
O6    O     O_R   0.900520 0.325540 0.961150 -0.434681
O7    O     O_R   0.900520 0.174460 0.961150 -0.439937
O8    O     O_R   0.099480 0.825540 0.038850 -0.434681
C1    C     C_R   0.088789 0.644426 0.145711 0.560505
C2    C     C_R   0.911259 0.355560 0.854323 0.550757
C3    C     C_R   0.911211 0.144426 0.854289 0.560505
C4    C     C_R   0.088741 0.855560 0.145677 0.550757
O9    O     O_R   0.116720 0.669210 0.267660 -0.438777
O10   O     O_R   0.883280 0.330790 0.732340 -0.542817
O11   O     O_R   0.883280 0.169210 0.732340 -0.438777
O12   O     O_R   0.116720 0.830790 0.267660 -0.542817
O13   O     O_R   0.366710 0.675440 0.427590 -0.535165
O14   O     O_R   0.633290 0.324560 0.572410 -0.512393
O15   O     O_R   0.633290 0.175440 0.572410 -0.535165
O16   O     O_R   0.366710 0.824560 0.427590 -0.512393
C5    C     C_R   0.460859 0.644042 0.420290 0.542197
C6    C     C_R   0.538289 0.357493 0.580019 0.546145
C7    C     C_R   0.539141 0.144042 0.579710 0.542197
C8    C     C_R   0.461711 0.857493 0.419981 0.546145
O17   O     O_R   0.534870 0.669390 0.371760 -0.462903
O18   O     O_R   0.465130 0.330610 0.628240 -0.458011
O19   O     O_R   0.465130 0.169390 0.628240 -0.462903
O20   O     O_R   0.534870 0.830610 0.371760 -0.458011
O21   O     O_R   0.453080 0.674480 0.075160 -0.462482
O22   O     O_R   0.546920 0.325520 0.924840 -0.468404
O23   O     O_R   0.546920 0.174480 0.924840 -0.462482
O24   O     O_R   0.453080 0.825520 0.075160 -0.468404
C9    C     C_R   0.371663 0.645075 0.973703 0.587638
C10   C     C_R   0.628329 0.354915 0.026302 0.607283
C11   C     C_R   0.628336 0.145075 0.026297 0.587639
C12   C     C_R   0.371671 0.854915 0.973698 0.607283
Cr1   Cr    Cr6+3 0.187610 0.750000 0.979860 1.188899
Cr2   Cr    Cr6+3 0.812390 0.250000 0.020140 1.188899
Cr3   Cr    Cr6+3 0.245810 0.750000 0.341640 1.104998
Cr4   Cr    Cr6+3 0.754190 0.250000 0.658360 1.104998
Cr5   Cr    Cr6+3 0.485760 0.750000 0.219910 1.184043
Cr6   Cr    Cr6+3 0.514240 0.250000 0.780090 1.184043
O25   O     O_3   0.306390 0.750000 0.180470 -0.384495
O26   O     O_3   0.693610 0.250000 0.819530 -0.384495
C13   C     C_R   0.517325 0.430690 0.534552 -0.012786
C14   C     C_R   0.480735 0.573426 0.467286 -0.011088
C15   C     C_R   0.482675 0.930690 0.465448 -0.012786
C16   C     C_R   0.519265 0.073426 0.532714 -0.011088
C17   C     C_R   0.334984 0.431152 0.607522 0.182954
C18   C     C_R   0.663581 0.573880 0.392189 0.194266
C19   C     C_R   0.665016 0.931152 0.392478 0.182954
C20   C     C_R   0.336419 0.073880 0.607811 0.194266
C21   C     C_R   0.248547 0.470711 0.618837 -0.110265
C22   C     C_R   0.750953 0.535332 0.380759 -0.095210
C23   C     C_R   0.751453 0.970712 0.381163 -0.110265
C24   C     C_R   0.249047 0.035332 0.619240 -0.095210
C25   C     C_R   0.228748 0.538189 0.585928 -0.112052
C26   C     C_R   0.767861 0.468657 0.409111 -0.156247
C27   C     C_R   0.771252 0.038189 0.414072 -0.112052
C28   C     C_R   0.232139 0.968657 0.590889 -0.156247
C29   C     C_R   0.297973 0.576615 0.539489 0.029339
C30   C     C_R   0.688924 0.431949 0.442402 0.002254
C31   C     C_R   0.702027 0.076615 0.460511 0.029339
C32   C     C_R   0.311076 0.931949 0.557598 0.002254
C33   C     C_R   0.402332 0.542029 0.523005 -0.034648
C34   C     C_R   0.594480 0.464367 0.475688 -0.028919
C35   C     C_R   0.597668 0.042029 0.476994 -0.034648
C36   C     C_R   0.405520 0.964367 0.524312 -0.028919
C37   C     C_R   0.422518 0.465436 0.559047 -0.003032
C38   C     C_R   0.575305 0.539961 0.441716 0.000203
C39   C     C_R   0.577482 0.965436 0.440953 -0.003032
C40   C     C_R   0.424695 0.039961 0.558284 0.000203
H1    H     H_    0.191796 0.455122 0.663821 0.195487
H2    H     H_    0.810089 0.549891 0.334289 0.198986
H3    H     H_    0.808204 0.955122 0.336179 0.195487
H4    H     H_    0.189911 0.049891 0.665711 0.198986
H5    H     H_    0.158857 0.558585 0.608514 0.216653
H6    H     H_    0.843087 0.450598 0.389611 0.191927
H7    H     H_    0.841143 0.058585 0.391486 0.216653
H8    H     H_    0.156913 0.950598 0.610389 0.191927
C41   C     C_2   0.386318 0.929385 0.951546 0.142685
C42   C     C_2   0.613692 0.070609 0.048472 0.124932
C43   C     C_2   0.613682 0.429385 0.048454 0.142685
C44   C     C_2   0.386308 0.570608 0.951528 0.124932
C45   C     C_2   0.488684 0.962459 0.013297 0.026941
C46   C     C_2   0.511320 0.037517 0.986726 0.029029
C47   C     C_2   0.511316 0.462459 0.986703 0.026941
C48   C     C_2   0.488680 0.537517 0.013274 0.029029
C49   C     C_2   0.049183 0.928206 0.124064 -0.029187
C50   C     C_2   0.950805 0.071785 0.875930 -0.026056
C51   C     C_2   0.950817 0.428206 0.875936 -0.029187
C52   C     C_2   0.049195 0.571785 0.124070 -0.026056
C53   C     C_2   0.014373 0.962484 0.007511 0.193458
C54   C     C_2   0.985629 0.037511 0.992489 0.188897
C55   C     C_2   0.985627 0.462484 0.992488 0.193458
C56   C     C_2   0.014371 0.537511 0.007511 0.188897
H9    H     H_    0.938088 0.045809 0.786578 0.148222
H10   H     H_    0.061918 0.954191 0.213416 0.129245
H11   H     H_    0.061912 0.545809 0.213422 0.148222
H12   H     H_    0.938082 0.454192 0.786584 0.129245
Br1   Br    Br    0.270590 0.340856 0.650626 -0.289525
Br2   Br    Br    0.729918 0.663321 0.348580 -0.274251
Br3   Br    Br    0.729410 0.840856 0.349374 -0.289525
Br4   Br    Br    0.270082 0.163321 0.651420 -0.274251
C57   C     C_2   0.258965 0.647531 0.559411 0.323806
H13   H     H_    0.319511 0.687192 0.606268 0.174607
O27   O     O_2   0.159526 0.661833 0.497301 -0.430759
C58   C     C_2   0.748011 0.369509 0.465568 0.334817
H14   H     H_    0.793941 0.375526 0.560700 0.163625
O28   O     O_2   0.724680 0.317300 0.404544 -0.458045
C59   C     C_2   0.741035 0.147531 0.440588 0.323806
H15   H     H_    0.680489 0.187192 0.393732 0.174607
O29   O     O_2   0.840474 0.161833 0.502699 -0.430759
C60   C     C_2   0.251989 0.869509 0.534431 0.334817
H16   H     H_    0.206059 0.875526 0.439300 0.163626
O30   O     O_2   0.275320 0.817300 0.595456 -0.458045
C61   C     C_2   0.422457 0.072756 0.884305 0.162759
H17   H     H_    0.330503 0.083521 0.855231 0.366424
O31   O     O_2   0.358394 0.113009 0.911881 -0.590178
C62   C     C_2   0.577556 0.927223 0.115795 0.156722
H18   H     H_    0.669537 0.916610 0.145143 0.367674
O32   O     O_2   0.641602 0.886979 0.088087 -0.580109
C63   C     C_2   0.577543 0.572756 0.115695 0.162759
H19   H     H_    0.669497 0.583521 0.144769 0.366424
O33   O     O_2   0.641606 0.613009 0.088119 -0.590178
C64   C     C_2   0.422444 0.427223 0.884205 0.156722
H20   H     H_    0.330463 0.416610 0.854857 0.367674
O34   O     O_2   0.358398 0.386979 0.911913 -0.580109
Br5   Br    Br    0.763854 0.031695 0.131214 -0.549946
Br6   Br    Br    0.236198 0.968484 0.869340 -0.537897
Br7   Br    Br    0.236146 0.531695 0.868786 -0.549946
Br8   Br    Br    0.763802 0.468484 0.130660 -0.537897
Br9   Br    Br    0.018660 0.085675 0.150796 -0.379377
Br10  Br    Br    0.981298 0.914307 0.849211 -0.373683
Br11  Br    Br    0.981339 0.585675 0.849204 -0.379376
Br12  Br    Br    0.018701 0.414307 0.150789 -0.373683

loop_
_geom_bond_atom_site_label_1
_geom_bond_atom_site_label_2
_geom_bond_distance
_ccdc_geom_bond_type
C26   C30   1.341975 A    
C43   C47   1.342926 D    
C47   C48   1.527915 S    
O4    C12   1.300528 A    
C64   H20   1.062936 S    
C24   H4    1.053364 S    
O23   Cr6   2.085246 S    
O5    Cr1   2.047130 S    
C55   C56   1.491256 S    
O19   Cr6   2.199269 S    
C60   H16   0.993460 S    
O1    C9    1.300534 A    
C63   H19   1.063433 S    
C45   C46   1.527915 S    
O7    C3    1.350446 A    
C57   O27   1.183831 D    
C18   C22   1.337173 A    
C19   C39   1.498881 A    
C32   C36   1.460240 A    
C23   C27   1.355330 A    
C61   O31   1.211899 D    
C17   Br1   2.039046 S    
C33   C37   1.533478 A    
C63   O33   1.211899 D    
C30   C58   1.382847 S    
C19   Br3   2.039046 S    
O21   C9    1.319421 A    
O20   Cr5   2.199267 S    
C52   C56   1.361264 D    
C54   Br9   1.876520 S    
C58   H14   0.993460 S    
O13   Cr3   2.032147 S    
C1    O9    1.339295 A    
O14   Cr4   2.032145 S    
C22   H2    1.053364 S    
C3    O11   1.339295 A    
C20   Br4   2.038010 S    
C4    O12   1.339472 A    
O3    Cr2   2.183085 S    
C64   O34   1.212323 D    
O24   Cr5   2.085244 S    
O6    Cr2   2.047129 S    
C7    O19   1.290345 A    
C51   H12   1.058589 S    
C29   C57   1.494983 S    
C50   H9    1.058540 S    
C19   C23   1.338517 A    
O1    Cr1   2.183085 S    
C23   H3    1.022793 S    
O2    C10   1.300527 A    
C17   C37   1.498881 A    
C31   C59   1.494983 S    
Cr5   O25   2.057355 S    
Cr6   O26   2.057355 S    
C16   C40   1.427931 A    
C48   C63   1.418587 S    
O8    C4    1.350227 A    
C1    C52   1.479420 S    
C11   C42   1.485235 S    
C62   O32   1.212323 D    
Cr2   O26   2.145984 S    
C50   C54   1.361264 D    
C56   Br11  1.876520 S    
O9    Cr3   2.155321 S    
C31   C35   1.497211 A    
C32   C60   1.382848 S    
O8    Cr1   2.047129 S    
O22   C10   1.319329 A    
C13   C37   1.436295 A    
C25   H5    1.040517 S    
C4    C49   1.479391 S    
C14   C33   1.433519 A    
C53   Br10  1.876531 S    
C2    O10   1.339472 A    
O17   Cr5   2.199268 S    
O16   Cr3   2.032145 S    
C30   C34   1.460240 A    
Cr3   O25   2.134200 S    
C42   C46   1.343136 D    
C51   C55   1.361238 D    
O13   C5    1.319708 A    
C24   C28   1.328115 A    
Cr1   O25   2.145984 S    
C45   C62   1.419047 S    
O15   C7    1.319708 A    
O5    C1    1.350446 A    
C20   C40   1.510254 A    
O2    Cr2   2.183084 S    
O3    C11   1.300533 A    
C12   C41   1.485243 S    
C36   C40   1.509474 A    
C59   O29   1.183831 D    
C53   C54   1.491256 S    
C42   Br5   1.874738 S    
C15   C39   1.436295 A    
C2    C51   1.479391 S    
C18   Br2   2.038010 S    
O23   C11   1.319420 A    
C10   C43   1.485243 S    
C27   H7    1.040517 S    
O24   C12   1.319330 A    
C15   C36   1.463405 A    
C62   H18   1.062936 S    
O18   Cr6   2.199268 S    
C8    O20   1.291183 A    
C5    C14   1.451762 S    
C22   C26   1.328115 A    
C5    O17   1.290346 A    
C28   H8    1.066012 S    
C21   C25   1.355331 A    
C7    C16   1.451762 S    
C59   H15   1.059187 S    
O21   Cr5   2.085246 S    
O14   C6    1.343990 A    
C8    C15   1.495019 S    
C21   H1    1.022792 S    
C44   C48   1.343136 D    
O6    C2    1.350227 A    
C60   O30   1.188875 D    
C25   C29   1.348621 A    
C57   H13   1.059187 S    
C44   Br7   1.874738 S    
C27   C31   1.348621 A    
C49   H10   1.058589 S    
C28   C32   1.341974 A    
C18   C38   1.510254 A    
C43   Br8   1.875008 S    
C61   H17   1.063433 S    
C3    C50   1.479420 S    
C41   Br6   1.875008 S    
C34   C38   1.509474 A    
C17   C21   1.338518 A    
C55   Br12  1.876531 S    
O7    Cr2   2.047130 S    
C58   O28   1.188875 D    
C46   C61   1.418587 S    
C35   C39   1.533478 A    
C16   C35   1.433519 A    
C49   C53   1.361238 D    
C9    C44   1.485235 S    
O11   Cr4   2.155321 S    
C14   C38   1.427931 A    
O15   Cr4   2.032146 S    
C26   H6    1.066012 S    
O12   Cr3   2.155320 S    
O10   Cr4   2.155320 S    
C29   C33   1.497211 A    
Cr4   O26   2.134201 S    
C6    C13   1.495019 S    
O4    Cr1   2.183083 S    
C6    O18   1.291182 A    
C13   C34   1.463405 A    
O22   Cr6   2.085245 S    
O16   C8    1.343990 A    
C47   C64   1.419047 S    
C41   C45   1.342926 D    
C20   C24   1.337173 A    
C52   H11   1.058540 S    
