data_mof_unit_45816.cif
_audit_creation_date              2013-03-05T16:23:59-0500
_audit_creation_method            fapswitch 2.2
_symmetry_space_group_name_H-M    P1
_symmetry_Int_Tables_number       1
_space_group_crystal_system       triclinic
_cell_length_a                    14.973134
_cell_length_b                    15.715738
_cell_length_c                    16.697732
_cell_angle_alpha                 89.949396
_cell_angle_beta                  83.400409
_cell_angle_gamma                 89.42488
_cell_volume                      3902.97428612

loop_
_atom_site_label
_atom_site_type_symbol
_atom_site_description
_atom_site_fract_x
_atom_site_fract_y
_atom_site_fract_z
_atom_type_partial_charge
O1    O     O_R   0.425540 0.623220 0.500000 -0.616506
O2    O     O_R   0.574460 0.376780 0.500000 -0.620791
O3    O     O_R   0.574480 0.623220 0.499990 -0.604521
O4    O     O_R   0.425520 0.376780 0.500010 -0.597085
C1    C     C_R   0.499539 0.662413 0.499889 0.921918
C2    C     C_R   0.500380 0.337544 0.500180 0.885451
O5    O     O_R   0.416730 0.500010 0.615810 -0.599329
O6    O     O_R   0.583270 0.499990 0.384190 -0.605569
O7    O     O_R   0.565670 0.500010 0.615790 -0.614356
O8    O     O_R   0.434330 0.499990 0.384210 -0.601960
C3    C     C_R   0.486126 0.499251 0.653514 0.923375
C4    C     C_R   0.513879 0.499193 0.346419 0.923905
Zn1   Zn    Zn3+2 0.400550 0.500000 0.500010 1.019654
Zn2   Zn    Zn3+2 0.599450 0.500000 0.499990 1.004280
C5    C     C_R   0.474246 0.480688 0.738563 -0.109259
C6    C     C_R   0.526172 0.482119 0.260926 -0.110947
C7    C     C_R   0.514770 0.531219 0.792694 0.463126
C8    C     C_R   0.476290 0.527164 0.208708 0.464916
C9    C     C_R   0.507643 0.506850 0.873524 -0.219112
C10   C     C_R   0.485265 0.503761 0.127419 -0.228065
C11   C     C_R   0.465236 0.430238 0.898386 0.078849
C12   C     C_R   0.538590 0.432948 0.100504 0.081485
C13   C     C_R   0.423111 0.381578 0.844200 -0.045874
C14   C     C_R   0.589199 0.389762 0.152915 -0.045769
C15   C     C_R   0.427219 0.407073 0.764367 -0.254919
C16   C     C_R   0.583464 0.414703 0.232929 -0.251713
C17   C     C_2   0.464866 0.402256 0.982043 0.146077
C18   C     C_2   0.542504 0.406112 0.016224 0.146980
H1    H     H_    0.621165 0.379365 0.273815 0.177522
H2    H     H_    0.396621 0.367736 0.721944 0.171210
H3    H     H_    0.389198 0.323169 0.863276 0.171158
H4    H     H_    0.631514 0.336012 0.132241 0.173105
H5    H     H_    0.450949 0.540321 0.085019 0.137999
H6    H     H_    0.535660 0.546973 0.916881 0.142072
C19   C     C_3   0.421733 0.029925 0.480385 0.593623
C20   C     C_3   0.574944 0.969738 0.520778 0.575436
C21   C     C_3   0.486691 0.973122 0.425111 -0.310249
C22   C     C_3   0.509981 0.026562 0.576087 -0.322886
H7    H     H_    0.476126 0.948804 0.364579 0.162630
H8    H     H_    0.520325 0.050613 0.636787 0.162606
H9    H     H_    0.624045 0.050513 0.404416 0.164191
H10   H     H_    0.372531 0.949037 0.596576 0.167282
C23   C     C_1   0.498120 0.751196 0.499536 -0.160534
C24   C     C_1   0.501177 0.248682 0.500927 -0.160305
C25   C     C_3   0.429466 0.973007 0.554409 -0.306334
C26   C     C_3   0.567231 0.026616 0.446764 -0.307180
C27   C     C_3   0.495957 0.917144 0.499533 0.066970
C28   C     C_3   0.500721 0.082630 0.501599 0.062497
C29   C     C_1   0.496612 0.826416 0.499346 0.018119
C30   C     C_1   0.501332 0.173415 0.501480 0.015788
C31   C     C_3   0.036412 0.563450 0.451575 -0.475319
C32   C     C_3   0.964373 0.434790 0.548355 -0.453317
C33   C     C_3   0.980992 0.487592 0.425468 0.260383
C34   C     C_3   0.019474 0.510830 0.574081 0.305766
H11   H     H_    0.065563 0.614312 0.410917 0.185944
H12   H     H_    0.936450 0.383190 0.588911 0.194278
N1    N     N_1   0.731990 0.500000 0.499970 -0.091136
N2    N     N_1   0.268010 0.500000 0.500030 -0.090473
C35   C     C_3   0.965213 0.573099 0.527151 0.477510
C36   C     C_3   0.034961 0.425327 0.472600 0.463888
C37   C     C_3   0.909873 0.498157 0.500021 -0.164866
C38   C     C_3   0.090322 0.500158 0.499903 -0.132569
C39   C     C_1   0.809983 0.499237 0.500031 0.224852
C40   C     C_1   0.190083 0.499997 0.499910 0.245613
O9    O     O_3   0.552990 0.607862 0.767155 -0.652757
C41   C     C_3   0.646344 0.605005 0.772653 0.107182
H13   H     H_    0.677567 0.545163 0.745858 0.166696
H14   H     H_    0.659321 0.609798 0.836788 0.166419
C42   C     C_3   0.690020 0.680486 0.726099 -0.374825
H15   H     H_    0.678227 0.675755 0.661702 0.247470
H16   H     H_    0.658885 0.740766 0.751079 0.239679
C43   C     C_3   0.790938 0.682639 0.731403 -0.791779
H17   H     H_    0.804336 0.689774 0.795098 0.266891
H18   H     H_    0.820812 0.737392 0.696155 0.261604
H19   H     H_    0.823140 0.623027 0.706317 0.316250
O10   O     O_3   0.427273 0.598593 0.236861 -0.657520
C44   C     C_3   0.336426 0.591213 0.222812 0.125474
H20   H     H_    0.309928 0.526441 0.238621 0.172764
H21   H     H_    0.329409 0.605074 0.158493 0.161495
C45   C     C_3   0.280368 0.656333 0.275384 -0.357669
H22   H     H_    0.284393 0.641561 0.340027 0.232100
H23   H     H_    0.307888 0.721029 0.262717 0.235159
C46   C     C_3   0.182132 0.655799 0.259345 -0.891519
H24   H     H_    0.176406 0.672045 0.195373 0.281651
H25   H     H_    0.143509 0.703752 0.298398 0.249863
H26   H     H_    0.152777 0.592092 0.272878 0.302817
O11   O     O_3   0.077301 0.350091 0.440694 -0.609949
C47   C     C_3   0.012918 0.285928 0.436274 0.114142
H27   H     H_    0.956185 0.308766 0.403867 0.165001
H28   H     H_    0.986420 0.264773 0.498024 0.134865
C48   C     C_3   0.058113 0.209921 0.390425 -0.285533
H29   H     H_    0.085557 0.230410 0.328793 0.255481
H30   H     H_    0.114858 0.186237 0.422117 0.232286
C49   C     C_3   0.992026 0.137668 0.383833 -0.966441
H31   H     H_    0.966169 0.114140 0.444738 0.259072
H32   H     H_    0.026641 0.084287 0.349076 0.274608
H33   H     H_    0.934724 0.159749 0.352137 0.278877
O12   O     O_3   0.925108 0.646892 0.564779 -0.636314
C50   C     C_3   0.940402 0.719249 0.515189 0.091599
H34   H     H_    0.884003 0.764708 0.531497 0.160810
H35   H     H_    0.939035 0.704916 0.449985 0.146689
C51   C     C_3   0.028013 0.762427 0.531255 -0.330147
H36   H     H_    0.021351 0.785582 0.594567 0.240368
H37   H     H_    0.084812 0.716068 0.523404 0.230562
C52   C     C_3   0.049836 0.837246 0.474402 -0.994647
H38   H     H_    0.059082 0.814959 0.410847 0.271628
H39   H     H_    0.113084 0.867336 0.488217 0.268960
H40   H     H_    0.995016 0.885634 0.481917 0.271819
N3    N     N_R   0.629060 0.399968 0.968324 0.195167
O13   O     O_R   0.699127 0.435754 0.992737 -0.356429
O14   O     O_R   0.639639 0.353015 0.903675 -0.382289
N4    N     N_R   0.379770 0.386442 0.029519 0.195747
O15   O     O_R   0.305191 0.413969 0.005178 -0.354343
O16   O     O_R   0.375837 0.338514 0.093429 -0.378321
O17   O     O_3   0.341771 0.068712 0.460451 -0.631454
C53   C     C_3   0.281020 0.006769 0.438606 0.058691
H41   H     H_    0.214478 0.019970 0.473305 0.170532
H42   H     H_    0.299491 0.939885 0.452965 0.122887
C54   C     C_3   0.271618 0.014555 0.348634 -0.318064
H43   H     H_    0.248060 0.079877 0.335540 0.242286
H44   H     H_    0.338126 0.003684 0.313118 0.223936
C55   C     C_3   0.204993 0.950246 0.322493 -0.958039
H45   H     H_    0.227440 0.884308 0.334453 0.266141
H46   H     H_    0.200447 0.957061 0.256897 0.281324
H47   H     H_    0.137258 0.961718 0.355445 0.270282
O18   O     O_3   0.654369 0.929546 0.540044 -0.639037
C56   C     C_3   0.712191 0.990631 0.567265 0.082138
H48   H     H_    0.682912 0.016451 0.626708 0.148954
H49   H     H_    0.724265 0.043758 0.523173 0.134649
C57   C     C_3   0.802274 0.947719 0.577154 -0.326840
H50   H     H_    0.791188 0.892595 0.618781 0.230415
H51   H     H_    0.832987 0.923819 0.517559 0.219114
C58   C     C_3   0.866827 0.009276 0.610672 -0.945704
H52   H     H_    0.878545 0.065242 0.570365 0.258410
H53   H     H_    0.932182 0.976617 0.615140 0.270790
H54   H     H_    0.838854 0.031265 0.671729 0.278220
N5    N     N_R   0.962468 0.473106 0.342832 0.215440
O19   O     O_R   0.028671 0.461862 0.286168 -0.351858
O20   O     O_R   0.880142 0.470182 0.325366 -0.388879
N6    N     N_R   0.038572 0.525403 0.656562 0.234819
O21   O     O_R   0.972898 0.529914 0.714561 -0.352800
O22   O     O_R   0.120973 0.532586 0.672964 -0.376584

loop_
_geom_bond_atom_site_label_1
_geom_bond_atom_site_label_2
_geom_bond_distance
_ccdc_geom_bond_type
C41   H14   1.112907 S    
O11   C47   1.409803 S    
O18   C56   1.409142 S    
C45   H22   1.112141 S    
C14   H4    1.083348 S    
C27   C29   1.425804 S    
C44   H20   1.116631 S    
O5    C3    1.275263 A    
C52   H39   1.110436 S    
C51   C52   1.524797 S    
O1    C1    1.272896 A    
C12   C14   1.393487 A    
C9    C11   1.406798 A    
N6    O22   1.300200 A    
C32   C37   1.562899 S    
C45   C46   1.525175 S    
C51   H37   1.110573 S    
C5    C15   1.402021 A    
C41   C42   1.528464 S    
O17   C53   1.415209 S    
C53   H41   1.111212 S    
C20   C27   1.524575 S    
C36   C38   1.544470 S    
C25   C27   1.541344 S    
O4    Zn1   1.968567 S    
C42   H16   1.111717 S    
C22   C25   1.553705 S    
C38   C40   1.493722 S    
C32   C36   1.558567 S    
C33   C37   1.550261 S    
C33   C36   1.535856 S    
C34   N6    1.457203 S    
C50   H34   1.110435 S    
C19   O17   1.411539 S    
C58   H54   1.110768 S    
O6    Zn2   1.976150 S    
H9    C26   1.110133 S    
C20   C26   1.539001 S    
C21   C27   1.540342 S    
C22   C28   1.542053 S    
C44   H21   1.112194 S    
C41   H13   1.116710 S    
C11   C17   1.463510 S    
C2    C24   1.396525 S    
C6    C16   1.402637 A    
O2    C2    1.274185 A    
C31   C38   1.557030 S    
C3    C5    1.440743 S    
C43   H19   1.109430 S    
C19   C28   1.525381 S    
N4    O16   1.301793 A    
N4    O15   1.301405 A    
C36   O11   1.411467 S    
C32   C34   1.547732 S    
N1    C39   1.167854 T    
C34   C35   1.536507 S    
C54   H44   1.110664 S    
N2    C40   1.167041 T    
C52   H40   1.109852 S    
C26   C28   1.542487 S    
C35   C37   1.544582 S    
C4    C6    1.443287 S    
O10   C44   1.412575 S    
C43   H18   1.110503 S    
C48   H29   1.111971 S    
C23   C29   1.182135 T    
Zn1   N2    1.984501 S    
C34   C38   1.543503 S    
C49   H33   1.111188 S    
C9    H6    1.083350 S    
C31   C33   1.550410 S    
H10   C25   1.110132 S    
C13   H3    1.083318 S    
C42   C43   1.524498 S    
C57   H51   1.111202 S    
O7    Zn2   1.941603 S    
C56   H49   1.114982 S    
C48   H30   1.112266 S    
N5    O20   1.300180 A    
C46   H24   1.110728 S    
C47   C48   1.528783 S    
O6    C4    1.276058 A    
C50   C51   1.533740 S    
C37   C39   1.495582 S    
C49   H31   1.110212 S    
N6    O21   1.299889 A    
C49   H32   1.110067 S    
O7    C3    1.281904 A    
O3    Zn2   1.968568 S    
O8    C4    1.282191 A    
C10   H5    1.082746 S    
O4    C2    1.274153 A    
C46   H25   1.110431 S    
C47   H28   1.113159 S    
C17   N4    1.444813 S    
O12   C50   1.411081 S    
C11   C13   1.394036 A    
C58   H52   1.110083 S    
C33   N5    1.456874 S    
C57   C58   1.525606 S    
O1    Zn1   1.975992 S    
C55   H46   1.110218 S    
C56   H48   1.113176 S    
C19   C25   1.539560 S    
C20   C22   1.540818 S    
C19   C21   1.540274 S    
N5    O19   1.300095 A    
C54   C55   1.525864 S    
C24   C30   1.182887 T    
C15   H2    1.083948 S    
C5    C7    1.397422 A    
Zn2   N1    1.984501 S    
C8    O10   1.387387 S    
C50   H35   1.114547 S    
C20   O18   1.410405 S    
C14   C16   1.385613 A    
C10   C12   1.406620 A    
C43   H17   1.110713 S    
O3    C1    1.274785 A    
O8    Zn1   1.941602 S    
C8    C10   1.397745 A    
C54   H43   1.111829 S    
C18   N3    1.445008 S    
C52   H38   1.110842 S    
C7    O9    1.384576 S    
C53   C54   1.529612 S    
C55   H47   1.109996 S    
N3    O14   1.301789 A    
C57   H50   1.111980 S    
C55   H45   1.111206 S    
C56   C57   1.527787 S    
C21   H7    1.109657 S    
N3    O13   1.301419 A    
C48   C49   1.525944 S    
C22   H8    1.109976 S    
C44   C45   1.528888 S    
C28   C30   1.426865 S    
C7    C9    1.395151 A    
C45   H23   1.111890 S    
C53   H42   1.117050 S    
C31   H11   1.108292 S    
C13   C15   1.386360 A    
C1    C23   1.395255 S    
C51   H36   1.111623 S    
O2    Zn2   1.975993 S    
C42   H15   1.112201 S    
O5    Zn1   1.976150 S    
C46   H26   1.110060 S    
C31   C35   1.562005 S    
C47   H27   1.114643 S    
C16   H1    1.083882 S    
C6    C8    1.399007 A    
O9    C41   1.411555 S    
C17   C18   1.354553 D    
C58   H53   1.110512 S    
C35   O12   1.414515 S    
C12   C18   1.464011 S    
C21   C26   1.553359 S    
C32   H12   1.109846 S    
