data_mof_unit_15410.cif
_audit_creation_date              2013-03-05T15:44:47-0500
_audit_creation_method            fapswitch 2.2
_symmetry_space_group_name_H-M    P1
_symmetry_Int_Tables_number       1
_space_group_crystal_system       triclinic
_cell_length_a                    12.943975
_cell_length_b                    12.956523
_cell_length_c                    15.409213
_cell_angle_alpha                 117.331171
_cell_angle_beta                  64.049843
_cell_angle_gamma                 97.704178
_cell_volume                      2057.06120103

loop_
_atom_site_label
_atom_site_type_symbol
_atom_site_description
_atom_site_fract_x
_atom_site_fract_y
_atom_site_fract_z
_atom_type_partial_charge
C1    C     C_R   0.992072 0.831644 0.062078 -0.010006
H1    H     H_    0.010390 0.892640 0.128643 0.167080
N1    N     N_R   0.037310 0.720000 0.995790 -0.055072
C2    C     C_R   0.698625 0.408190 0.209369 -0.222153
H2    H     H_    0.641775 0.348868 0.179765 0.214689
N2    N     N_R   0.790790 0.446160 0.152010 -0.073699
C3    C     C_R   0.757551 0.507564 0.885883 0.117308
N3    N     N_R   0.824890 0.517960 0.936420 -0.100120
C4    C     C_R   0.035701 0.693538 0.293336 0.229307
N4    N     N_R   0.003210 0.648190 0.211380 -0.085488
C5    C     C_R   0.673543 0.424474 0.993138 0.584615
N5    N     N_R   0.774330 0.457010 0.995840 -0.113288
C6    C     C_R   0.106247 0.796827 0.201185 0.161968
N6    N     N_R   0.053760 0.709140 0.151960 -0.084036
C7    C     C_R   0.792514 0.506220 0.309592 0.673032
N7    N     N_R   0.853860 0.498840 0.211410 -0.109312
C8    C     C_R   0.895405 0.747041 0.962254 -0.164850
H3    H     H_    0.828186 0.729108 0.935118 0.150124
N8    N     N_R   0.974240 0.667310 0.936390 -0.059183
C9    C     C_R   0.903219 0.850836 0.042789 0.175366
C10   C     C_R   0.695922 0.448190 0.309291 -0.139007
C11   C     C_R   0.663073 0.447119 0.918641 -0.138959
C12   C     C_R   0.097753 0.790369 0.291215 -0.088393
C13   C     C_R   0.339570 0.519651 0.955631 0.601509
N9    N     N_R   0.225670 0.542990 0.004160 -0.095950
C14   C     C_R   0.949269 0.179504 0.777797 0.625744
N10   N     N_R   0.946240 0.290860 0.848040 -0.113124
C15   C     C_R   0.203821 0.504464 0.694052 0.586668
N11   N     N_R   0.146140 0.501160 0.788590 -0.103090
C16   C     C_R   0.046355 0.256625 0.092131 -0.098664
H4    H     H_    0.081450 0.278133 0.149869 0.148201
N12   N     N_R   0.025760 0.332690 0.063610 -0.053207
C17   C     C_R   0.946788 0.171922 0.996463 -0.069150
H5    H     H_    0.889245 0.114577 0.966260 0.173950
N13   N     N_R   0.962690 0.280000 0.004210 -0.054106
C18   C     C_R   0.304482 0.587919 0.790401 -0.181150
H6    H     H_    0.365061 0.641113 0.818905 0.217161
N14   N     N_R   0.209210 0.553840 0.847990 -0.075855
C19   C     C_R   0.259214 0.410849 0.042046 -0.193104
H7    H     H_    0.247929 0.350459 0.075045 0.156561
N15   N     N_R   0.175110 0.482040 0.063580 -0.068960
C20   C     C_R   0.043289 0.278437 0.683882 -0.129997
H8    H     H_    0.094970 0.302363 0.620156 0.220140
N16   N     N_R   0.996790 0.351810 0.788620 -0.081479
Ni1   Ni    Ni4+2 0.130310 0.630310 0.999970 0.247998
Ni2   Ni    Ni4+2 0.869690 0.369690 0.000030 0.244348
Ni3   Ni    Ni4+2 0.985640 0.509470 0.863740 0.238141
Ni4   Ni    Ni4+2 0.014360 0.490530 0.136260 0.253485
C21   C     C_R   0.363238 0.429526 0.970868 -0.064480
C22   C     C_R   0.015180 0.167761 0.673314 -0.074203
C23   C     C_R   0.304653 0.554975 0.692625 -0.136747
C24   C     C_R   0.999205 0.152938 0.050135 0.072230
C25   C     C_R   0.148881 0.987217 0.378200 0.237839
C26   C     C_R   0.073197 0.070035 0.476652 0.118257
C27   C     C_R   0.057197 0.062506 0.570176 -0.063332
C28   C     C_R   0.100020 0.958509 0.557224 0.247689
C29   C     C_R   0.136970 0.861536 0.455501 -0.232528
H9    H     H_    0.159140 0.779279 0.446914 0.191939
C30   C     C_R   0.145178 0.873884 0.366889 0.009571
C31   C     C_R   0.598784 0.442103 0.482651 0.258823
C32   C     C_R   0.503720 0.478478 0.580530 -0.232130
H10   H     H_    0.504331 0.459837 0.642071 0.167384
C33   C     C_R   0.406567 0.534505 0.597340 0.125352
C34   C     C_R   0.403182 0.554538 0.517487 -0.085032
H11   H     H_    0.329185 0.597897 0.529499 0.149006
C35   C     C_R   0.497493 0.518758 0.420170 -0.232377
H12   H     H_    0.496453 0.539694 0.360341 0.136107
C36   C     C_R   0.594687 0.463106 0.403011 0.084263
C37   C     C_2   0.476269 0.373243 0.930948 -0.193813
H13   H     H_    0.478531 0.317643 0.965222 0.211562
C38   C     C_2   0.572294 0.414104 0.880156 -0.102329
H14   H     H_    0.571580 0.452964 0.831466 0.215889
C39   C     C_2   0.815522 0.950969 0.111799 -0.362059
H15   H     H_    0.783885 0.984075 0.073989 0.123692
C40   C     C_2   0.765804 0.995576 0.219779 0.564247
O1    O     O_3   0.882075 0.098629 0.807107 -0.631340
C41   C     C_3   0.795449 0.074368 0.769901 -0.174004
H16   H     H_    0.832262 0.023497 0.680502 0.141331
H17   H     H_    0.745361 0.155576 0.797150 0.130992
H18   H     H_    0.734213 0.020141 0.804452 0.180638
O2    O     O_3   0.156110 0.490659 0.625290 -0.631590
C42   C     C_3   0.101258 0.598830 0.660659 -0.093279
H19   H     H_    0.159650 0.670432 0.668096 0.112627
H20   H     H_    0.026325 0.624457 0.739817 0.151640
H21   H     H_    0.070093 0.590382 0.601296 0.217329
I1    I     I_    0.316782 0.047019 0.336268 -0.359888
I2    I     I_    0.986574 0.195014 0.472697 -0.281834
I3    I     I_    0.116926 0.937933 0.679657 -0.421544
I4    I     I_    0.743130 0.355626 0.459981 -0.318433
O3    O     O_3   0.795113 0.950137 0.272151 -0.620842
C43   C     C_3   0.722659 0.009211 0.382942 -0.182592
H22   H     H_    0.629835 0.001398 0.399224 0.134666
H23   H     H_    0.740690 0.102239 0.417001 0.186703
H24   H     H_    0.740712 0.968942 0.425306 0.160880
I5    I     I_    0.808654 0.531986 0.746573 -0.354908
I6    I     I_    0.064594 0.581852 0.349097 -0.368536
O4    O     O_3   0.595937 0.374893 0.055220 -0.636877
C44   C     C_3   0.514153 0.465184 0.147796 -0.316992
H25   H     H_    0.462381 0.504488 0.127303 0.160231
H26   H     H_    0.556212 0.535715 0.193519 0.143128
H27   H     H_    0.453410 0.428057 0.201552 0.200929
I7    I     I_    0.227872 0.885304 0.116935 -0.411680
O5    O     O_3   0.809773 0.581471 0.399744 -0.579280
C45   C     C_3   0.754809 0.692158 0.442553 -0.199940
H28   H     H_    0.659529 0.691165 0.480298 0.138461
H29   H     H_    0.781019 0.724092 0.380552 0.117458
H30   H     H_    0.780400 0.755512 0.506768 0.185002
O6    O     O_3   0.415677 0.596966 0.928706 -0.658398
C46   C     C_3   0.439142 0.673202 0.018149 -0.162955
H31   H     H_    0.361440 0.701782 0.096925 0.146844
H32   H     H_    0.473812 0.751894 0.007843 0.204101
H33   H     H_    0.505789 0.632892 0.022339 0.131133

loop_
_geom_bond_atom_site_label_1
_geom_bond_atom_site_label_2
_geom_bond_distance
_ccdc_geom_bond_type
C35   C36   1.396276 A    
C27   C28   1.420975 A    
C39   C40   1.340249 D    
C39   H15   1.084676 S    
N7    Ni4   1.873131 S    
C45   H29   1.113884 S    
O2    C42   1.411429 S    
C25   C30   1.393660 A    
C3    N3    1.360355 A    
C19   N15   1.348361 A    
C41   H16   1.111369 S    
C28   C29   1.400318 A    
C17   C24   1.388342 A    
C12   C30   1.482278 S    
C14   N10   1.341168 A    
N11   Ni3   1.873129 S    
C3    C11   1.389109 A    
C15   N11   1.333499 A    
C14   C22   1.396732 A    
C16   H4    1.080599 S    
C15   C23   1.375250 A    
N8    Ni3   1.814203 S    
C28   I3    2.125322 S    
C7    N7    1.328417 A    
O4    C44   1.414979 S    
C8    C9    1.378304 A    
O6    C46   1.415381 S    
C6    C12   1.383583 A    
C37   C38   1.338078 D    
C1    H1    1.072896 S    
C32   C33   1.400887 A    
N14   Ni1   1.885890 S    
C40   O3    1.380543 S    
C17   N13   1.344696 A    
N10   N16   1.375213 A    
N11   N14   1.378772 A    
C14   O1    1.380172 S    
N1    N8    1.378787 A    
C25   I1    2.126118 S    
C13   O6    1.380378 S    
C4    N4    1.354309 A    
N16   Ni3   1.815218 S    
C35   H12   1.079440 S    
C21   C37   1.461926 S    
C6    N6    1.334320 A    
N12   Ni4   1.814202 S    
C37   H13   1.080408 S    
C20   N16   1.328593 A    
C45   H28   1.111002 S    
C17   H5    1.077450 S    
N6    Ni1   1.885196 S    
C29   H9    1.074697 S    
C41   H17   1.114774 S    
N12   N13   1.378787 A    
C23   C33   1.416851 S    
C13   N9    1.330887 A    
C2    N2    1.328734 A    
N4    N6    1.375215 A    
C46   H33   1.105288 S    
N9    N15   1.375228 A    
C43   H22   1.115218 S    
C4    C12   1.401678 A    
C31   I4    2.121095 S    
N1    Ni1   1.820803 S    
C31   C32   1.374612 A    
C1    N1    1.351117 A    
C34   C35   1.365703 A    
C43   H23   1.110682 S    
N3    N5    1.375227 A    
C8    H3    1.077433 S    
O1    C41   1.409746 S    
C4    I6    2.130783 S    
C18   C23   1.363441 A    
C20   C22   1.383009 A    
N10   Ni2   1.885198 S    
N5    Ni2   1.821807 S    
C19   C21   1.392272 A    
C42   H19   1.111410 S    
C42   H20   1.103569 S    
C10   C36   1.412604 S    
N4    Ni4   1.815218 S    
C20   H8    1.075589 S    
C44   H27   1.109155 S    
N9    Ni1   1.821808 S    
C11   C38   1.468847 S    
C19   H7    1.077874 S    
C41   H18   1.109154 S    
C13   C21   1.386778 A    
C16   C24   1.386927 A    
C26   C27   1.411287 A    
C18   H6    1.077653 S    
C1    C9    1.384422 A    
N2    Ni2   1.885890 S    
C15   O2    1.380259 S    
C2    H2    1.077273 S    
C5    N5    1.328662 A    
C25   C26   1.378019 A    
C42   H21   1.109335 S    
C3    I5    2.114404 S    
C5    C11   1.370512 A    
C44   H26   1.113086 S    
C22   C27   1.460679 S    
C5    O4    1.373752 S    
C34   H11   1.077452 S    
C18   N14   1.326381 A    
N3    Ni3   1.872077 S    
C38   H14   1.081992 S    
C46   H31   1.113920 S    
C43   H24   1.109925 S    
C16   N12   1.343946 A    
C2    C10   1.365843 A    
O3    C43   1.404005 S    
C26   I2    2.126082 S    
C46   H32   1.108946 S    
C8    N8    1.347568 A    
N15   Ni4   1.872076 S    
C9    C39   1.474496 S    
C32   H10   1.083998 S    
C29   C30   1.403708 A    
N2    N7    1.378773 A    
C33   C34   1.388118 A    
C7    C10   1.370531 A    
C31   C36   1.396557 A    
C44   H25   1.110187 S    
O5    C45   1.411435 S    
C7    O5    1.378331 S    
C6    I7    2.138216 S    
N13   Ni2   1.820805 S    
C45   H30   1.109392 S    
