data_mof_unit_45462.cif
_audit_creation_date              2012-12-11T14:15:03-0500
_audit_creation_method            fapswitch 2.2
_symmetry_space_group_name_H-M    P1
_symmetry_Int_Tables_number       1
_space_group_crystal_system       triclinic
_cell_length_a                    24.509433
_cell_length_b                    17.209364
_cell_length_c                    15.728901
_cell_angle_alpha                 90.000032
_cell_angle_beta                  129.466264
_cell_angle_gamma                 90.000022
_cell_volume                      5121.68881247

loop_
_atom_site_label
_atom_site_type_symbol
_atom_type_description
_atom_site_fract_x
_atom_site_fract_y
_atom_site_fract_z
_atom_type_partial_charge
C1    C     C_R   0.340053 0.374139 0.218189 0.229958
C2    C     C_R   0.636778 0.687462 0.499232 0.065476
C3    C     C_R   0.863222 0.187462 0.500768 0.065476
C4    C     C_R   0.136778 0.187462 0.499232 0.065477
C5    C     C_R   0.350361 0.618910 0.132363 0.113210
C6    C     C_R   0.649639 0.618910 0.867637 0.113210
C7    C     C_R   0.850361 0.118910 0.132363 0.113210
C8    C     C_R   0.149639 0.118910 0.867637 0.113210
C9    C     C_2   0.654298 0.791287 0.413685 -0.066761
C10   C     C_2   0.345702 0.791287 0.586316 -0.066761
C11   C     C_2   0.154298 0.291287 0.413685 -0.066760
C12   C     C_R   0.659947 0.374139 0.781810 0.229959
C13   C     C_2   0.845702 0.291287 0.586316 -0.066761
C14   C     C_2   0.664787 0.762857 0.501732 -0.123711
C15   C     C_2   0.335213 0.762856 0.498269 -0.123711
C16   C     C_2   0.164787 0.262857 0.501732 -0.123711
C17   C     C_2   0.835213 0.262856 0.498269 -0.123710
C18   C     C_2   0.211478 0.336451 0.433443 -0.201017
C19   C     C_2   0.788523 0.336451 0.566558 -0.201015
C20   C     C_2   0.711478 0.836451 0.433443 -0.201016
C21   C     C_2   0.288523 0.836451 0.566558 -0.201015
C22   C     C_2   0.275116 0.303463 0.484228 0.221315
C23   C     C_R   0.840053 0.874139 0.218189 0.229958
C24   C     C_2   0.724884 0.303463 0.515772 0.221315
C25   C     C_2   0.775116 0.803463 0.484228 0.221316
C26   C     C_2   0.224884 0.803463 0.515772 0.221315
C27   C     C_2   0.660593 0.264698 0.889313 -0.259008
C28   C     C_2   0.339407 0.264698 0.110687 -0.259008
C29   C     C_2   0.160593 0.764698 0.889313 -0.259008
C30   C     C_2   0.839407 0.764698 0.110687 -0.259009
C31   C     C_2   0.690470 0.206465 0.874638 0.295294
C32   C     C_2   0.309530 0.206465 0.125362 0.295295
C33   C     C_2   0.190470 0.706465 0.874638 0.295294
C34   C     C_R   0.159947 0.874139 0.781810 0.229959
C35   C     C_2   0.809530 0.706465 0.125362 0.295294
C36   C     C_2   0.302145 0.644886 0.017360 -0.141203
C37   C     C_2   0.697855 0.644886 0.982640 -0.141203
C38   C     C_2   0.802145 0.144886 0.017360 -0.141203
C39   C     C_2   0.197855 0.144886 0.982640 -0.141203
C40   C     C_R   0.607882 0.380063 0.409122 0.597021
C41   C     C_R   0.392118 0.380063 0.590877 0.597021
C42   C     C_R   0.107882 0.880063 0.409122 0.597022
C43   C     C_R   0.892118 0.880063 0.590877 0.597022
C44   C     C_2   0.232668 0.650878 0.963837 -0.156673
C45   C     C_R   0.414747 0.644176 0.592439 -0.107693
C46   C     C_2   0.767332 0.650878 0.036163 -0.156672
C47   C     C_2   0.732668 0.150878 0.963837 -0.156672
C48   C     C_2   0.267332 0.150878 0.036163 -0.156672
C49   C     C_R   0.680016 0.377688 0.593128 -0.134811
C50   C     C_R   0.319984 0.377688 0.406872 -0.134811
C51   C     C_R   0.180016 0.877688 0.593128 -0.134811
C52   C     C_R   0.819984 0.877688 0.406872 -0.134812
C53   C     C_R   0.565572 0.366135 0.772486 -0.157347
C54   C     C_R   0.434428 0.366135 0.227514 -0.157347
C55   C     C_R   0.065572 0.866135 0.772486 -0.157347
C56   C     C_R   0.585253 0.644176 0.407561 -0.107692
C57   C     C_R   0.934428 0.866135 0.227514 -0.157348
C58   C     C_R   0.370626 0.331596 0.183689 0.093282
C59   C     C_R   0.629374 0.331596 0.816311 0.093281
C60   C     C_R   0.870626 0.831596 0.183689 0.093282
C61   C     C_R   0.129374 0.831596 0.816311 0.093281
C62   C     C_R   0.670292 0.347874 0.503600 -0.108986
C63   C     C_R   0.329708 0.347873 0.496400 -0.108986
C64   C     C_R   0.170292 0.847873 0.503600 -0.108986
C65   C     C_R   0.829708 0.847873 0.496400 -0.108986
C66   C     C_R   0.335992 0.642373 0.408776 0.209119
C67   C     C_R   0.914747 0.144176 0.592439 -0.107693
C68   C     C_R   0.664008 0.642373 0.591224 0.209119
C69   C     C_R   0.835992 0.142373 0.408776 0.209119
C70   C     C_R   0.164008 0.142373 0.591224 0.209119
C71   C     C_R   0.421971 0.604913 0.196219 -0.133526
C72   C     C_R   0.578029 0.604913 0.803781 -0.133526
C73   C     C_R   0.921971 0.104913 0.196219 -0.133527
C74   C     C_R   0.078029 0.104913 0.803781 -0.133527
C75   C     C_R   0.668773 0.598096 0.805292 -0.066397
C76   C     C_R   0.331227 0.598096 0.194707 -0.066397
C77   C     C_R   0.168773 0.098096 0.805292 -0.066397
C78   C     C_R   0.085253 0.144176 0.407561 -0.107693
C79   C     C_R   0.831227 0.098096 0.194707 -0.066397
C80   C     C_3   0.600092 0.324050 0.268050 -0.201349
C81   C     C_3   0.399908 0.324049 0.731949 -0.201348
C82   C     C_3   0.100092 0.824050 0.268051 -0.201350
C83   C     C_3   0.899908 0.824049 0.731949 -0.201349
C84   C     C_R   0.363222 0.687462 0.500768 0.065476
H1    H     H_    0.706113 0.788078 0.581984 0.167560
H2    H     H_    0.790578 0.629204 0.000928 0.147991
H3    H     H_    0.709422 0.129205 0.999073 0.147991
H4    H     H_    0.290578 0.129204 0.000928 0.147991
H5    H     H_    0.324800 0.669837 0.982463 0.171340
H6    H     H_    0.675200 0.669837 0.017537 0.171339
H7    H     H_    0.824800 0.169837 0.982463 0.171340
H8    H     H_    0.175200 0.169837 0.017537 0.171339
H9    H     H_    0.662035 0.264804 0.959869 0.154711
H10   H     H_    0.337965 0.264804 0.040131 0.154711
H11   H     H_    0.162035 0.764804 0.959869 0.154711
H12   H     H_    0.293886 0.788078 0.418017 0.167560
H13   H     H_    0.837965 0.764804 0.040131 0.154712
H14   H     H_    0.727493 0.372790 0.676804 0.184698
H15   H     H_    0.272507 0.372790 0.323196 0.184698
H16   H     H_    0.227493 0.872790 0.676804 0.184698
H17   H     H_    0.772507 0.872790 0.323196 0.184698
H18   H     H_    0.531584 0.351729 0.791261 0.165931
H19   H     H_    0.468416 0.351729 0.208739 0.165931
H20   H     H_    0.031584 0.851729 0.791261 0.165931
H21   H     H_    0.968416 0.851729 0.208739 0.165931
H22   H     H_    0.451534 0.603043 0.166683 0.118116
H23   H     H_    0.206114 0.288079 0.581984 0.167560
H24   H     H_    0.548466 0.603043 0.833317 0.118116
H25   H     H_    0.951534 0.103043 0.166683 0.118116
H26   H     H_    0.048466 0.103043 0.833317 0.118116
H27   H     H_    0.721232 0.582633 0.837837 0.151560
H28   H     H_    0.278768 0.582633 0.162163 0.151560
H29   H     H_    0.221232 0.082633 0.837837 0.151560
H30   H     H_    0.778768 0.082632 0.162163 0.151560
H31   H     H_    0.445475 0.660975 0.677583 0.112847
H32   H     H_    0.554525 0.660975 0.322418 0.112847
H33   H     H_    0.945475 0.160975 0.677583 0.112847
H34   H     H_    0.793886 0.288078 0.418017 0.167560
H35   H     H_    0.054525 0.160975 0.322418 0.112847
H36   H     H_    0.614380 0.768042 0.331710 0.148099
H37   H     H_    0.385621 0.768043 0.668291 0.148099
H38   H     H_    0.114380 0.268042 0.331710 0.148099
H39   H     H_    0.885621 0.268043 0.668291 0.148099
H40   H     H_    0.581008 0.271100 0.282754 0.155405
H41   H     H_    0.656000 0.318079 0.303233 0.180355
H42   H     H_    0.568152 0.329541 0.177588 0.178671
H43   H     H_    0.418991 0.271099 0.717245 0.155406
H44   H     H_    0.344000 0.318079 0.696766 0.180354
H45   H     H_    0.201757 0.396680 0.406622 0.167424
H46   H     H_    0.431848 0.329541 0.822411 0.178671
H47   H     H_    0.081008 0.771100 0.282754 0.155406
H48   H     H_    0.156000 0.818080 0.303233 0.180355
H49   H     H_    0.068152 0.829541 0.177589 0.178672
H50   H     H_    0.918992 0.771099 0.717245 0.155406
H51   H     H_    0.844000 0.818079 0.696766 0.180355
H52   H     H_    0.931848 0.829540 0.822411 0.178671
H53   H     H_    0.798244 0.396680 0.593380 0.167424
H54   H     H_    0.701757 0.896680 0.406622 0.167424
H55   H     H_    0.298244 0.896680 0.593380 0.167424
H56   H     H_    0.209422 0.629205 0.999073 0.147991
I1    I     I_    0.229374 0.393816 0.115526 -0.405975
I2    I     I_    0.318089 0.191442 0.268039 -0.321631
I3    I     I_    0.181911 0.691442 0.731962 -0.321631
I4    I     I_    0.818089 0.691442 0.268039 -0.321631
I5    I     I_    0.231737 0.657659 0.257924 -0.444644
I6    I     I_    0.768263 0.657658 0.742076 -0.444644
I7    I     I_    0.731737 0.157659 0.257924 -0.444644
I8    I     I_    0.268263 0.157659 0.742076 -0.444645
I9    I     I_    0.770625 0.393817 0.884474 -0.405975
I10   I     I_    0.729374 0.893816 0.115526 -0.405975
I11   I     I_    0.270626 0.893817 0.884474 -0.405975
I12   I     I_    0.294274 0.181449 0.512895 -0.333571
I13   I     I_    0.705725 0.181449 0.487104 -0.333571
I14   I     I_    0.794274 0.681449 0.512895 -0.333571
I15   I     I_    0.205725 0.681449 0.487104 -0.333571
I16   I     I_    0.681912 0.191442 0.731962 -0.321631
N1    N     N_R   0.389060 0.424180 0.294540 -0.072995
N2    N     N_R   0.374530 0.423490 0.443400 -0.074495
N3    N     N_R   0.125470 0.923490 0.556600 -0.074495
N4    N     N_R   0.874530 0.923490 0.443400 -0.074495
N5    N     N_R   0.555250 0.423100 0.705420 -0.059729
N6    N     N_R   0.444750 0.423100 0.294580 -0.059729
N7    N     N_R   0.055250 0.923100 0.705420 -0.059729
N8    N     N_R   0.944750 0.923100 0.294580 -0.059728
N9    N     N_R   0.375210 0.577180 0.443400 -0.069488
N10   N     N_R   0.624790 0.577180 0.556600 -0.069488
N11   N     N_R   0.875210 0.077180 0.443400 -0.069488
N12   N     N_R   0.610940 0.424180 0.705460 -0.072995
N13   N     N_R   0.124790 0.077180 0.556600 -0.069488
N14   N     N_R   0.445430 0.577570 0.294580 -0.051053
N15   N     N_R   0.554570 0.577570 0.705420 -0.051053
N16   N     N_R   0.945430 0.077570 0.294580 -0.051052
N17   N     N_R   0.054570 0.077570 0.705420 -0.051052
N18   N     N_R   0.611620 0.576500 0.705460 -0.055969
N19   N     N_R   0.388380 0.576500 0.294540 -0.055969
N20   N     N_R   0.111620 0.076500 0.705460 -0.055969
N21   N     N_R   0.888380 0.076500 0.294540 -0.055969
N22   N     N_R   0.421010 0.576890 0.556640 -0.058025
N23   N     N_R   0.889060 0.924180 0.294540 -0.072995
N24   N     N_R   0.578990 0.576890 0.443360 -0.058025
N25   N     N_R   0.921010 0.076890 0.556640 -0.058025
N26   N     N_R   0.078990 0.076890 0.443360 -0.058025
N27   N     N_R   0.110940 0.924180 0.705460 -0.072995
N28   N     N_R   0.579670 0.423790 0.443360 -0.090037
N29   N     N_R   0.420330 0.423790 0.556640 -0.090037
N30   N     N_R   0.079670 0.923790 0.443360 -0.090037
N31   N     N_R   0.920330 0.923790 0.556640 -0.090038
N32   N     N_R   0.625470 0.423490 0.556600 -0.074495
Ni1   Ni    Ni4+2 0.383200 0.500680 0.370150 0.248080
Ni2   Ni    Ni4+2 0.616800 0.500680 0.629850 0.248080
Ni3   Ni    Ni4+2 0.883200 0.000680 0.370150 0.248080
Ni4   Ni    Ni4+2 0.116800 0.000680 0.629850 0.248080
Ni5   Ni    Ni4+2 0.512440 0.500680 0.370150 0.259373
Ni6   Ni    Ni4+2 0.487560 0.500680 0.629850 0.259373
Ni7   Ni    Ni4+2 0.012440 0.000680 0.370150 0.259373
Ni8   Ni    Ni4+2 0.987560 0.000680 0.629850 0.259373
O1    O     O_3   0.590730 0.392045 0.307359 -0.640745
O2    O     O_3   0.409270 0.392044 0.692641 -0.640745
O3    O     O_3   0.090730 0.892045 0.307359 -0.640745
O4    O     O_3   0.909270 0.892044 0.692641 -0.640745

loop_
_geom_bond_atom_site_label_1
_geom_bond_atom_site_label_2
_ccdc_geom_bond_type
N16   N21   A    
C52   N4    A    
C57   H21   S    
C21   C26   D    
C11   C18   S    
C20   C25   D    
N21   Ni3   S    
N31   Ni8   S    
N29   Ni6   S    
C10   H37   S    
N27   Ni4   S    
C4    C70   A    
C31   I16   S    
C53   C59   A    
N8    Ni7   S    
N12   Ni2   S    
C6    C75   A    
C7    C73   A    
C57   N8    A    
C33   I3    S    
C6    C72   A    
N22   Ni6   S    
C30   H13   S    
C50   H15   S    
C37   H6    S    
C19   C24   D    
N3    N30   A    
C28   H10   S    
C42   O3    S    
C3    C69   A    
C70   N13   A    
C2    C68   A    
C10   C15   D    
C54   C58   A    
C13   H39   S    
N20   Ni4   S    
C40   O1    S    
N28   Ni5   S    
C5    C36   S    
C29   C33   D    
C40   C62   A    
N32   Ni2   S    
C4    C78   A    
C55   C61   A    
C20   H54   S    
N25   Ni8   S    
C26   C64   S    
C66   I5    S    
C67   N25   A    
C16   H23   S    
C22   C63   S    
C12   C59   A    
C72   H24   S    
C83   H50   S    
C30   C60   S    
N9    Ni1   S    
C48   H4    S    
C43   O4    S    
C8    C39   S    
C23   N23   A    
C37   C46   D    
C19   H53   S    
C35   I4    S    
C42   N30   A    
C49   H14   S    
C44   H56   S    
C29   C61   S    
C31   C47   S    
C81   H43   S    
C75   N18   A    
C46   H2    S    
N9    N22   A    
C32   C48   S    
C26   I15   S    
N15   Ni6   S    
C77   H29   S    
N3    Ni4   S    
C83   H51   S    
C8    C74   A    
C56   N24   A    
C79   H30   S    
C50   C63   A    
N14   N19   A    
C10   C21   S    
C23   C60   A    
N15   N18   A    
C22   I12   S    
C52   H17   S    
C6    C37   S    
C13   C19   S    
C27   C31   D    
C72   N15   A    
C54   H19   S    
C28   C32   D    
C25   C65   S    
N4    Ni3   S    
C74   N17   A    
N2    Ni1   S    
C15   H12   S    
C29   H11   S    
C57   C60   A    
N7    N27   A    
C38   H7    S    
C34   C61   A    
C50   N2    A    
N28   N32   A    
N10   Ni2   S    
C47   H3    S    
C4    C16   S    
C9    C14   D    
C69   N11   A    
N19   Ni1   S    
C11   C16   D    
C45   H31   S    
C9    C20   S    
C27   H9    S    
C43   N31   A    
C53   H18   S    
C76   H28   S    
N17   Ni8   S    
C79   N21   A    
C56   H32   S    
C71   N14   A    
C41   N29   A    
C34   N27   A    
C54   N6    A    
C73   N16   A    
C67   H33   S    
C38   C47   D    
N8    N23   A    
C45   N22   A    
N18   Ni2   S    
C17   H34   S    
C23   I10   S    
C77   N20   A    
C83   O4    S    
C81   H44   S    
C8    C77   A    
C69   I7    S    
C36   C44   D    
C11   H38   S    
N10   N24   A    
C41   C63   A    
C82   H48   S    
N2    N29   A    
C42   C64   A    
C39   H8    S    
C81   O2    S    
C68   I6    S    
C24   I13   S    
C7    C79   A    
C80   H40   S    
N17   N20   A    
C30   C35   D    
C51   H16   S    
C24   C62   S    
C49   C62   A    
C66   N9    A    
C25   I14   S    
C18   C22   D    
C33   C44   S    
C32   I2    S    
C12   I9    S    
C76   N19   A    
C3    C67   A    
C51   C64   A    
C14   H1    S    
C41   O2    S    
C18   H45   S    
C74   H26   S    
N14   Ni5   S    
C34   I11   S    
C73   H25   S    
C15   C84   S    
C36   H5    S    
C28   C58   S    
N30   Ni7   S    
N11   Ni3   S    
C70   I8    S    
C75   H27   S    
N4    N31   A    
C13   C17   D    
C82   H49   S    
C1    N1    A    
C78   H35   S    
C43   C65   A    
C55   N7    A    
C82   O3    S    
C5    C71   A    
C2    C56   A    
C1    C58   A    
C53   N5    A    
C81   H46   S    
N11   N25   A    
C49   N32   A    
C80   H42   S    
N7    Ni8   S    
C5    C76   A    
C80   O1    S    
C55   H20   S    
N6    Ni5   S    
C51   N3    A    
C7    C38   S    
N5    Ni6   S    
C3    C17   S    
C2    C14   S    
N1    Ni1   S    
N13   N26   A    
N5    N12   A    
C1    I1    S    
N24   Ni5   S    
C66   C84   A    
C45   C84   A    
N23   Ni3   S    
C12   N12   A    
C80   H41   S    
C71   H22   S    
C9    H36   S    
C21   H55   S    
N16   Ni7   S    
C27   C59   S    
N26   Ni7   S    
N13   Ni4   S    
C78   N26   A    
C82   H47   S    
C35   C46   S    
N1    N6    A    
C52   C65   A    
C68   N10   A    
C39   C48   D    
C40   N28   A    
C83   H52   S    
