data_mof_unit_32723.cif
_audit_creation_date              2012-12-11T17:07:32-0500
_audit_creation_method            fapswitch 2.2
_symmetry_space_group_name_H-M    P1
_symmetry_Int_Tables_number       1
_space_group_crystal_system       triclinic
_cell_length_a                    6.989181
_cell_length_b                    14.712927
_cell_length_c                    16.060494
_cell_angle_alpha                 89.942806
_cell_angle_beta                  90.538098
_cell_angle_gamma                 90.747837
_cell_volume                      1651.3074997

loop_
_atom_site_label
_atom_site_type_symbol
_atom_type_description
_atom_site_fract_x
_atom_site_fract_y
_atom_site_fract_z
_atom_type_partial_charge
O1    O     O_R   0.505720 0.583900 0.413310 -0.536391
O2    O     O_R   0.175940 0.594920 0.586080 -0.546508
O3    O     O_R   0.005640 0.416100 0.586690 -0.536673
C1    C     C_R   0.348145 0.619844 0.612802 0.686818
O4    O     O_R   0.176000 0.594930 0.413930 -0.546136
O5    O     O_R   0.005700 0.416110 0.413310 -0.527400
C2    C     C_R   0.345318 0.616240 0.384896 0.721108
O6    O     O_R   0.505660 0.583890 0.586690 -0.556053
O7    O     O_3   0.339200 0.441330 0.500000 -0.355561
V1    V     V_3+5 0.064350 0.510880 0.500000 1.397231
O8    O     O_R   0.675980 0.405080 0.413920 -0.534838
C3    C     C_R   0.843871 0.384959 0.383780 0.692987
O9    O     O_R   0.675920 0.405070 0.586070 -0.542824
C4    C     C_R   0.842037 0.381118 0.614137 0.662881
V2    V     V_3+5 0.564340 0.489120 0.500000 1.414164
O10   O     O_3   0.839360 0.558670 0.500000 -0.390407
C5    C     C_R   0.660404 0.403225 0.783520 -0.280619
C6    C     C_R   0.645768 0.438205 0.864945 0.386681
C7    C     C_R   0.752684 0.394539 0.929358 0.359455
C8    C     C_R   0.824861 0.307679 0.913511 -0.249570
C9    C     C_R   0.832146 0.273434 0.832047 0.015679
C10   C     C_R   0.781008 0.330533 0.765082 -0.005611
C11   C     C_R   0.885495 0.183443 0.816623 -0.123855
C12   C     C_R   0.906209 0.154335 0.733539 0.072184
C13   C     C_R   0.881524 0.216919 0.666050 0.056283
C14   C     C_R   0.839058 0.309424 0.682402 -0.135215
C15   C     C_R   0.941592 0.062163 0.716352 -0.199066
C16   C     C_R   0.928960 0.029560 0.635732 -0.124443
C17   C     C_R   0.885368 0.088281 0.570879 0.200094
C18   C     C_R   0.872857 0.182027 0.584355 -0.183609
H1    H     H_    0.576319 0.433217 0.734107 0.150629
H2    H     H_    0.879147 0.268031 0.965136 0.134012
H3    H     H_    0.967223 0.013313 0.765406 0.100532
H4    H     H_    0.942005 0.957355 0.624420 0.134205
H5    H     H_    0.839255 0.225553 0.531983 0.113073
C19   C     C_R   0.716078 0.193683 0.232346 0.005085
C20   C     C_R   0.879017 0.186639 0.182491 -0.067462
C21   C     C_R   0.029395 0.247758 0.199928 -0.153362
H6    H     H_    0.151187 0.247910 0.160819 0.154764
C22   C     C_R   0.017117 0.313466 0.263559 -0.058919
H7    H     H_    0.131962 0.362868 0.270970 0.144291
C23   C     C_R   0.855253 0.317875 0.314733 -0.134782
C24   C     C_R   0.707310 0.256053 0.298017 -0.017377
C25   C     C_3   0.503469 0.277274 0.278479 0.246915
C26   C     C_3   0.513340 0.210046 0.206486 -0.088517
H8    H     H_    0.487165 0.348905 0.257693 0.104261
H9    H     H_    0.421364 0.148430 0.213989 0.130526
C27   C     C_R   0.526658 0.702127 0.732923 0.089409
C28   C     C_R   0.366336 0.693092 0.678084 -0.192964
C29   C     C_R   0.214959 0.754357 0.689926 -0.079380
H10   H     H_    0.095767 0.754181 0.646674 0.133170
C30   C     C_R   0.215898 0.816745 0.756939 -0.118318
H11   H     H_    0.097628 0.862289 0.763972 0.112016
C31   C     C_R   0.374654 0.823988 0.810855 -0.137268
C32   C     C_R   0.530573 0.771885 0.792246 0.087876
C33   C     C_3   0.717211 0.809953 0.768032 -0.400444
C34   C     C_3   0.732546 0.728378 0.712746 0.231705
H12   H     H_    0.817254 0.812459 0.822295 0.203051
H13   H     H_    0.704632 0.874771 0.732777 0.123512
H14   H     H_    0.760554 0.744708 0.646230 0.060630
C35   C     C_R   0.528572 0.703587 0.275540 0.131236
C36   C     C_R   0.358091 0.686474 0.318615 -0.171386
C37   C     C_R   0.199927 0.740109 0.297836 -0.268164
H15   H     H_    0.066018 0.730732 0.330370 0.158671
C38   C     C_R   0.208948 0.804931 0.233038 0.391143
C39   C     C_R   0.377781 0.816529 0.185293 -0.215132
C40   C     C_R   0.537630 0.766419 0.210414 0.085890
C41   C     C_3   0.660318 0.705905 0.159622 -0.382946
C42   C     C_3   0.652092 0.637968 0.230766 -0.419256
H16   H     H_    0.805602 0.734822 0.149640 0.222948
H17   H     H_    0.586524 0.681562 0.102151 0.157818
H18   H     H_    0.792466 0.628859 0.262591 0.176418
H19   H     H_    0.575211 0.573721 0.214183 0.168424
O11   O     O_R   0.229140 0.916090 0.913340 -0.545566
O12   O     O_R   0.558860 0.905090 0.086080 -0.547767
O13   O     O_R   0.729100 0.083920 0.086690 -0.528549
C43   C     C_R   0.389386 0.882468 0.114474 0.716017
O14   O     O_R   0.558860 0.905090 0.913930 -0.544741
O15   O     O_R   0.729100 0.083920 0.913310 -0.529093
C44   C     C_R   0.388528 0.888026 0.882011 0.693625
O16   O     O_R   0.229140 0.916080 0.086720 -0.510536
O17   O     O_3   0.395570 0.058660 0.000020 -0.353717
V3    V     V_3+5 0.670450 0.989140 0.000000 1.451077
O18   O     O_R   0.058810 0.094980 0.913910 -0.542376
C45   C     C_R   0.891063 0.116803 0.885998 0.697970
O19   O     O_R   0.058810 0.094980 0.086060 -0.542371
C46   C     C_R   0.890188 0.118729 0.113496 0.706385
V4    V     V_3+5 0.170450 0.010950 0.999970 1.468557
O20   O     O_3   0.895460 0.941370 0.999990 -0.370258
I1    I     I_    0.804628 0.029847 0.457719 -0.624984
O21   O     O_3   0.365147 0.254593 0.339984 -0.553657
C47   C     C_3   0.421139 0.186404 0.396776 0.134709
H20   H     H_    0.548956 0.208454 0.433614 0.147653
H21   H     H_    0.449109 0.121660 0.363641 0.139406
C48   C     C_3   0.259994 0.170555 0.457636 -0.658445
H22   H     H_    0.125823 0.156527 0.422411 0.245621
H23   H     H_    0.293111 0.111938 0.498692 0.205659
H24   H     H_    0.240500 0.232093 0.496520 0.222060
I2    I     I_    0.495011 0.276274 0.086707 -0.478085
O22   O     O_3   0.870853 0.673681 0.752050 -0.548449
C49   C     C_3   0.869840 0.586313 0.719559 0.149489
H25   H     H_    0.729624 0.555833 0.730185 0.132366
H26   H     H_    0.889957 0.587170 0.651914 0.154467
C50   C     C_3   0.026217 0.533151 0.764427 -0.649972
H27   H     H_    0.986216 0.522379 0.830272 0.199149
H28   H     H_    0.049566 0.466494 0.735254 0.174352
H29   H     H_    0.163658 0.571127 0.763729 0.229937
O23   O     O_3   0.043860 0.849333 0.211606 -0.555355
C51   C     C_3   0.024915 0.925648 0.263505 0.103432
H30   H     H_    0.122901 0.981170 0.242493 0.119776
H31   H     H_    0.055072 0.910329 0.330379 0.147463
C52   C     C_3   0.820531 0.957532 0.256181 -0.670836
H32   H     H_    0.723433 0.911586 0.291363 0.223606
H33   H     H_    0.809392 0.027405 0.280180 0.194134
H34   H     H_    0.776847 0.957929 0.190312 0.242873
O24   O     O_3   0.543290 0.519007 0.872798 -0.562871
C53   C     C_3   0.487379 0.539746 0.954862 0.151426
H35   H     H_    0.611242 0.568140 0.990419 0.178598
H36   H     H_    0.423956 0.479224 0.986497 0.157156
C54   C     C_3   0.338408 0.614152 0.953461 -0.772999
H37   H     H_    0.214210 0.593929 0.914311 0.239453
H38   H     H_    0.288083 0.627088 0.017691 0.180768
H39   H     H_    0.401990 0.677939 0.928896 0.227199
O25   O     O_3   0.771742 0.432093 0.008298 -0.562508
C55   C     C_3   0.966163 0.436444 0.033399 0.114392
H40   H     H_    0.060073 0.460485 0.982009 0.114213
H41   H     H_    0.014682 0.368839 0.055211 0.149100
C56   C     C_3   0.987983 0.502492 0.105747 -0.725609
H42   H     H_    0.896202 0.480177 0.158228 0.228043
H43   H     H_    0.139412 0.504820 0.127353 0.179290
H44   H     H_    0.945496 0.571666 0.085712 0.222003

loop_
_geom_bond_atom_site_label_1
_geom_bond_atom_site_label_2
_ccdc_geom_bond_type
C27   C32   A    
C21   C22   A    
C32   C33   S    
C37   C38   A    
C49   H25   S    
O23   C51   S    
C7    C8    A    
C12   C15   A    
C1    O6    A    
C56   H42   S    
C52   H33   S    
C48   H24   S    
C27   C34   S    
C15   H3    S    
C16   C17   A    
C36   C37   A    
C18   H5    S    
C19   C20   A    
C20   C21   A    
C53   H36   S    
O5    C3    A    
C21   H6    S    
O14   C44   A    
V2    O10   S    
O24   C53   S    
C6    C7    A    
C50   H27   S    
C3    C23   S    
C51   H31   S    
O8    V2    S    
O14   V3    S    
C48   H22   S    
C25   H8    S    
C41   C42   S    
C55   C56   S    
C29   C30   A    
C11   C12   A    
C42   H19   S    
O1    V2    S    
O7    V1    S    
C38   O23   S    
C54   H39   S    
V4    O20   S    
C22   C23   A    
C39   C40   A    
C16   H4    S    
C49   H26   S    
O11   C44   A    
C9    C10   A    
C52   H32   S    
O13   V3    S    
C50   H28   S    
C17   I1    S    
C30   C31   A    
C29   H10   S    
C31   C44   S    
C26   H9    S    
V3    O20   S    
C7    O25   S    
C40   C41   S    
C12   C13   A    
C26   I2    S    
C53   C54   S    
C6    O24   S    
O21   C47   S    
O4    C2    A    
O19   C46   A    
C34   H14   S    
C13   C14   A    
C34   O22   S    
C47   C48   S    
C4    C14   S    
C42   H18   S    
O2    C1    A    
C24   C25   S    
C2    C36   S    
C17   C18   A    
C35   C40   A    
C43   O16   A    
C47   H21   S    
C5    C6    A    
C19   C26   S    
O18   C45   A    
O12   C43   A    
O13   C46   A    
C50   H29   S    
O3    C4    A    
C27   C28   A    
O17   V3    S    
C49   C50   S    
O9    V2    S    
C10   C14   A    
C55   H40   S    
C5    H1    S    
C51   C52   S    
C23   C24   A    
O2    V1    S    
C56   H44   S    
O15   C45   A    
C30   H11   S    
C54   H38   S    
C8    H2    S    
C35   C42   S    
C13   C18   A    
C33   C34   S    
C39   C43   S    
C31   C32   A    
C22   H7    S    
O1    C2    A    
C20   C46   S    
C25   C26   S    
O18   V4    S    
C56   H43   S    
O5    V1    S    
O8    C3    A    
C48   H23   S    
O6    V2    S    
C5    C10   A    
C33   H13   S    
C1    C28   S    
C9    C11   A    
O7    V2    S    
O4    V1    S    
O3    V1    S    
V1    O10   S    
C53   H35   S    
O15   V3    S    
O12   V3    S    
C41   H17   S    
O17   V4    S    
C47   H20   S    
C33   H12   S    
O19   V4    S    
C38   C39   A    
C35   C36   A    
C25   O21   S    
O16   V4    S    
C37   H15   S    
C8    C9    A    
C41   H16   S    
C28   C29   A    
C11   C45   S    
C51   H30   S    
C15   C16   A    
C55   H41   S    
C54   H37   S    
C19   C24   A    
O22   C49   S    
O11   V4    S    
O9    C4    A    
C52   H34   S    
O25   C55   S    
