data_mof_unit_20787.cif
_audit_creation_date              2012-12-11T17:09:23-0500
_audit_creation_method            fapswitch 2.2
_symmetry_space_group_name_H-M    P1
_symmetry_Int_Tables_number       1
_space_group_crystal_system       triclinic
_cell_length_a                    14.824101
_cell_length_b                    6.96062
_cell_length_c                    13.49486
_cell_angle_alpha                 90.0
_cell_angle_beta                  99.883678
_cell_angle_gamma                 89.999973
_cell_volume                      1371.79962095

loop_
_atom_site_label
_atom_site_type_symbol
_atom_type_description
_atom_site_fract_x
_atom_site_fract_y
_atom_site_fract_z
_atom_type_partial_charge
O1    O     O_R   0.586930 0.505770 0.416350 -0.538199
O2    O     O_R   0.413070 0.005770 0.583650 -0.538199
O3    O     O_R   0.397900 0.173100 0.389630 -0.537317
O4    O     O_R   0.602100 0.673100 0.610370 -0.537317
C1    C     C_R   0.364390 0.345384 0.362870 0.776023
C2    C     C_R   0.635609 0.845384 0.637130 0.776023
O5    O     O_R   0.585280 0.175870 0.404330 -0.527929
O6    O     O_R   0.414720 0.675870 0.595670 -0.527929
O7    O     O_R   0.601790 0.008380 0.598460 -0.532077
O8    O     O_R   0.398210 0.508380 0.401540 -0.532077
C3    C     C_R   0.614635 0.344772 0.382895 0.718896
C4    C     C_R   0.385365 0.844772 0.617105 0.718897
O9    O     O_3   0.505200 0.340120 0.563670 -0.370909
O10   O     O_3   0.494800 0.840120 0.436330 -0.370910
V1    V     V_3+5 0.499040 0.064180 0.488190 1.536300
V2    V     V_3+5 0.500960 0.564180 0.511810 1.536300
C5    C     C_R   0.256021 0.012127 0.680716 0.084566
C6    C     C_R   0.743980 0.512126 0.319285 0.084565
C7    C     C_R   0.314433 0.853354 0.682394 -0.115723
C8    C     C_R   0.685567 0.353354 0.317606 -0.115722
C9    C     C_R   0.303237 0.702442 0.748653 -0.066553
C10   C     C_R   0.696762 0.202444 0.251345 -0.066557
H1    H     H_    0.348341 0.579563 0.754722 0.160775
H2    H     H_    0.651656 0.079567 0.245274 0.160773
C11   C     C_R   0.237354 0.713898 0.812260 -0.135158
C12   C     C_R   0.762643 0.213902 0.187737 -0.135156
H3    H     H_    0.232603 0.600490 0.865101 0.185510
H4    H     H_    0.767392 0.100498 0.134893 0.185511
C13   C     C_R   0.182222 0.877313 0.813711 -0.065261
C14   C     C_R   0.817778 0.377313 0.186289 -0.065261
C15   C     C_R   0.194055 0.026466 0.747810 0.021770
C16   C     C_R   0.805946 0.526465 0.252191 0.021767
C17   C     C_3   0.221380 0.229189 0.773148 0.128990
C18   C     C_3   0.778621 0.729188 0.226854 0.128993
C19   C     C_3   0.282727 0.217541 0.693945 0.150088
C20   C     C_3   0.717275 0.717541 0.306056 0.150091
H5    H     H_    0.163182 0.331314 0.756062 0.140932
H6    H     H_    0.836820 0.831312 0.243940 0.140934
H7    H     H_    0.356985 0.238810 0.722539 0.135057
H8    H     H_    0.643017 0.738811 0.277463 0.135057
C21   C     C_1   0.783480 0.877151 0.782890 -0.135735
C22   C     C_1   0.216520 0.377151 0.217110 -0.135735
C23   C     C_1   0.716153 0.860081 0.716807 -0.129238
C24   C     C_1   0.283847 0.360082 0.283193 -0.129238
O11   O     O_R   0.101720 0.231700 0.098560 -0.530397
O12   O     O_R   0.898280 0.731700 0.901440 -0.530397
O13   O     O_R   0.914700 0.558980 0.095690 -0.525525
O14   O     O_R   0.085300 0.058980 0.904310 -0.525525
C25   C     C_R   0.884938 0.389943 0.116624 0.732680
C26   C     C_R   0.115062 0.889943 0.883376 0.732681
O15   O     O_R   0.102080 0.561590 0.110390 -0.542044
O16   O     O_R   0.897920 0.061590 0.889610 -0.542044
O17   O     O_R   0.086950 0.728940 0.916330 -0.550054
O18   O     O_R   0.913050 0.228940 0.083670 -0.550054
C27   C     C_R   0.136004 0.391952 0.137395 0.758305
C28   C     C_R   0.863996 0.891951 0.862605 0.758305
O19   O     O_3   0.994770 0.394510 0.936380 -0.372824
O20   O     O_3   0.005230 0.894510 0.063620 -0.372824
V3    V     V_3+5 0.000970 0.670520 0.011800 1.509423
V4    V     V_3+5 0.999030 0.170520 0.988200 1.509422
Cl1   Cl    Cl    0.287033 0.245177 0.897888 -0.695316
Cl2   Cl    Cl    0.712969 0.745177 0.102114 -0.695319
Cl3   Cl    Cl    0.239706 0.349543 0.582313 -0.669056
Cl4   Cl    Cl    0.760296 0.849541 0.417689 -0.669055

loop_
_geom_bond_atom_site_label_1
_geom_bond_atom_site_label_2
_ccdc_geom_bond_type
O4    V2    S    
O5    C3    A    
C15   C17   S    
C21   C28   S    
C12   C14   A    
C7    C9    A    
O9    V2    S    
O12   V3    S    
C11   H3    S    
O16   V4    S    
C12   H4    S    
O1    C3    A    
C20   H8    S    
O6    C4    A    
O2    C4    A    
C6    C20   S    
C2    O7    A    
O5    V1    S    
O7    V1    S    
O3    V1    S    
C1    O8    A    
O13   C25   A    
O1    V2    S    
O8    V2    S    
C14   C16   A    
O2    V1    S    
C21   C23   T    
O11   C27   A    
C22   C24   T    
C17   Cl1   S    
C2    C23   S    
O19   V4    S    
C4    C7    S    
O14   C26   A    
C17   C19   S    
C14   C25   S    
C8    C10   A    
O14   V4    S    
C6    C8    A    
C13   C26   S    
O9    V1    S    
C9    H1    S    
O17   V3    S    
C19   H7    S    
C5    C15   A    
O10   V2    S    
C3    C8    S    
O19   V3    S    
C26   O17   A    
C6    C16   A    
O13   V3    S    
C25   O18   A    
C20   Cl4   S    
C18   Cl2   S    
O15   V3    S    
C18   C20   S    
C11   C13   A    
C13   C15   A    
O4    C2    A    
C10   C12   A    
C10   H2    S    
O12   C28   A    
C9    C11   A    
O10   V1    S    
O11   V4    S    
O18   V4    S    
O6    V2    S    
C5    C19   S    
O15   C27   A    
C5    C7    A    
O20   V3    S    
C18   H6    S    
O20   V4    S    
C19   Cl3   S    
C1    C24   S    
C17   H5    S    
O16   C28   A    
O3    C1    A    
C22   C27   S    
C16   C18   S    
