data_mof_unit_14481.cif
_audit_creation_date              2012-12-10T18:09:45-0500
_audit_creation_method            fapswitch 2.2
_symmetry_space_group_name_H-M    P1
_symmetry_Int_Tables_number       1
_space_group_crystal_system       triclinic
_cell_length_a                    10.625742
_cell_length_b                    12.599167
_cell_length_c                    13.12521
_cell_angle_alpha                 82.310752
_cell_angle_beta                  90.57488
_cell_angle_gamma                 102.445973
_cell_volume                      1700.10116467

loop_
_atom_site_label
_atom_site_type_symbol
_atom_type_description
_atom_site_fract_x
_atom_site_fract_y
_atom_site_fract_z
_atom_type_partial_charge
C1    C     C_R   0.479486 0.438822 0.691140 0.842901
C2    C     C_3   0.120982 0.499551 0.501034 0.103550
C3    C     C_3   0.070704 0.503887 0.388998 0.383385
C4    C     C_3   0.098124 0.602171 0.546661 -0.484272
C5    C     C_R   0.416615 0.705812 0.062872 -0.202487
C6    C     C_R   0.503446 0.596792 0.199890 -0.063435
C7    C     C_R   0.490980 0.298246 0.838692 -0.199116
C8    C     C_R   0.499509 0.268695 0.943790 -0.142585
C9    C     C_R   0.488335 0.342846 0.010941 -0.200164
C10   C     C_R   0.462028 0.446655 0.973548 0.078585
C11   C     C_R   0.432440 0.468282 0.869154 0.086514
C12   C     C_R   0.741696 0.499896 0.502274 0.854901
C13   C     C_R   0.464631 0.529961 0.036083 0.079738
C14   C     C_R   0.417677 0.624995 0.999095 0.166467
C15   C     C_R   0.369966 0.636569 0.899989 -0.262290
C16   C     C_R   0.376777 0.558974 0.835705 -0.198740
C17   C     C_R   0.515753 0.522259 0.133906 -0.266392
C18   C     C_R   0.457521 0.690821 0.163987 -0.217573
C19   C     C_R   0.461771 0.399456 0.800698 -0.116040
C20   C     C_R   0.318270 0.088266 0.348032 -0.246533
C21   C     C_R   0.652733 0.799791 0.629719 0.030632
C22   C     C_R   0.683924 0.904402 0.658022 -0.254838
C23   C     C_R   0.513391 0.561077 0.308732 0.853690
C24   C     C_R   0.625597 0.985650 0.608900 -0.175513
C25   C     C_R   0.535345 0.962353 0.530523 0.015307
C26   C     C_R   0.507233 0.854469 0.504564 0.202012
C27   C     C_R   0.472273 0.041271 0.477303 -0.094799
C28   C     C_R   0.381192 0.010575 0.400250 0.136782
C29   C     C_R   0.354272 0.903304 0.376038 0.370172
C30   C     C_R   0.418852 0.827293 0.427496 -0.357627
C31   C     C_R   0.495911 0.150480 0.497319 -0.024084
C32   C     C_R   0.346052 0.194404 0.371783 -0.024655
C33   C     C_R   0.257954 0.499461 0.500612 0.825817
C34   C     C_3   0.902439 0.397158 0.572427 -0.412689
C35   C     C_3   0.046219 0.395488 0.569428 -0.370607
C36   C     C_3   0.924696 0.499774 0.391819 -0.430856
C37   C     C_3   0.955553 0.604054 0.545231 -0.409432
C38   C     C_3   0.878393 0.500445 0.503158 0.117039
H1    H     H_    0.846311 0.320926 0.545738 0.188137
H2    H     H_    0.152204 0.679272 0.501193 0.198799
H3    H     H_    0.903842 0.571756 0.340842 0.118324
H4    H     H_    0.119276 0.585144 0.346562 0.024134
H5    H     H_    0.447560 0.749413 0.214920 0.162652
H6    H     H_    0.329130 0.706399 0.871610 0.151097
H7    H     H_    0.379568 0.778048 0.035862 0.148040
H8    H     H_    0.561955 0.456121 0.162397 0.150974
H9    H     H_    0.511057 0.243398 0.787071 0.152105
H10   H     H_    0.497665 0.315862 0.091666 0.134495
H11   H     H_    0.520492 0.189994 0.973072 0.145777
H12   H     H_    0.870737 0.397382 0.652984 0.160851
H13   H     H_    0.336863 0.570241 0.759869 0.166743
H14   H     H_    0.298533 0.255252 0.332204 0.146939
H15   H     H_    0.248456 0.067756 0.289176 0.199317
H16   H     H_    0.563307 0.181549 0.553603 0.119516
H17   H     H_    0.697407 0.736084 0.667667 0.134079
H18   H     H_    0.652963 0.065186 0.634164 0.128369
H19   H     H_    0.752878 0.922471 0.717959 0.149119
H20   H     H_    0.398477 0.747176 0.405465 0.209317
H21   H     H_    0.084118 0.392120 0.648933 0.149411
H22   H     H_    0.058578 0.319999 0.538936 0.216950
H23   H     H_    0.870806 0.424816 0.361520 0.201008
H24   H     H_    0.941918 0.679710 0.495881 0.199186
H25   H     H_    0.921422 0.607216 0.624516 0.181524
H26   H     H_    0.132665 0.600885 0.627148 0.193800
N1    N     N_R   0.433240 0.222190 0.444680 -0.100772
N2    N     N_R   0.566070 0.776970 0.554790 -0.116396
O1    O     O_R   0.468120 0.366740 0.627160 -0.617599
O2    O     O_R   0.510770 0.544830 0.662520 -0.615963
O3    O     O_R   0.663880 0.410950 0.482330 -0.628189
O4    O     O_R   0.706530 0.589040 0.517700 -0.623763
O5    O     O_R   0.489230 0.455170 0.337480 -0.616570
O6    O     O_R   0.531880 0.633260 0.372840 -0.627661
O7    O     O_R   0.293470 0.410960 0.482300 -0.581396
O8    O     O_R   0.336120 0.589050 0.517670 -0.660334
Zn1   Zn    Zn3+2 0.471520 0.381090 0.476390 0.938791
Zn2   Zn    Zn3+2 0.528480 0.618910 0.523610 0.918941
O9    O     O_3   0.264905 0.874406 0.301632 -0.790531
H27   H     H_    0.254146 0.795178 0.296349 0.316931
O10   O     O_3   0.094093 0.413321 0.343474 -0.643528
C39   C     C_3   0.143499 0.444863 0.241433 0.106128
H28   H     H_    0.194313 0.381315 0.222980 0.162468
H29   H     H_    0.217342 0.523152 0.232228 0.122226
C40   C     C_3   0.034321 0.449637 0.164868 -0.384653
H30   H     H_    0.964976 0.369030 0.173775 0.232474
H31   H     H_    0.982291 0.513448 0.180486 0.213326
C41   C     C_3   0.085976 0.476933 0.054318 -0.927885
H32   H     H_    0.146957 0.561095 0.042254 0.271385
H33   H     H_    0.004241 0.473416 0.000622 0.261400
H34   H     H_    0.143509 0.417460 0.036803 0.267750

loop_
_geom_bond_atom_site_label_1
_geom_bond_atom_site_label_2
_ccdc_geom_bond_type
C2    C35   S    
C12   O3    A    
C3    H4    S    
C21   N2    A    
C16   H13   S    
O6    Zn2   S    
C3    O10   S    
C22   H19   S    
C37   H24   S    
O1    Zn1   S    
C7    C8    A    
O9    H27   S    
C11   C19   A    
C29   C30   A    
O8    Zn2   S    
C28   C29   A    
C15   H6    S    
C41   H33   S    
C15   C16   A    
C1    O2    A    
C35   H21   S    
C34   C35   S    
C32   H14   S    
C4    H2    S    
C8    C9    A    
C9    C10   A    
C13   C14   A    
O7    Zn1   S    
C36   H3    S    
C39   C40   S    
C37   H25   S    
C6    C18   A    
C34   H12   S    
C1    C19   S    
C27   C31   A    
C34   H1    S    
C26   N2    A    
C23   O5    A    
C17   H8    S    
C39   H29   S    
C21   H17   S    
C41   H32   S    
C20   H15   S    
C5    C18   A    
C20   C28   A    
C25   C26   A    
C5    H7    S    
C10   C13   A    
C35   H22   S    
C7    H9    S    
C2    C4    S    
C37   C38   S    
C11   C16   A    
C40   H30   S    
N2    Zn2   S    
O2    Zn2   S    
C24   C25   A    
C5    C14   A    
C2    C33   S    
C33   O7    A    
C40   H31   S    
C26   C30   A    
C7    C19   A    
O4    Zn2   S    
C22   C24   A    
C24   H18   S    
C36   H23   S    
C20   C32   A    
C31   N1    A    
C6    C17   A    
C12   O4    A    
C34   C38   S    
C23   O6    A    
C39   H28   S    
C41   H34   S    
C25   C27   A    
C4    H26   S    
N1    Zn1   S    
C13   C17   A    
C36   C38   S    
C2    C3    S    
C18   H5    S    
O5    Zn1   S    
C3    C36   S    
C6    C23   S    
C30   H20   S    
C1    O1    A    
O3    Zn1   S    
C31   H16   S    
C12   C38   S    
C10   C11   A    
O10   C39   S    
C33   O8    A    
C40   C41   S    
C29   O9    S    
C4    C37   S    
C9    H10   S    
C27   C28   A    
C14   C15   A    
C21   C22   A    
C8    H11   S    
C32   N1    A    
