data_mof_unit_57651.cif
_audit_creation_date              2012-12-10T18:30:27-0500
_audit_creation_method            fapswitch 2.2
_symmetry_space_group_name_H-M    P1
_symmetry_Int_Tables_number       1
_space_group_crystal_system       triclinic
_cell_length_a                    15.170836
_cell_length_b                    14.143395
_cell_length_c                    15.362881
_cell_angle_alpha                 91.899096
_cell_angle_beta                  81.84493
_cell_angle_gamma                 103.550018
_cell_volume                      3172.21144817

loop_
_atom_site_label
_atom_site_type_symbol
_atom_type_description
_atom_site_fract_x
_atom_site_fract_y
_atom_site_fract_z
_atom_type_partial_charge
C1    C     C_R   0.557464 0.509956 0.337999 0.836440
C2    C     C_R   0.381974 0.478521 0.083659 -0.195904
C3    C     C_R   0.586238 0.327594 0.012833 -0.212925
C4    C     C_R   0.320218 0.482619 0.026203 -0.223421
C5    C     C_R   0.163916 0.362591 0.351659 0.077439
C6    C     C_R   0.842166 0.642535 0.639930 0.133598
C7    C     C_R   0.246864 0.377734 0.386801 0.050748
C8    C     C_R   0.757506 0.627210 0.607736 0.014904
C9    C     C_R   0.205596 0.499388 0.483968 0.055542
C10   C     C_R   0.792153 0.497709 0.516324 0.032638
C11   C     C_R   0.114634 0.471938 0.464158 -0.113606
C12   C     C_R   0.442289 0.483583 0.662349 0.881049
C13   C     C_R   0.883681 0.523422 0.534460 -0.050086
C14   C     C_R   0.097579 0.413607 0.388423 0.026904
C15   C     C_R   0.901835 0.582154 0.608975 0.064791
C16   C     C_R   0.498766 0.329508 0.499436 0.852963
C17   C     C_R   0.501307 0.670502 0.500406 0.896291
C18   C     C_R   0.040715 0.502017 0.516184 0.084101
C19   C     C_R   0.957282 0.492756 0.482535 0.102894
C20   C     C_R   0.951852 0.459111 0.396022 -0.187758
C21   C     C_R   0.045598 0.534644 0.603359 -0.332687
C22   C     C_R   0.016307 0.412351 0.351849 0.033673
C23   C     C_R   0.530238 0.447494 0.108958 0.012977
C24   C     C_R   0.979505 0.578402 0.648624 0.003289
C25   C     C_1   0.496518 0.227263 0.498667 -0.141764
C26   C     C_1   0.503737 0.772793 0.500861 -0.167302
C27   C     C_1   0.497007 0.141987 0.498674 0.025751
C28   C     C_1   0.503416 0.858108 0.500621 0.014283
C29   C     C_1   0.499171 0.042462 0.499234 0.026152
C30   C     C_1   0.501371 0.957663 0.499906 0.024514
C31   C     C_R   0.588858 0.490644 0.246470 -0.152157
C32   C     C_R   0.405677 0.466282 0.756174 -0.178201
C33   C     C_R   0.652383 0.376526 0.148643 0.226740
C34   C     C_R   0.421888 0.430431 0.906796 0.027347
C35   C     C_R   0.284500 0.479656 0.875957 0.211052
C36   C     C_R   0.647683 0.427569 0.228539 -0.248548
C37   C     C_R   0.318364 0.481469 0.786025 -0.234214
C38   C     C_R   0.540195 0.510886 0.181594 0.143351
C39   C     C_R   0.456520 0.436030 0.815994 0.124366
C40   C     C_3   0.622493 0.495606 0.800714 -0.674438
C41   C     C_3   0.552990 0.670669 0.122000 -0.749172
C42   C     C_3   0.754613 0.280455 0.198041 -0.731989
C43   C     C_3   0.141806 0.525039 0.846960 -0.756382
C44   C     C_2   0.996446 0.368305 0.266089 0.395433
C45   C     C_R   0.590905 0.384286 0.089541 0.045689
C46   C     C_2   0.991121 0.610755 0.739728 0.435595
C47   C     C_2   0.757774 0.407799 0.468088 0.431526
C48   C     C_2   0.236431 0.591591 0.530796 0.429563
C49   C     C_2   0.696876 0.694212 0.633645 0.426130
C50   C     C_2   0.312432 0.318327 0.354519 0.487649
C51   C     C_3   0.190674 0.322970 0.196797 -0.800858
C52   C     C_3   0.935853 0.803995 0.659635 -0.687036
C53   C     C_R   0.340848 0.462856 0.936474 0.050228
C54   C     C_R   0.461796 0.445498 0.054806 0.079954
C55   C     C_R   0.471221 0.404495 0.970412 0.080324
C56   C     C_R   0.528393 0.338778 0.953391 -0.185604
H1    H     H_    0.628183 0.275450 0.997265 0.166934
H2    H     H_    0.686737 0.477395 0.768504 0.242389
H3    H     H_    0.626974 0.506255 0.871898 0.244532
H4    H     H_    0.616377 0.564904 0.773780 0.215817
H5    H     H_    0.498085 0.627769 0.248942 0.230557
H6    H     H_    0.519717 0.733095 0.128654 0.240437
H7    H     H_    0.549417 0.641067 0.054419 0.254435
H8    H     H_    0.625879 0.697108 0.131831 0.242073
H9    H     H_    0.757516 0.329560 0.070013 0.238636
H10   H     H_    0.791639 0.224311 0.171750 0.244090
H11   H     H_    0.700438 0.247183 0.251965 0.242704
H12   H     H_    0.259946 0.508602 0.051696 0.169573
H13   H     H_    0.804235 0.341775 0.223753 0.259016
H14   H     H_    0.157820 0.448683 0.955435 0.236567
H15   H     H_    0.079151 0.541634 0.884611 0.264330
H16   H     H_    0.120809 0.465013 0.800275 0.235935
H17   H     H_    0.181307 0.591777 0.810826 0.247379
H18   H     H_    0.989850 0.291017 0.255096 0.106262
H19   H     H_    0.058716 0.645176 0.755338 0.055213
H20   H     H_    0.714510 0.408141 0.418293 0.082423
H21   H     H_    0.219049 0.657079 0.510826 0.042156
H22   H     H_    0.625962 0.667102 0.660063 0.103567
H23   H     H_    0.895918 0.466567 0.362349 0.143187
H24   H     H_    0.372294 0.347882 0.307853 0.062268
H25   H     H_    0.150966 0.223590 0.299704 0.267603
H26   H     H_    0.160007 0.270869 0.147643 0.255191
H27   H     H_    0.264704 0.324454 0.190733 0.230921
H28   H     H_    0.181648 0.396185 0.181954 0.260756
H29   H     H_    0.816866 0.738840 0.741973 0.253360
H30   H     H_    0.955822 0.858258 0.711417 0.235456
H31   H     H_    0.906725 0.838367 0.610036 0.271778
H32   H     H_    0.998364 0.782127 0.627495 0.218012
H33   H     H_    0.099870 0.524437 0.638031 0.170468
H34   H     H_    0.278256 0.498288 0.738539 0.221190
H35   H     H_    0.686708 0.415589 0.278759 0.157010
H36   H     H_    0.527086 0.293658 0.895151 0.177675
H37   H     H_    0.364262 0.497262 0.151640 0.174864
H38   H     H_    0.551446 0.381123 0.727526 0.245603
N1    N     N_R   0.268300 0.449640 0.447270 -0.149611
N2    N     N_R   0.731700 0.550360 0.552730 -0.174624
N3    N     N_2   0.544642 0.417851 0.786260 -0.316812
N4    N     N_2   0.506396 0.597624 0.187213 -0.317321
N5    N     N_2   0.714242 0.313843 0.128435 -0.309632
N6    N     N_2   0.195792 0.496411 0.907310 -0.302768
N7    N     N_2   0.145574 0.292152 0.284076 -0.332349
N8    N     N_2   0.869027 0.720698 0.699061 -0.264474
O1    O     O_R   0.616880 0.525390 0.394380 -0.617073
O2    O     O_2   0.926282 0.595561 0.798516 -0.557728
O3    O     O_2   0.778161 0.332135 0.483695 -0.573015
O4    O     O_2   0.274827 0.594111 0.595586 -0.582529
O5    O     O_2   0.725894 0.781935 0.624802 -0.582811
O6    O     O_2   0.297961 0.233824 0.377983 -0.583002
O7    O     O_R   0.383120 0.474610 0.605620 -0.546480
O8    O     O_R   0.468100 0.493070 0.360490 -0.645594
O9    O     O_R   0.531900 0.506930 0.639510 -0.634209
O10   O     O_R   0.574410 0.389880 0.516950 -0.616649
O11   O     O_R   0.425590 0.610120 0.483050 -0.567518
O12   O     O_R   0.425630 0.357560 0.483060 -0.576021
O13   O     O_R   0.574370 0.642440 0.516940 -0.601770
O14   O     O_2   0.984754 0.418339 0.207437 -0.583500
Zn1   Zn    Zn3+2 0.599340 0.521580 0.522630 0.925877
Zn2   Zn    Zn3+2 0.400660 0.478420 0.477370 0.977413

loop_
_geom_bond_atom_site_label_1
_geom_bond_atom_site_label_2
_ccdc_geom_bond_type
C43   H17   S    
C55   C56   A    
C11   C18   A    
C43   H16   S    
C40   H4    S    
C4    C53   A    
C27   C29   S    
C18   C21   A    
C33   C45   A    
H5    N4    S    
C8    N2    A    
C38   N4    S    
O8    Zn2   S    
C17   O11   A    
C49   O5    D    
C21   H33   S    
C52   N8    S    
C37   H34   S    
C23   C45   A    
C17   C26   S    
C35   C37   A    
C47   H20   S    
O10   Zn1   S    
C11   C14   A    
C39   N3    S    
C35   C53   A    
C1    C31   S    
C33   C36   A    
C49   H22   S    
C18   C19   A    
C32   C39   A    
C12   O7    A    
C6    C15   A    
C48   O4    D    
C19   C20   A    
O13   Zn1   S    
C43   H15   S    
C9    N1    A    
C34   C55   A    
C40   H3    S    
C12   C32   S    
C50   O6    D    
O1    Zn1   S    
C41   H6    S    
C46   H19   S    
H14   N6    S    
O7    Zn2   S    
C2    H37   S    
N1    Zn2   S    
C5    N7    S    
C40   H2    S    
C13   C19   A    
C34   C39   A    
N2    Zn1   S    
C52   H32   S    
C43   N6    S    
H9    N5    S    
C2    C54   A    
C40   N3    S    
C5    C7    A    
C6    C8    A    
H38   N3    S    
C47   O3    D    
C46   O2    D    
C3    C45   A    
C42   H13   S    
C50   H24   S    
C33   N5    S    
C48   H21   S    
C2    C4    A    
C29   C30   T    
C1    O8    A    
C3    C56   A    
C16   O10   A    
C10   N2    A    
C32   C37   A    
C44   H18   S    
C9    C11   A    
C51   H26   S    
C5    C14   A    
O12   Zn2   S    
C34   C53   A    
C3    H1    S    
C36   H35   S    
C15   C24   A    
C20   C22   A    
C13   C15   A    
C42   H11   S    
C51   N7    S    
C41   H7    S    
C35   N6    S    
C51   H27   S    
C17   O13   A    
C23   C54   A    
C4    H12   S    
C16   C25   S    
C1    O1    A    
C54   C55   A    
C22   C44   S    
C20   H23   S    
C31   C36   A    
C52   H31   S    
C7    C50   S    
C10   C13   A    
C16   O12   A    
C25   C27   T    
C23   C38   A    
C7    N1    A    
C26   C28   T    
C31   C38   A    
O9    Zn1   S    
C24   C46   S    
C14   C22   A    
C52   H30   S    
C42   N5    S    
C51   H28   S    
C28   C30   S    
C6    N8    S    
O11   Zn2   S    
C56   H36   S    
C44   O14   D    
C9    C48   S    
C21   C24   A    
C10   C47   S    
C42   H10   S    
C41   N4    S    
H25   N7    S    
C41   H8    S    
C8    C49   S    
C12   O9    A    
H29   N8    S    
