data_mof_unit_8943.cif
_audit_creation_date              2013-03-05T15:46:01-0500
_audit_creation_method            fapswitch 2.2
_symmetry_space_group_name_H-M    P1
_symmetry_Int_Tables_number       1
_space_group_crystal_system       triclinic
_cell_length_a                    17.392281
_cell_length_b                    24.328037
_cell_length_c                    14.875352
_cell_angle_alpha                 90.050936
_cell_angle_beta                  124.937229
_cell_angle_gamma                 90.047991
_cell_volume                      5159.73493858

loop_
_atom_site_label
_atom_site_type_symbol
_atom_site_description
_atom_site_fract_x
_atom_site_fract_y
_atom_site_fract_z
_atom_type_partial_charge
C1    C     C_R   0.319222 0.134841 0.907515 -0.128346
C2    C     C_R   0.351591 0.848426 0.907140 -0.144674
C3    C     C_R   0.851833 0.651530 0.907207 -0.147544
C4    C     C_R   0.831306 0.355980 0.910211 -0.141430
H1    H     H_    0.268626 0.145631 0.823583 0.091435
H2    H     H_    0.316313 0.834960 0.823099 0.097913
H3    H     H_    0.816566 0.664906 0.823178 0.099516
H4    H     H_    0.783072 0.342669 0.826529 0.095033
N1    N     N_R   0.392140 0.102630 0.941800 -0.046682
N2    N     N_R   0.392140 0.897370 0.941800 -0.043547
N3    N     N_R   0.892140 0.602630 0.941800 -0.044128
N4    N     N_R   0.892140 0.397370 0.941800 -0.044993
C5    C     C_R   0.441690 0.847229 0.089925 -0.096166
C6    C     C_R   0.411661 0.137367 0.090822 -0.050265
C7    C     C_R   0.926412 0.355158 0.093208 -0.082256
C8    C     C_R   0.942062 0.652962 0.089891 -0.104226
H5    H     H_    0.484547 0.833664 0.173971 0.152677
H6    H     H_    0.444888 0.152093 0.173246 0.143477
H7    H     H_    0.968482 0.342342 0.177099 0.171589
H8    H     H_    0.985106 0.666777 0.173878 0.153699
N5    N     N_R   0.450890 0.896450 0.057150 -0.052295
N6    N     N_R   0.450890 0.103550 0.057150 -0.056725
N7    N     N_R   0.950890 0.396450 0.057150 -0.058532
N8    N     N_R   0.950890 0.603550 0.057150 -0.054330
C9    C     C_R   0.493683 0.045276 0.264098 -0.083502
C10   C     C_R   0.487473 0.953712 0.257135 -0.133714
C11   C     C_R   0.980313 0.546393 0.248664 -0.117891
C12   C     C_R   0.982447 0.454999 0.252593 -0.132931
H9    H     H_    0.495670 0.087162 0.287725 0.115810
H10   H     H_    0.478003 0.910954 0.267705 0.106076
H11   H     H_    0.970042 0.589200 0.257546 0.101850
H12   H     H_    0.976895 0.413022 0.270317 0.133137
N9    N     N_R   0.525160 0.027960 0.206160 -0.051553
N10   N     N_R   0.525160 0.972040 0.206160 -0.046084
N11   N     N_R   0.025160 0.527960 0.206160 -0.045401
N12   N     N_R   0.025160 0.472040 0.206160 -0.045680
C13   C     C_R   0.231079 0.952835 0.742028 -0.124128
C14   C     C_R   0.229541 0.045304 0.733075 -0.127801
C15   C     C_R   0.730226 0.454077 0.744175 -0.130065
C16   C     C_R   0.731308 0.546650 0.747614 -0.127191
N13   N     N_R   0.317870 0.971120 0.792790 -0.038160
N14   N     N_R   0.317870 0.028880 0.792790 -0.037044
N15   N     N_R   0.817870 0.471120 0.792790 -0.038529
N16   N     N_R   0.817870 0.528880 0.792790 -0.038598
C17   C     C_R   0.324872 0.153164 0.999030 0.115533
C18   C     C_R   0.381453 0.815719 0.997573 0.125131
C19   C     C_R   0.881681 0.684308 0.997593 0.128854
C20   C     C_R   0.846094 0.331764 0.004132 0.132448
C21   C     C_R   0.463994 0.999495 0.291658 0.061965
C22   C     C_R   0.950078 0.501055 0.276379 0.046491
C23   C     C_R   0.174224 0.998844 0.706374 0.006870
C24   C     C_R   0.674481 0.500491 0.717130 -0.000663
C25   C     C_R   0.448536 0.045666 0.696059 -0.112557
C26   C     C_R   0.446985 0.954621 0.694779 -0.133532
C27   C     C_R   0.950255 0.545535 0.696284 -0.134402
C28   C     C_R   0.951956 0.454512 0.696550 -0.112435
H13   H     H_    0.431649 0.088084 0.670964 0.094638
H14   H     H_    0.428319 0.912506 0.667586 0.093727
H15   H     H_    0.931005 0.587562 0.669291 0.093720
H16   H     H_    0.935971 0.412170 0.670032 0.094330
N17   N     N_R   0.473480 0.027920 0.793480 -0.040461
N18   N     N_R   0.473480 0.972080 0.793480 -0.041036
N19   N     N_R   0.973480 0.527920 0.793480 -0.040799
N20   N     N_R   0.973480 0.472080 0.793480 -0.040815
C29   C     C_R   0.753842 0.953959 0.303489 -0.100355
C30   C     C_R   0.755556 0.045969 0.303012 -0.124799
C31   C     C_R   0.256639 0.453886 0.301809 -0.122107
C32   C     C_R   0.255480 0.545968 0.303055 -0.096876
H17   H     H_    0.765408 0.911491 0.328924 0.104300
H18   H     H_    0.770931 0.088602 0.327436 0.114769
H19   H     H_    0.271496 0.411227 0.325812 0.106830
H20   H     H_    0.267997 0.588369 0.329283 0.104666
N21   N     N_R   0.681610 0.971120 0.207570 -0.040333
N22   N     N_R   0.681610 0.028880 0.207570 -0.038326
N23   N     N_R   0.181610 0.471120 0.207570 -0.038040
N24   N     N_R   0.181610 0.528880 0.207570 -0.041626
C33   C     C_R   0.646489 0.151141 0.093251 -0.081555
C34   C     C_R   0.688390 0.875226 0.090488 -0.041050
C35   C     C_R   0.188467 0.624837 0.090584 -0.040090
C36   C     C_R   0.146046 0.348040 0.089877 -0.085537
N25   N     N_R   0.605410 0.102620 0.056870 -0.054174
N26   N     N_R   0.605410 0.897380 0.056870 -0.054066
N27   N     N_R   0.105410 0.602620 0.056870 -0.053914
N28   N     N_R   0.105410 0.397380 0.056870 -0.052033
C37   C     C_R   0.597926 0.877045 0.907342 -0.130413
C38   C     C_R   0.554473 0.153632 0.911472 -0.115115
C39   C     C_R   0.053386 0.347977 0.907688 -0.121242
C40   C     C_R   0.097926 0.623168 0.907484 -0.128584
H21   H     H_    0.570998 0.874565 0.821750 0.101994
H22   H     H_    0.508605 0.167665 0.827731 0.096273
H23   H     H_    0.004520 0.335266 0.823472 0.096227
H24   H     H_    0.070880 0.625884 0.821949 0.100800
N29   N     N_R   0.549680 0.896430 0.944180 -0.047439
N30   N     N_R   0.549680 0.103570 0.944180 -0.045679
N31   N     N_R   0.049680 0.396430 0.944180 -0.045817
N32   N     N_R   0.049680 0.603570 0.944180 -0.046658
Ni1   Ni    Ni4+2 0.433410 0.064680 0.868830 0.222180
Ni2   Ni    Ni4+2 0.433410 0.935320 0.868830 0.222856
Ni3   Ni    Ni4+2 0.933410 0.564680 0.868830 0.220662
Ni4   Ni    Ni4+2 0.933410 0.435320 0.868830 0.219295
Ni5   Ni    Ni4+2 0.565650 0.934380 0.131170 0.244234
Ni6   Ni    Ni4+2 0.565650 0.065620 0.131170 0.239242
Ni7   Ni    Ni4+2 0.065650 0.434380 0.131170 0.242470
Ni8   Ni    Ni4+2 0.065650 0.565620 0.131170 0.241839
C41   C     C_R   0.428565 0.000168 0.630776 0.049700
C42   C     C_R   0.934944 0.500234 0.632414 0.047402
C43   C     C_R   0.801171 0.999785 0.365136 -0.017166
C44   C     C_R   0.303336 0.500000 0.363933 -0.015344
C45   C     C_R   0.612458 0.185332 0.003941 0.087344
C46   C     C_R   0.686309 0.863088 0.997412 0.120831
C47   C     C_R   0.186466 0.637006 0.997599 0.118632
C48   C     C_R   0.111226 0.315673 0.997129 0.110758
C49   C     C_3   0.026495 0.944384 0.622376 -0.390584
C50   C     C_3   0.023839 0.047203 0.635202 -0.377666
C51   C     C_3   0.522336 0.450746 0.636996 -0.390426
C52   C     C_3   0.524738 0.553741 0.630364 -0.389891
H25   H     H_    0.058458 0.907845 0.611131 0.165751
H26   H     H_    0.055373 0.087270 0.637109 0.157224
H27   H     H_    0.554131 0.411252 0.636758 0.153361
H28   H     H_    0.558245 0.591245 0.624905 0.162620
H29   H     H_    0.035046 0.939847 0.702090 0.169386
H30   H     H_    0.030665 0.043223 0.714016 0.173476
H31   H     H_    0.527056 0.452714 0.714763 0.167443
H32   H     H_    0.529188 0.556246 0.707922 0.166726
C53   C     C_3   0.922169 0.945010 0.528006 -0.389573
C54   C     C_3   0.919753 0.048107 0.539084 -0.393194
C55   C     C_3   0.418924 0.450546 0.538397 -0.387070
C56   C     C_3   0.421692 0.553738 0.531482 -0.389112
H33   H     H_    0.878642 0.941316 0.560670 0.165030
H34   H     H_    0.875141 0.045741 0.570480 0.167689
H35   H     H_    0.372547 0.452311 0.567442 0.167873
H36   H     H_    0.374937 0.556936 0.559847 0.163807
H37   H     H_    0.908445 0.908339 0.476233 0.180094
H38   H     H_    0.905016 0.087965 0.495716 0.171860
H39   H     H_    0.404717 0.411109 0.493703 0.162862
H40   H     H_    0.410478 0.590816 0.481772 0.179042
H41   H     H_    0.098290 0.968398 0.500094 0.184873
H42   H     H_    0.095467 0.041949 0.507717 0.172771
H43   H     H_    0.601076 0.460016 0.517466 0.166400
H44   H     H_    0.602297 0.533704 0.513023 0.182208
H45   H     H_    0.944739 0.968015 0.360827 0.220243
H46   H     H_    0.942966 0.041646 0.367769 0.177492
H47   H     H_    0.449507 0.459182 0.373964 0.168687
H48   H     H_    0.450690 0.532881 0.368428 0.219027
C57   C     C_3   0.062591 0.003284 0.510563 -0.392845
C58   C     C_3   0.566285 0.497799 0.520104 -0.390103
C59   C     C_3   0.073761 0.998311 0.621204 0.350191
C60   C     C_3   0.573909 0.500742 0.629074 0.360736
C61   C     C_3   0.898097 0.999055 0.461090 0.338254
C62   C     C_3   0.399472 0.500400 0.462923 0.341630
C63   C     C_3   0.959307 0.003273 0.416381 -0.332223
C64   C     C_3   0.463971 0.497346 0.422753 -0.343430
C65   C     C_R   0.270537 0.741383 0.895200 -0.187311
C66   C     C_R   0.177595 0.204580 0.895448 -0.190680
C67   C     C_R   0.686298 0.294322 0.910206 -0.188406
C68   C     C_R   0.769105 0.757639 0.895428 -0.187965
H49   H     H_    0.235827 0.765652 0.821119 0.138223
H50   H     H_    0.170544 0.197820 0.819441 0.138744
H51   H     H_    0.669272 0.309052 0.832340 0.135023
H52   H     H_    0.733918 0.732825 0.821869 0.138091
C69   C     C_R   0.618105 0.264938 0.909143 -0.190301
C70   C     C_R   0.721499 0.802464 0.894629 -0.181815
C71   C     C_R   0.223019 0.696455 0.894485 -0.182815
C72   C     C_R   0.117501 0.241681 0.892452 -0.179892
H53   H     H_    0.554629 0.254363 0.830705 0.140197
H54   H     H_    0.652985 0.809328 0.820110 0.136907
H55   H     H_    0.155114 0.688949 0.819429 0.136743
H56   H     H_    0.069807 0.262091 0.815153 0.141617
C73   C     C_R   0.638505 0.242667 0.006782 -0.005658
C74   C     C_R   0.755048 0.831669 0.991457 -0.036016
C75   C     C_R   0.255719 0.668050 0.991797 -0.035147
C76   C     C_R   0.131567 0.258705 0.990477 -0.028418
C77   C     C_R   0.714656 0.263277 0.106929 0.215637
C78   C     C_R   0.847795 0.823025 0.083807 0.228508
C79   C     C_R   0.348137 0.677213 0.084579 0.228008
C80   C     C_R   0.186028 0.226858 0.085449 0.196901
C81   C     C_R   0.398156 0.723027 0.084664 0.217836
C82   C     C_R   0.247988 0.188637 0.088909 0.261046
C83   C     C_R   0.790179 0.284842 0.109097 0.210542
C84   C     C_R   0.897847 0.777253 0.083990 0.218557
C85   C     C_R   0.353164 0.758410 0.992538 -0.038047
C86   C     C_R   0.250161 0.182446 0.995754 -0.051657
C87   C     C_R   0.775943 0.300609 0.008407 -0.046040
C88   C     C_R   0.852619 0.741396 0.992379 -0.039105
C89   C     C_R   0.384698 0.950933 0.462456 -0.136645
C90   C     C_R   0.395792 0.050281 0.470901 -0.147613
C91   C     C_R   0.887786 0.451863 0.461419 -0.136322
C92   C     C_R   0.895099 0.551328 0.467250 -0.139446
H57   H     H_    0.377577 0.911902 0.491695 0.123463
H58   H     H_    0.397808 0.089573 0.506056 0.134424
H59   H     H_    0.885534 0.412563 0.493684 0.136101
H60   H     H_    0.899043 0.590453 0.504045 0.118903
C93   C     C_R   0.397572 0.950750 0.378866 -0.144002
C94   C     C_R   0.413050 0.049857 0.391959 -0.041311
C95   C     C_R   0.889272 0.452374 0.369424 -0.135190
C96   C     C_R   0.897195 0.551664 0.375810 -0.135110
C97   C     C_R   0.421220 0.999977 0.351430 0.116060
C98   C     C_R   0.905712 0.501854 0.335046 0.105159
C99   C     C_R   0.394529 0.000500 0.516365 0.102252
C100  C     C_R   0.900826 0.501156 0.517200 0.109680
N33   N     N_R   0.716133 0.259101 0.204540 0.234366
O1    O     O_R   0.638391 0.264799 0.197374 -0.402622
O2    O     O_R   0.791380 0.244020 0.297754 -0.351186
N34   N     N_R   0.891793 0.862118 0.172232 0.238673
O3    O     O_R   0.885990 0.914392 0.150787 -0.404563
O4    O     O_R   0.925763 0.846621 0.272015 -0.381023
N35   N     N_R   0.391923 0.638559 0.173519 0.238110
O5    O     O_R   0.425420 0.654552 0.272989 -0.379696
O6    O     O_R   0.386453 0.586180 0.152806 -0.410741
N36   N     N_R   0.173195 0.231210 0.172607 0.242178
O7    O     O_R   0.244611 0.232653 0.274749 -0.342901
O8    O     O_R   0.089450 0.238561 0.149195 -0.362425
N37   N     N_R   0.495135 0.730979 0.172054 0.240245
O9    O     O_R   0.556557 0.737748 0.149406 -0.399604
O10   O     O_R   0.520710 0.738192 0.272292 -0.359731
N38   N     N_R   0.302417 0.153928 0.182026 0.233716
O11   O     O_R   0.288904 0.101068 0.170814 -0.421641
O12   O     O_R   0.371709 0.174414 0.274507 -0.415331
N39   N     N_R   0.881224 0.283971 0.210208 0.238224
O13   O     O_R   0.941044 0.246319 0.226556 -0.334197
O14   O     O_R   0.901889 0.317328 0.289452 -0.413439
N40   N     N_R   0.995008 0.769744 0.170982 0.240930
O15   O     O_R   0.021162 0.763035 0.271510 -0.359842
O16   O     O_R   0.056038 0.762868 0.147787 -0.396788
H61   H     H_    0.397941 0.911720 0.344316 0.128731
H62   H     H_    0.429598 0.088584 0.372641 0.181765
H63   H     H_    0.887457 0.413640 0.333245 0.178650
H64   H     H_    0.902691 0.590924 0.345982 0.124081
H65   H     H_    0.211512 0.910016 0.727493 0.097941
H66   H     H_    0.206291 0.085957 0.700120 0.090560
H67   H     H_    0.707393 0.412249 0.720527 0.089712
H68   H     H_    0.711211 0.589330 0.732457 0.098616
H69   H     H_    0.687543 0.161664 0.178903 0.155279
H70   H     H_    0.744777 0.867903 0.174923 0.141975
H71   H     H_    0.244870 0.632162 0.175045 0.142862
H72   H     H_    0.187596 0.334990 0.174431 0.144992

loop_
_geom_bond_atom_site_label_1
_geom_bond_atom_site_label_2
_geom_bond_distance
_ccdc_geom_bond_type
N24   Ni8   1.880850 S    
C96   H64   1.080475 S    
H43   C58   1.113851 S    
C39   H23   1.080146 S    
N13   N14   1.405190 A    
C36   H72   1.079381 S    
C37   N29   1.324249 A    
N11   N12   1.360426 A    
C3    N3    1.326952 A    
C79   N35   1.436687 S    
C30   C43   1.381811 A    
C4    H4    1.077452 S    
C1    C17   1.380992 A    
C40   N32   1.324322 A    
C68   C88   1.395886 A    
C31   N23   1.323078 A    
C51   C55   1.537742 S    
C79   C81   1.412843 A    
C21   C97   1.449746 S    
N37   O9    1.301475 A    
C2    C18   1.383784 A    
C13   H65   1.078158 S    
C76   C80   1.401366 A    
C12   H12   1.072948 S    
N4    N7    1.407398 A    
C65   C71   1.366071 A    
N12   Ni7   1.865120 S    
C1    H1    1.069893 S    
C18   C85   1.465596 S    
H41   C57   1.114201 S    
C50   H26   1.110404 S    
C55   H39   1.110796 S    
C50   C59   1.555759 S    
C66   H50   1.077602 S    
N38   O12   1.300823 A    
C3    H3    1.080472 S    
C61   C63   1.548233 S    
C55   C62   1.553698 S    
C4    C20   1.398309 A    
C5    C18   1.385932 A    
C50   C54   1.535412 S    
N16   Ni3   1.862260 S    
C67   C87   1.406682 A    
C31   C44   1.381751 A    
C94   C97   1.397586 A    
C49   C53   1.531620 S    
C92   C100  1.403184 A    
H42   C57   1.113766 S    
C30   N22   1.322593 A    
N32   Ni3   1.907771 S    
N3    N8    1.407322 A    
C29   N21   1.318055 A    
N35   O6    1.301270 A    
N3    Ni3   1.854052 S    
N33   O1    1.301549 A    
N2    Ni2   1.854414 S    
C6    H6    1.073741 S    
C92   C96   1.381428 A    
N19   Ni3   1.853568 S    
C38   N30   1.332025 A    
C70   H54   1.079049 S    
C40   C47   1.384056 A    
C25   N17   1.325162 A    
C10   N10   1.331458 A    
N7    Ni7   1.877660 S    
C40   H24   1.076668 S    
C80   N36   1.439859 S    
C27   N19   1.330297 A    
C28   N20   1.334992 A    
C65   H49   1.080371 S    
C84   N40   1.435215 S    
C23   C59   1.456966 S    
C16   H68   1.077905 S    
C71   C75   1.398532 A    
C52   H28   1.110008 S    
C83   C87   1.424174 A    
C11   C22   1.382470 A    
C32   H20   1.079478 S    
N22   Ni6   1.880850 S    
C95   C98   1.400109 A    
N5    Ni5   1.877660 S    
C7    N7    1.319031 A    
N21   Ni5   1.878282 S    
C15   C24   1.390238 A    
C68   C70   1.365711 A    
C8    N8    1.338171 A    
N26   N29   1.374388 A    
N18   Ni2   1.853966 S    
C49   C59   1.553029 S    
N19   N20   1.358480 A    
N23   Ni7   1.878282 S    
N33   O2    1.301260 A    
C2    H2    1.080290 S    
C12   C22   1.387815 A    
C7    C20   1.381417 A    
C56   H36   1.112819 S    
C8    C19   1.386074 A    
C78   N34   1.436655 S    
C57   C59   1.547662 S    
C45   C73   1.459289 S    
C17   C86   1.458549 S    
C6    C17   1.389901 A    
C58   C60   1.550432 S    
N25   Ni6   1.840139 S    
N37   O10   1.300649 A    
N2    N5    1.407398 A    
C9    H9    1.071670 S    
N10   Ni5   1.865120 S    
C51   H31   1.112824 S    
N27   Ni8   1.840139 S    
C27   C42   1.376969 A    
C67   H51   1.079717 S    
N35   O5    1.300550 A    
C81   C85   1.416451 A    
C81   N37   1.435240 S    
C72   H56   1.079840 S    
C12   N12   1.337354 A    
C1    N1    1.320648 A    
N15   Ni4   1.864773 S    
C14   H66   1.075388 S    
N11   Ni8   1.865514 S    
C38   H22   1.080603 S    
N14   Ni1   1.862260 S    
H44   C58   1.114081 S    
N39   O13   1.301081 A    
C52   C60   1.553954 S    
C37   H21   1.077449 S    
N31   Ni4   1.910437 S    
C77   N33   1.441116 S    
C15   N15   1.324497 A    
C39   C48   1.367474 A    
C26   N18   1.331178 A    
N30   Ni1   1.907771 S    
C11   N11   1.331972 A    
C16   C24   1.388333 A    
C75   C79   1.412840 A    
C51   C60   1.554786 S    
C67   C69   1.376593 A    
N9    Ni6   1.865514 S    
C39   N31   1.314295 A    
N8    Ni8   1.880264 S    
N28   N31   1.374388 A    
C43   C61   1.457260 S    
H46   C63   1.114184 S    
C90   H58   1.080031 S    
C7    H7    1.070113 S    
N15   N16   1.405190 A    
C77   C83   1.397118 A    
C15   H67   1.074988 S    
N29   Ni2   1.910437 S    
C53   H33   1.112877 S    
N39   O14   1.299950 A    
C34   N26   1.341114 A    
C70   C74   1.398132 A    
C33   N25   1.323376 A    
C71   H55   1.078764 S    
C8    H8    1.077883 S    
C36   C48   1.389450 A    
C33   H69   1.075100 S    
N9    N10   1.360426 A    
C5    N5    1.336874 A    
C34   C46   1.395447 A    
C57   C63   1.518934 S    
N38   O11   1.300386 A    
N40   O16   1.301290 A    
C89   C99   1.402609 A    
C28   C42   1.383533 A    
C82   C86   1.415612 A    
C53   C61   1.555889 S    
C49   H25   1.110963 S    
C46   C74   1.464284 S    
C96   C98   1.399975 A    
H47   C64   1.114140 S    
C65   C85   1.395709 A    
C10   H10   1.078695 S    
C41   C99   1.446741 S    
C51   H27   1.109993 S    
C11   H11   1.077511 S    
C62   C64   1.545584 S    
C90   C99   1.393923 A    
C10   C21   1.382368 A    
C4    N4    1.334970 A    
C2    N2    1.327417 A    
N21   N22   1.405190 A    
C34   H70   1.077465 S    
C27   H15   1.079816 S    
H45   C63   1.114196 S    
C42   C100  1.457808 S    
C26   H14   1.080320 S    
C53   H37   1.110805 S    
C29   H17   1.079318 S    
C33   C45   1.381782 A    
N23   N24   1.405190 A    
N1    Ni1   1.854052 S    
C52   H32   1.112808 S    
C26   C41   1.374782 A    
C83   N39   1.429097 S    
C91   H59   1.080871 S    
C90   C94   1.368526 A    
N17   Ni1   1.853568 S    
C38   C45   1.382696 A    
C56   C62   1.555192 S    
N34   O4    1.300514 A    
C19   C88   1.465217 S    
C25   H13   1.079867 S    
C20   C87   1.467827 S    
C89   H57   1.080900 S    
C14   C23   1.385869 A    
C68   H52   1.080500 S    
C35   C47   1.395593 A    
C32   N24   1.322442 A    
C49   H29   1.112951 S    
C30   H18   1.080200 S    
C78   C84   1.413035 A    
N36   O8    1.301645 A    
N6    Ni6   1.880264 S    
C5    H5    1.077650 S    
C91   C100  1.400083 A    
C92   H60   1.079923 S    
C94   H62   1.071368 S    
C55   H35   1.112794 S    
C56   H40   1.111210 S    
N20   Ni4   1.853966 S    
C69   C73   1.393010 A    
C22   C98   1.458966 S    
H48   C64   1.114247 S    
C36   N28   1.336557 A    
C35   N27   1.341198 A    
N25   N30   1.374466 A    
C73   C77   1.400892 A    
C6    N6    1.335985 A    
C48   C76   1.447893 S    
C58   C64   1.520587 S    
C93   C97   1.400826 A    
N27   N32   1.374466 A    
C66   C86   1.398161 A    
C37   C46   1.384238 A    
C3    C19   1.382414 A    
C13   C23   1.383536 A    
C54   C61   1.551840 S    
N26   Ni5   1.839745 S    
C95   H63   1.076209 S    
C31   H19   1.080139 S    
C13   N13   1.318858 A    
N17   N18   1.358480 A    
N1    N6    1.407322 A    
C9    C21   1.384728 A    
N4    Ni4   1.854414 S    
C72   C76   1.395615 A    
C66   C72   1.362849 A    
C44   C62   1.464254 S    
C93   H61   1.081045 S    
C82   N38   1.424551 S    
C50   H30   1.112997 S    
C14   N14   1.321906 A    
C25   C41   1.378402 A    
C16   N16   1.322072 A    
C28   H16   1.080348 S    
N34   O3    1.301250 A    
C54   H38   1.110985 S    
C24   C60   1.466696 S    
N36   O7    1.300329 A    
C52   C56   1.534993 S    
C74   C78   1.412951 A    
N28   Ni7   1.839745 S    
C54   H34   1.112857 S    
N13   Ni2   1.864773 S    
C91   C95   1.383495 A    
C89   C93   1.383889 A    
C32   C44   1.379675 A    
N40   O15   1.300471 A    
C29   C43   1.376043 A    
C69   H53   1.081672 S    
C84   C88   1.416251 A    
C35   H71   1.077150 S    
C9    N9    1.326690 A    
C80   C82   1.402412 A    
C47   C75   1.465000 S    
