data_mof_unit_57292.cif
_audit_creation_date              2012-12-10T16:57:03-0500
_audit_creation_method            fapswitch 2.2
_symmetry_space_group_name_H-M    P1
_symmetry_Int_Tables_number       1
_space_group_crystal_system       triclinic
_cell_length_a                    7.855996
_cell_length_b                    8.624149
_cell_length_c                    17.036663
_cell_angle_alpha                 92.981614
_cell_angle_beta                  80.848155
_cell_angle_gamma                 93.601614
_cell_volume                      1136.27682619

loop_
_atom_site_label
_atom_site_type_symbol
_atom_type_description
_atom_site_fract_x
_atom_site_fract_y
_atom_site_fract_z
_atom_type_partial_charge
C1    C     C_R   0.544941 0.793794 0.498259 0.909034
C2    C     C_R   0.451952 0.628469 0.232502 0.145799
C3    C     C_R   0.577901 0.421092 0.853524 0.107806
C4    C     C_R   0.400074 0.606553 0.157649 0.084389
C5    C     C_R   0.487851 0.541286 0.898086 0.036393
C6    C     C_R   0.434041 0.466730 0.113172 0.130276
C7    C     C_R   0.388539 0.639510 0.862921 0.118955
C8    C     C_R   0.513121 0.346584 0.143455 0.096994
C9    C     C_R   0.380470 0.618495 0.782658 -0.249291
C10   C     C_R   0.558668 0.366244 0.218904 -0.328577
C11   C     C_2   0.492338 0.560612 0.982179 -0.238927
C12   C     C_R   0.454953 0.206289 0.502271 0.916705
C13   C     C_2   0.409780 0.454902 0.030617 -0.158910
C14   C     C_3   0.652047 0.263299 0.724793 -0.829692
C15   C     C_3   0.424684 0.781906 0.278944 -0.906259
C16   C     C_3   0.012742 0.308137 0.448994 -0.502309
C17   C     C_3   0.987179 0.691775 0.551109 -0.500876
C18   C     C_2   0.563792 0.956742 0.508268 -0.102277
C19   C     C_2   0.435679 0.043409 0.492668 -0.099838
C20   C     C_R   0.477815 0.498866 0.652705 0.880964
C21   C     C_R   0.521931 0.500446 0.347520 0.876982
C22   C     C_R   0.470562 0.501275 0.737628 -0.125573
C23   C     C_R   0.525890 0.504420 0.263353 -0.059826
C24   C     C_R   0.566057 0.398058 0.772763 0.171335
H1    H     H_    0.611179 0.270614 0.244448 0.151454
H2    H     H_    0.487725 0.790597 0.332850 0.242662
H3    H     H_    0.383646 0.836840 0.932802 0.187073
H4    H     H_    0.208721 0.711996 0.953766 0.207531
H5    H     H_    0.679994 0.190114 0.090241 0.189042
H6    H     H_    0.484214 0.112937 0.130079 0.173526
H7    H     H_    0.198757 0.746726 0.166195 0.196558
H8    H     H_    0.390181 0.825112 0.119744 0.176280
H9    H     H_    0.610050 0.259420 0.931933 0.202122
H10   H     H_    0.774035 0.398304 0.916191 0.198368
H11   H     H_    0.821813 0.995093 0.505847 0.178871
H12   H     H_    0.308253 0.697210 0.754749 0.171029
H13   H     H_    0.708227 0.967420 0.597679 0.168802
H14   H     H_    0.177447 0.005034 0.496054 0.178816
H15   H     H_    0.289382 0.033296 0.403986 0.168510
H16   H     H_    0.015919 0.233046 0.499511 0.187304
H17   H     H_    0.919672 0.251929 0.412345 0.180248
H18   H     H_    0.137693 0.319298 0.409168 0.209425
H19   H     H_    0.080229 0.747896 0.587795 0.180195
H20   H     H_    0.983942 0.766995 0.500649 0.189185
H21   H     H_    0.862236 0.680493 0.590924 0.209010
H22   H     H_    0.342888 0.352189 0.007761 0.159249
H23   H     H_    0.565337 0.660621 0.003925 0.166197
H24   H     H_    0.685278 0.172874 0.762912 0.242750
H25   H     H_    0.563088 0.205105 0.686477 0.223047
H26   H     H_    0.772737 0.305746 0.687138 0.260145
H27   H     H_    0.482522 0.879618 0.241873 0.218269
H28   H     H_    0.284468 0.796996 0.297240 0.249733
N1    N     N_2   0.953500 0.457650 0.478520 0.001992
N2    N     N_2   0.046500 0.542350 0.521480 0.000530
N3    N     N_3   0.295620 0.761475 0.907641 -0.459293
N4    N     N_3   0.547252 0.204928 0.097434 -0.486809
N5    N     N_3   0.310430 0.723529 0.126157 -0.470639
N6    N     N_3   0.686553 0.326127 0.888923 -0.463003
N7    N     N_3   0.708541 0.021180 0.544018 -0.445765
N8    N     N_3   0.290171 0.979120 0.457436 -0.444698
O1    O     O_R   0.388470 0.738640 0.505270 -0.591020
O2    O     O_R   0.611530 0.261360 0.494730 -0.593088
O3    O     O_R   0.679650 0.711510 0.491500 -0.651240
O4    O     O_R   0.320350 0.288490 0.508500 -0.652557
O5    O     O_R   0.337210 0.515200 0.623500 -0.616360
O6    O     O_R   0.662790 0.484800 0.376500 -0.616110
O7    O     O_R   0.628380 0.488060 0.609730 -0.624224
O8    O     O_R   0.371620 0.511940 0.390270 -0.615793
Zn1   Zn    Zn3+2 0.305580 0.518120 0.509190 0.946635
Zn2   Zn    Zn3+2 0.694420 0.481880 0.490810 0.942758

loop_
_geom_bond_atom_site_label_1
_geom_bond_atom_site_label_2
_ccdc_geom_bond_type
C4    N5    S    
C9    H12   S    
C2    C4    A    
C17   H19   S    
H9    N6    S    
H5    N4    S    
C15   H27   S    
C19   N8    S    
C12   O2    A    
C20   O5    A    
C20   O7    A    
C11   H23   S    
O3    Zn2   S    
C7    N3    S    
O7    Zn2   S    
H7    N5    S    
C22   C24   A    
C6    C8    A    
C3    C24   A    
C17   H20   S    
H15   N8    S    
O6    Zn2   S    
N1    N2    D    
C16   N1    S    
C6    C13   S    
C2    C15   S    
C11   C13   D    
O2    Zn2   S    
C8    N4    S    
C1    C18   S    
H13   N7    S    
N2    Zn1   S    
H8    N5    S    
C16   H16   S    
O5    Zn1   S    
N1    Zn2   S    
C1    O3    A    
C12   C19   S    
H11   N7    S    
H4    N3    S    
C17   H21   S    
C5    C11   S    
H3    N3    S    
C21   C23   S    
C21   O8    A    
C13   H22   S    
C10   C23   A    
H14   N8    S    
C9    C22   A    
C14   H25   S    
C14   H26   S    
O1    Zn1   S    
C3    N6    S    
C7    C9    A    
C18   N7    S    
C10   H1    S    
C4    C6    A    
C18   C19   D    
C14   C24   S    
C2    C23   A    
H10   N6    S    
C12   O4    A    
C5    C7    A    
C15   H2    S    
C14   H24   S    
C3    C5    A    
C15   H28   S    
C16   H18   S    
H6    N4    S    
C17   N2    S    
O4    Zn1   S    
C8    C10   A    
C20   C22   S    
O8    Zn1   S    
C16   H17   S    
C21   O6    A    
C1    O1    A    
