data_mof_unit_65547.cif
_audit_creation_date              2013-03-05T16:37:56-0500
_audit_creation_method            fapswitch 2.2
_symmetry_space_group_name_H-M    P1
_symmetry_Int_Tables_number       1
_space_group_crystal_system       monoclinic
_cell_length_a                    16.022716
_cell_length_b                    14.770141
_cell_length_c                    11.728955
_cell_angle_alpha                 90.0
_cell_angle_beta                  89.984717
_cell_angle_gamma                 90.0
_cell_volume                      2775.74828903

loop_
_atom_site_label
_atom_site_type_symbol
_atom_site_description
_atom_site_fract_x
_atom_site_fract_y
_atom_site_fract_z
_atom_type_partial_charge
O1    O     O_R   0.380310 0.575320 0.500020 -0.558178
O2    O     O_R   0.619690 0.424680 0.499980 -0.558260
O3    O     O_R   0.619690 0.575320 0.499980 -0.558177
O4    O     O_R   0.380310 0.424680 0.500020 -0.558261
H1    H     H_    0.617489 0.083559 0.588988 0.161741
H2    H     H_    0.382510 0.916440 0.411012 0.163068
H3    H     H_    0.382510 0.083559 0.411012 0.161737
H4    H     H_    0.617490 0.916440 0.588988 0.163067
C1    C     C_R   0.340930 0.500000 0.500022 0.809849
C2    C     C_R   0.659070 0.500000 0.499977 0.809845
O5    O     O_R   0.500010 0.575340 0.337190 -0.566180
O6    O     O_R   0.499990 0.424660 0.662810 -0.566182
O7    O     O_R   0.499990 0.575340 0.662810 -0.566185
O8    O     O_R   0.500010 0.424660 0.337190 -0.566186
C3    C     C_R   0.500011 0.500000 0.283427 0.823518
C4    C     C_R   0.499988 0.500000 0.716573 0.823518
Cu1   Cu    Cu3+1 0.500000 0.589220 0.500000 1.036279
Cu2   Cu    Cu3+1 0.500000 0.410780 0.500000 1.036222
C5    C     C_R   0.565840 0.952110 0.549861 -0.118574
C6    C     C_R   0.434160 0.047889 0.450139 -0.118422
C7    C     C_R   0.434160 0.952110 0.450139 -0.118575
C8    C     C_R   0.565840 0.047889 0.549861 -0.118420
C9    C     C_1   0.500000 0.802713 0.500000 0.180007
C10   C     C_1   0.500000 0.197287 0.500000 0.180066
N1    N     N_1   0.500000 0.276710 0.500000 -0.138947
N2    N     N_1   0.500000 0.723290 0.500000 -0.138900
C11   C     C_1   0.500008 0.500000 0.162001 -0.141381
C12   C     C_1   0.499991 0.500000 0.837999 -0.141381
C13   C     C_1   0.500003 0.500000 0.059754 0.034886
C14   C     C_1   0.499997 0.500000 0.940246 0.034886
C15   C     C_R   0.956061 0.582979 0.499860 0.224174
C16   C     C_R   0.043939 0.417022 0.499922 0.224256
C17   C     C_R   0.043939 0.582979 0.500072 0.224172
C18   C     C_R   0.956061 0.417022 0.500137 0.224260
C19   C     C_R   0.912593 0.500000 0.499995 -0.203125
C20   C     C_R   0.087407 0.500001 0.500001 -0.203124
C21   C     C_1   0.822875 0.500002 0.499987 0.177452
C22   C     C_1   0.177125 0.500002 0.500010 0.177457
C23   C     C_1   0.252032 0.500001 0.500018 -0.080192
C24   C     C_1   0.747968 0.500001 0.499981 -0.080195
C25   C     C_R   0.500000 0.902864 0.500000 0.021783
C26   C     C_R   0.500000 0.097136 0.500000 0.022860
N3    N     N_R   0.088798 0.667292 0.503871 0.170963
O9    O     O_R   0.148289 0.683755 0.431231 -0.320248
O10   O     O_R   0.069650 0.728380 0.579418 -0.255037
N4    N     N_R   0.911199 0.332714 0.504009 0.170533
O11   O     O_R   0.851734 0.316209 0.431380 -0.317905
O12   O     O_R   0.930322 0.271668 0.579609 -0.256439
N5    N     N_R   0.911201 0.667289 0.495996 0.170965
O13   O     O_R   0.851717 0.683791 0.568632 -0.320236
O14   O     O_R   0.930342 0.728335 0.420393 -0.255050
N6    N     N_R   0.088801 0.332712 0.496114 0.170534
O15   O     O_R   0.148265 0.316243 0.568757 -0.317908
O16   O     O_R   0.069679 0.271630 0.420561 -0.256434

loop_
_geom_bond_atom_site_label_1
_geom_bond_atom_site_label_2
_geom_bond_distance
_ccdc_geom_bond_type
C4    C12   1.424194 S    
C6    C26   1.408663 A    
N3    O9    1.301218 A    
C15   C17   1.408050 A    
C13   C14   1.401705 S    
C18   N4    1.438522 S    
C11   C13   1.199250 T    
C10   C26   1.479243 S    
O8    Cu2   1.920564 S    
C3    C11   1.424194 S    
C9    C25   1.479237 S    
O7    Cu1   1.920564 S    
O4    Cu2   1.928717 S    
C17   C20   1.409679 A    
C12   C14   1.199250 T    
Cu1   Cu2   2.635582 S    
O4    C1    1.278967 A    
O3    C2    1.278963 A    
C10   N1    1.173090 T    
N3    O10   1.301246 A    
C8    C26   1.408660 A    
Cu2   N1    1.980234 S    
C15   N5    1.438543 S    
C7    C25   1.408662 A    
Cu1   N2    1.980234 S    
C16   C20   1.409682 A    
C20   C22   1.437512 S    
C19   C21   1.437513 S    
N6    O16   1.301250 A    
O3    Cu1   1.928717 S    
C21   C24   1.200223 T    
N4    O12   1.301250 A    
C22   C23   1.200223 T    
C15   C19   1.409679 A    
C9    N2    1.173089 T    
H4    C5    1.083167 S    
O2    Cu2   1.928717 S    
O1    Cu1   1.928717 S    
C17   N3    1.438546 S    
C5    C25   1.408661 A    
C1    C23   1.424386 S    
C5    C8    1.414659 A    
O1    C1    1.278964 A    
N6    O15   1.301281 A    
C2    C24   1.424386 S    
C18   C19   1.409677 A    
O7    C4    1.279033 A    
O6    Cu2   1.920564 S    
N5    O13   1.301215 A    
N4    O11   1.301280 A    
C16   N6    1.438523 S    
C6    C7    1.414658 A    
O8    C3    1.279035 A    
H2    C7    1.083167 S    
O5    C3    1.279034 A    
H3    C6    1.083166 S    
O5    Cu1   1.920564 S    
H1    C8    1.083165 S    
O6    C4    1.279035 A    
C16   C18   1.408062 A    
N5    O14   1.301247 A    
O2    C2    1.278967 A    
