data_mof_unit_5572.cif
_audit_creation_date              2012-12-10T17:44:36-0500
_audit_creation_method            fapswitch 2.2
_symmetry_space_group_name_H-M    P1
_symmetry_Int_Tables_number       1
_space_group_crystal_system       triclinic
_cell_length_a                    9.952155
_cell_length_b                    10.633939
_cell_length_c                    15.567276
_cell_angle_alpha                 92.730015
_cell_angle_beta                  68.387366
_cell_angle_gamma                 89.695942
_cell_volume                      1529.46611726

loop_
_atom_site_label
_atom_site_type_symbol
_atom_type_description
_atom_site_fract_x
_atom_site_fract_y
_atom_site_fract_z
_atom_type_partial_charge
C1    C     C_R   0.508056 0.736387 0.484533 0.954971
C2    C     C_R   0.737603 0.520263 0.029020 -0.146525
C3    C     C_R   0.596768 0.480585 0.079758 -0.097174
C4    C     C_R   0.409542 0.498222 0.675270 0.949926
C5    C     C_R   0.836279 0.540223 0.073513 0.457368
C6    C     C_R   0.794394 0.518902 0.167934 0.246036
C7    C     C_R   0.546493 0.490045 0.176698 0.336909
C8    C     C_R   0.301407 0.861058 0.414896 -0.079715
C9    C     C_R   0.172272 0.918659 0.421787 -0.149798
C10   C     C_R   0.140041 0.040520 0.459828 -0.201051
C11   C     C_R   0.241128 0.107614 0.485051 -0.109349
C12   C     C_R   0.430895 0.456484 0.902993 -0.074414
C13   C     C_R   0.380593 0.054794 0.470292 0.061335
C14   C     C_R   0.400610 0.925457 0.446017 0.027776
C15   C     C_R   0.520625 0.864063 0.454071 -0.260505
C16   C     C_R   0.500953 0.258191 0.494801 0.893491
C17   C     C_R   0.648348 0.929315 0.437094 0.320940
C18   C     C_R   0.640875 0.060220 0.437557 0.338532
C19   C     C_R   0.504170 0.122451 0.473410 -0.315967
C20   C     C_R   0.805807 0.692729 0.613007 0.435043
C21   C     C_R   0.860382 0.790054 0.655920 0.273089
C22   C     C_R   0.997846 0.776610 0.658592 0.352909
C23   C     C_R   0.318095 0.371448 0.942147 0.144232
C24   C     C_R   0.082879 0.673902 0.612167 -0.226379
C25   C     C_R   0.042667 0.588332 0.555085 -0.034785
C26   C     C_R   0.898534 0.592201 0.555111 -0.021189
C27   C     C_R   0.960253 0.416964 0.445334 0.492416
C28   C     C_R   0.590683 0.499714 0.323844 0.897997
C29   C     C_R   0.103572 0.417580 0.445638 -0.191922
C30   C     C_R   0.356152 0.473446 0.773223 -0.128799
C31   C     C_R   0.646295 0.500382 0.221627 -0.303019
C32   C     C_R   0.227072 0.336521 0.895000 -0.135578
C33   C     C_R   0.251868 0.382201 0.808159 -0.322708
C34   C     C_R   0.538576 0.473328 0.941465 -0.084882
C35   C     C_R   0.431171 0.522001 0.826694 0.432881
C36   C     C_3   0.998729 0.696175 0.029328 0.100750
C37   C     C_3   0.154242 0.724633 0.968950 -0.289971
C38   C     C_3   0.183996 0.864844 0.973291 -0.971352
C39   C     C_3   0.766326 0.152020 0.302245 0.166061
C40   C     C_3   0.903787 0.096509 0.226902 -0.359135
C41   C     C_3   0.915447 0.136273 0.131464 -0.997240
C42   C     C_3   0.763158 0.979675 0.644497 0.043920
C43   C     C_3   0.645116 0.078897 0.695464 -0.358377
C44   C     C_3   0.493508 0.027544 0.718565 -0.798394
C45   C     C_R   0.506621 0.438906 0.032802 0.057088
C46   C     C_3   0.771785 0.397387 0.752817 0.110164
C47   C     C_3   0.926084 0.361457 0.743508 -0.404350
C48   C     C_3   0.973715 0.234241 0.691941 -0.967736
C49   C     C_R   0.390684 0.357424 0.072840 -0.173796
C50   C     C_R   0.300291 0.321160 0.026562 -0.191053
C51   C     C_R   0.680873 0.513491 0.890095 0.482968
C52   C     C_R   0.777785 0.537037 0.934487 -0.249819
H1    H     H_    0.215109 0.255734 0.057621 0.150723
H2    H     H_    0.194119 0.343205 0.766938 0.181839
H3    H     H_    0.373288 0.316426 0.138277 0.186835
H4    H     H_    0.979298 0.728402 0.102196 0.183091
H5    H     H_    0.924229 0.749108 0.004445 0.127722
H6    H     H_    0.229481 0.671863 0.992870 0.229301
H7    H     H_    0.174428 0.693187 0.896044 0.244105
H8    H     H_    0.111389 0.919601 0.948427 0.274381
H9    H     H_    0.297746 0.881682 0.928469 0.275151
H10   H     H_    0.167425 0.897720 0.045357 0.262602
H11   H     H_    0.856010 0.923743 0.409374 0.341382
H12   H     H_    0.324556 0.766709 0.383051 0.171975
H13   H     H_    0.764349 0.255731 0.298183 0.178163
H14   H     H_    0.671492 0.117106 0.286525 0.094288
H15   H     H_    0.000479 0.128617 0.240362 0.225289
H16   H     H_    0.902082 0.992047 0.227637 0.231512
H17   H     H_    0.822248 0.101429 0.114953 0.270825
H18   H     H_    0.016523 0.096121 0.078204 0.265844
H19   H     H_    0.918079 0.240491 0.128985 0.273176
H20   H     H_    0.010309 0.280679 0.351595 0.308448
H21   H     H_    0.609797 0.768111 0.671208 0.379583
H22   H     H_    0.739150 0.936622 0.585481 0.162233
H23   H     H_    0.096451 0.867710 0.399122 0.146947
H24   H     H_    0.868154 0.027011 0.615780 0.130916
H25   H     H_    0.657487 0.112393 0.760694 0.228866
H26   H     H_    0.657351 0.160402 0.651229 0.187293
H27   H     H_    0.478214 0.991972 0.654611 0.243038
H28   H     H_    0.412010 0.103961 0.752433 0.240696
H29   H     H_    0.475439 0.950280 0.766819 0.284519
H30   H     H_    0.352132 0.546818 0.193030 0.344707
H31   H     H_    0.981229 0.929001 0.737578 0.368643
H32   H     H_    0.891895 0.445842 0.239496 0.363558
H33   H     H_    0.501685 0.677417 0.863478 0.339194
H34   H     H_    0.037479 0.084648 0.467904 0.144091
H35   H     H_    0.767378 0.397761 0.682636 0.181581
H36   H     H_    0.694887 0.324681 0.789970 0.110122
H37   H     H_    0.001634 0.434304 0.706103 0.248788
H38   H     H_    0.931714 0.355354 0.813033 0.225460
H39   H     H_    0.908285 0.159172 0.733832 0.272009
H40   H     H_    0.088689 0.214420 0.680574 0.272425
H41   H     H_    0.961045 0.233966 0.624008 0.252209
H42   H     H_    0.202928 0.199239 0.515557 0.176749
H43   H     H_    0.181515 0.663881 0.622765 0.257704
H44   H     H_    0.184609 0.350961 0.400885 0.155040
H45   H     H_    0.885609 0.566724 0.893755 0.199941
H46   H     H_    0.143473 0.268320 0.922420 0.151830
N1    N     N_R   0.856800 0.501200 0.500850 -0.098670
N2    N     N_R   0.142390 0.501280 0.500880 -0.100410
O1    O     O_R   0.385310 0.683220 0.500000 -0.660374
O2    O     O_3   0.778102 0.863621 0.414604 -0.760151
O3    O     O_3   0.764871 0.124378 0.391166 -0.615787
O4    O     O_3   0.924106 0.333950 0.387664 -0.734216
O5    O     O_3   0.660288 0.691068 0.636033 -0.654318
O6    O     O_3   0.771315 0.889626 0.706444 -0.629920
O7    O     O_3   0.399633 0.499725 0.228032 -0.750841
O8    O     O_3   0.052686 0.860059 0.707482 -0.757658
O9    O     O_3   0.899466 0.523620 0.205725 -0.712655
O10   O     O_3   0.493812 0.637673 0.806674 -0.727585
O11   O     O_3   0.732227 0.519881 0.794869 -0.607344
O12   O     O_R   0.614640 0.683250 0.500010 -0.509678
O13   O     O_R   0.319840 0.499980 0.632240 -0.662666
O14   O     O_R   0.549160 0.500000 0.632250 -0.535586
O15   O     O_R   0.385360 0.316750 0.499990 -0.651160
O16   O     O_R   0.614690 0.316780 0.500000 -0.552645
O17   O     O_R   0.450840 0.500000 0.367750 -0.548339
O18   O     O_R   0.680160 0.500020 0.367760 -0.584328
O19   O     O_3   0.979075 0.565209 0.022576 -0.618179
Zn1   Zn    Zn3+2 0.346880 0.499980 0.499990 0.937669
Zn2   Zn    Zn3+2 0.653120 0.500020 0.500010 1.058233

loop_
_geom_bond_atom_site_label_1
_geom_bond_atom_site_label_2
_ccdc_geom_bond_type
C27   C29   A    
C47   H37   S    
C52   H45   S    
C17   O2    S    
C39   H14   S    
C43   H26   S    
C12   C23   A    
C27   N1    A    
C34   C51   A    
C30   C35   A    
C5    O19   S    
C4    O14   A    
C36   C37   S    
C20   O5    S    
C3    C7    A    
C28   O17   A    
C1    O12   A    
C5    C6    A    
C27   O4    S    
H31   O8    S    
C18   C19   A    
C36   O19   S    
C21   C22   A    
O14   Zn2   S    
C8    C9    A    
C48   H39   S    
C8    C14   A    
C1    C15   S    
C9    C10   A    
C37   H6    S    
C30   C33   A    
C26   N1    A    
N1    Zn2   S    
C38   H9    S    
C6    C31   A    
C46   O11   S    
C39   H13   S    
H11   O2    S    
C16   O16   A    
C46   H36   S    
C44   H27   S    
C42   H22   S    
C50   H1    S    
C7    C31   A    
C48   H41   S    
C13   C19   A    
C51   C52   A    
C4    O13   A    
C44   H28   S    
C24   C25   A    
H33   O10   S    
O16   Zn2   S    
O17   Zn1   S    
C39   C40   S    
C23   C50   A    
H20   O4    S    
C25   C26   A    
C49   H3    S    
C3    C45   A    
O18   Zn2   S    
C43   C44   S    
C37   C38   S    
C36   H4    S    
O13   Zn1   S    
C25   N2    A    
H21   O5    S    
C47   C48   S    
C45   C49   A    
C17   C18   A    
C34   C45   A    
H30   O7    S    
C12   C35   A    
C42   O6    S    
C37   H7    S    
C35   O10   S    
C2    C52   A    
C8    H12   S    
C38   H8    S    
C11   H42   S    
C40   C41   S    
C44   H29   S    
C48   H40   S    
C47   H38   S    
C7    O7    S    
C24   H43   S    
C2    C5    A    
C42   C43   S    
C12   C34   A    
C16   O15   A    
C1    O1    A    
C36   H5    S    
C41   H17   S    
C46   H35   S    
C33   H2    S    
C15   C17   A    
C46   C47   S    
C10   H34   S    
C51   O11   S    
C29   N2    A    
O1    Zn1   S    
C28   C31   S    
C21   O6    S    
C29   H44   S    
C40   H15   S    
O15   Zn1   S    
C39   O3    S    
C43   H25   S    
C42   H24   S    
H32   O9    S    
C41   H19   S    
C23   C32   A    
C2    C3    A    
O12   Zn2   S    
C28   O18   A    
C32   C33   A    
C11   C13   A    
C20   C26   A    
C16   C19   S    
C22   O8    S    
C6    O9    S    
C32   H46   S    
C22   C24   A    
C18   O3    S    
N2    Zn1   S    
C10   C11   A    
C20   C21   A    
C49   C50   A    
C40   H16   S    
C14   C15   A    
C9    H23   S    
C13   C14   A    
C4    C30   S    
C41   H18   S    
C38   H10   S    
