data_mof_unit_10495.cif
_audit_creation_date              2012-10-26T19:05:07-0400
_audit_creation_method            fapswitch 2.2
_symmetry_space_group_name_H-M    P1
_symmetry_Int_Tables_number       1
_space_group_crystal_system       triclinic
_cell_length_a                    15.877121
_cell_length_b                    10.863962
_cell_length_c                    9.603035
_cell_angle_alpha                 90.198485
_cell_angle_beta                  89.658165
_cell_angle_gamma                 92.931277
_cell_volume                      1654.20753501

loop_
_atom_site_label
_atom_site_type_symbol
_atom_type_description
_atom_site_fract_x
_atom_site_fract_y
_atom_site_fract_z
_atom_type_partial_charge
C1    C     C_R   0.506623 0.263213 0.500320 0.558438
C2    C     C_R   0.547769 0.064533 0.880926 -0.113893
C3    C     C_R   0.505769 0.949609 0.889496 -0.112718
C4    C     C_R   0.340300 0.499635 0.500393 0.570773
C5    C     C_R   0.480973 0.887395 0.768108 -0.090303
C6    C     C_R   0.498658 0.939429 0.634970 0.025585
C7    C     C_R   0.524058 0.065434 0.629718 0.034091
C8    C     C_R   0.514344 0.129498 0.502726 -0.006586
C9    C     C_R   0.500566 0.063365 0.378906 -0.161705
C10   C     C_R   0.493537 0.936081 0.380479 -0.163383
C11   C     C_R   0.492330 0.872265 0.507011 -0.009371
C12   C     C_3   0.947728 0.425382 0.624902 -0.216033
C13   C     C_R   0.612204 0.664630 0.143420 -0.087207
C14   C     C_R   0.666769 0.745558 0.071020 -0.178742
C15   C     C_R   0.666917 0.745415 0.927516 -0.167608
C16   C     C_R   0.495551 0.737539 0.501494 0.527813
C17   C     C_R   0.612366 0.664541 0.855472 -0.087359
C18   C     C_R   0.555201 0.580909 0.924853 0.126043
C19   C     C_R   0.555127 0.580928 0.074423 0.143645
C20   C     C_R   0.447754 0.423179 0.075468 0.012322
C21   C     C_R   0.447159 0.422774 0.928296 0.184783
C22   C     C_R   0.659697 0.500455 0.499620 0.528976
C23   C     C_3   0.917218 0.500558 0.499684 0.071063
C24   C     C_3   0.045348 0.425135 0.625551 -0.211047
C25   C     C_3   0.047488 0.441787 0.364253 -0.214515
C26   C     C_3   0.949880 0.442036 0.363596 -0.213771
C27   C     C_1   0.749425 0.500667 0.499025 -0.041712
C28   C     C_3   0.082757 0.500151 0.500794 0.065784
C29   C     C_3   0.955921 0.634034 0.511257 -0.215069
C30   C     C_3   0.053542 0.633795 0.511920 -0.214552
C31   C     C_1   0.825018 0.500712 0.499120 -0.079223
C32   C     C_1   0.174964 0.499914 0.501243 -0.066703
C33   C     C_1   0.250559 0.499748 0.501127 -0.015575
C34   C     C_R   0.556899 0.122576 0.752244 -0.078817
Cu1   Cu    Cu3+1 0.499990 0.499990 0.640660 0.951359
Cu2   Cu    Cu3+1 0.500010 0.500010 0.359340 0.925766
H1    H     H_    0.920865 0.328864 0.618951 0.113249
H2    H     H_    0.065309 0.328507 0.619888 0.123897
H3    H     H_    0.617763 0.671782 0.253218 0.184118
H4    H     H_    0.709405 0.808756 0.127001 0.114237
H5    H     H_    0.709477 0.808761 0.871239 0.118045
H6    H     H_    0.617494 0.672556 0.745652 0.185589
H7    H     H_    0.073347 0.494204 0.272835 0.118382
H8    H     H_    0.067474 0.345453 0.353848 0.118842
H9    H     H_    0.923052 0.345824 0.352883 0.114029
H10   H     H_    0.928920 0.494586 0.271884 0.115377
H11   H     H_    0.077949 0.677819 0.609465 0.117845
H12   H     H_    0.069623 0.465393 0.725139 0.123089
H13   H     H_    0.079512 0.689708 0.423196 0.116565
H14   H     H_    0.933501 0.678174 0.608483 0.112251
H15   H     H_    0.935070 0.690045 0.422209 0.111754
H16   H     H_    0.495139 0.109925 0.280011 0.139392
H17   H     H_    0.925176 0.465762 0.724186 0.115305
H18   H     H_    0.590982 0.211222 0.750066 0.142229
H19   H     H_    0.570877 0.110504 0.974418 0.111369
H20   H     H_    0.493952 0.907273 0.990108 0.115662
H21   H     H_    0.445349 0.801107 0.781931 0.153915
H22   H     H_    0.487493 0.887705 0.281895 0.137967
H23   H     H_    0.405098 0.360534 0.132283 0.140472
I1    I     I_    0.357719 0.294565 0.838768 -0.378699
N1    N     N_R   0.500800 0.501210 0.147910 -0.261809
N2    N     N_R   0.500820 0.501290 0.852040 -0.243508
O1    O     O_R   0.499990 0.319640 0.618810 -0.476123
O2    O     O_R   0.500000 0.319660 0.381240 -0.506942
O3    O     O_R   0.379430 0.499990 0.618840 -0.459571
O4    O     O_R   0.379440 0.500020 0.381260 -0.496203
O5    O     O_R   0.500000 0.680340 0.618760 -0.539772
O6    O     O_R   0.500010 0.680360 0.381190 -0.523890
O7    O     O_R   0.620560 0.499980 0.618740 -0.523375
O8    O     O_R   0.620570 0.500010 0.381160 -0.514235

loop_
_geom_bond_atom_site_label_1
_geom_bond_atom_site_label_2
_ccdc_geom_bond_type
C24   H2    S    
Cu2   O6    S    
C6    C7    A    
C16   O6    A    
C5    H21   S    
C1    C8    S    
C24   C28   S    
C3    H20   S    
C12   C24   S    
C22   O7    A    
C22   C27   S    
Cu1   Cu2   S    
C14   C15   A    
Cu1   O5    S    
C29   H14   S    
C32   C33   T    
C2    C34   A    
C28   C30   S    
C2    C3    A    
C7    C8    A    
C16   O5    A    
C12   H1    S    
C13   C14   A    
C20   H23   S    
C4    O4    A    
C12   C23   S    
C25   H7    S    
C21   N2    A    
C29   C30   S    
C9    H16   S    
C19   N1    A    
C23   C29   S    
C25   H8    S    
C10   H22   S    
C30   H13   S    
Cu2   O8    S    
C34   H18   S    
Cu1   N2    S    
C2    H19   S    
C6    C11   A    
C29   H15   S    
C5    C6    A    
C7    C34   A    
Cu2   O4    S    
C13   H3    S    
C11   C16   S    
C10   C11   A    
Cu1   O3    S    
C15   H5    S    
C27   C31   T    
Cu2   N1    S    
C24   H12   S    
C1    O2    A    
C1    O1    A    
C30   H11   S    
C28   C32   S    
C20   C21   A    
Cu1   O7    S    
C21   I1    S    
C17   C18   A    
C4    O3    A    
C9    C10   A    
C23   C26   S    
C20   N1    A    
C15   C17   A    
C4    C33   S    
C26   H10   S    
C17   H6    S    
C18   C19   A    
C13   C19   A    
Cu1   O1    S    
C26   H9    S    
C3    C5    A    
C25   C26   S    
Cu2   O2    S    
C14   H4    S    
C22   O8    A    
C18   N2    A    
C12   H17   S    
C8    C9    A    
C25   C28   S    
C23   C31   S    
