data_mof_unit_15199.cif
_audit_creation_date              2012-12-10T17:20:21-0500
_audit_creation_method            fapswitch 2.2
_symmetry_space_group_name_H-M    P1
_symmetry_Int_Tables_number       1
_space_group_crystal_system       triclinic
_cell_length_a                    11.699165
_cell_length_b                    10.8539
_cell_length_c                    9.619075
_cell_angle_alpha                 90.634066
_cell_angle_beta                  90.172646
_cell_angle_gamma                 94.232626
_cell_volume                      1218.0302877

loop_
_atom_site_label
_atom_site_type_symbol
_atom_type_description
_atom_site_fract_x
_atom_site_fract_y
_atom_site_fract_z
_atom_type_partial_charge
C1    C     C_R   0.488193 0.262479 0.499017 0.839506
C2    C     C_R   0.346320 0.057406 0.845986 -0.146857
C3    C     C_R   0.400476 0.950821 0.873760 -0.194354
C4    C     C_R   0.454602 0.890094 0.766783 -0.158083
C5    C     C_R   0.460634 0.939257 0.630317 0.057416
C6    C     C_R   0.429297 0.061518 0.614265 0.057571
C7    C     C_R   0.468970 0.127726 0.496209 -0.091784
C8    C     C_R   0.503499 0.063696 0.378921 -0.204495
C9    C     C_R   0.508315 0.937199 0.382652 -0.156699
C10   C     C_R   0.492954 0.873396 0.508120 -0.090668
C11   C     C_R   0.696620 0.619743 0.135420 0.286408
C12   C     C_R   0.284259 0.501115 0.499781 0.855382
C13   C     C_R   0.793843 0.643268 0.052975 -0.182687
C14   C     C_R   0.780535 0.660538 0.912676 -0.227443
C15   C     C_R   0.673968 0.635030 0.853241 -0.144687
C16   C     C_R   0.587017 0.565874 0.924855 0.157476
C17   C     C_R   0.591445 0.563371 0.074334 0.138858
C18   C     C_R   0.414952 0.439853 0.072946 -0.062524
C19   C     C_R   0.415608 0.439079 0.925500 -0.040394
C20   C     C_R   0.498743 0.738314 0.502243 0.828097
C21   C     C_R   0.715747 0.498988 0.500260 0.860828
C22   C     C_1   0.162513 0.501545 0.499464 -0.124997
C23   C     C_1   0.059977 0.501274 0.499772 0.031432
C24   C     C_1   0.940096 0.500466 0.500352 0.023755
C25   C     C_1   0.837535 0.499646 0.500622 -0.140431
C26   C     C_R   0.357636 0.111414 0.715549 0.248415
Cu1   Cu    Cu3+1 0.499990 0.499990 0.640660 0.967125
Cu2   Cu    Cu3+1 0.500010 0.500010 0.359340 0.981629
H1    H     H_    0.528174 0.111404 0.284087 0.173493
H2    H     H_    0.850741 0.701992 0.851924 0.175059
H3    H     H_    0.663374 0.668895 0.750642 0.199880
H4    H     H_    0.346081 0.389233 0.870525 0.179987
H5    H     H_    0.293177 0.096252 0.924711 0.161359
H6    H     H_    0.395074 0.911132 0.976552 0.155842
H7    H     H_    0.493797 0.808304 0.797397 0.176683
H8    H     H_    0.528536 0.890426 0.287021 0.197328
H9    H     H_    0.345362 0.389900 0.126886 0.145079
H10   H     H_    0.875590 0.675216 0.099046 0.188276
N1    N     N_R   0.501070 0.501210 0.147910 -0.190590
N2    N     N_R   0.501110 0.501290 0.852040 -0.193533
O1    O     O_R   0.499990 0.319640 0.618810 -0.556401
O2    O     O_R   0.500000 0.319660 0.381240 -0.588054
O3    O     O_R   0.337190 0.500000 0.618790 -0.552769
O4    O     O_R   0.337200 0.500030 0.381210 -0.586787
O5    O     O_R   0.500000 0.680340 0.618760 -0.628627
O6    O     O_R   0.500010 0.680360 0.381190 -0.543744
O7    O     O_R   0.662800 0.499970 0.618790 -0.591333
O8    O     O_R   0.662810 0.500000 0.381210 -0.549459
Br1   Br    Br    0.245803 0.223733 0.666237 -0.573685
Br2   Br    Br    0.716341 0.740314 0.282927 -0.565799

loop_
_geom_bond_atom_site_label_1
_geom_bond_atom_site_label_2
_ccdc_geom_bond_type
C8    C9    A    
C9    H8    S    
C23   C24   S    
C15   H3    S    
C6    C7    A    
Cu1   O3    S    
C9    C10   A    
Cu1   O1    S    
C20   O5    A    
Cu2   N1    S    
Cu1   N2    S    
C18   N1    A    
C21   O8    A    
Cu1   O5    S    
C2    C3    A    
C4    H7    S    
C5    C10   A    
C2    C26   A    
C11   Br2   S    
C13   C14   A    
C11   C13   A    
Cu2   O6    S    
C13   H10   S    
C6    C26   A    
C14   H2    S    
C19   H4    S    
C2    H5    S    
C1    O1    A    
C18   H9    S    
C16   N2    A    
C12   O3    A    
C22   C23   T    
C5    C6    A    
C16   C17   A    
C19   N2    A    
C8    H1    S    
C15   C16   A    
C12   C22   S    
C1    O2    A    
C7    C8    A    
C24   C25   T    
Cu2   O8    S    
C12   O4    A    
C18   C19   A    
C17   N1    A    
C26   Br1   S    
Cu1   O7    S    
Cu1   Cu2   S    
C21   C25   S    
C14   C15   A    
C11   C17   A    
Cu2   O2    S    
C3    H6    S    
C1    C7    S    
Cu2   O4    S    
C20   O6    A    
C3    C4    A    
C10   C20   S    
C4    C5    A    
C21   O7    A    
