data_mof_unit_12345.cif
_audit_creation_date              2012-12-10T17:57:54-0500
_audit_creation_method            fapswitch 2.2
_symmetry_space_group_name_H-M    P1
_symmetry_Int_Tables_number       1
_space_group_crystal_system       triclinic
_cell_length_a                    10.828317
_cell_length_b                    9.583515
_cell_length_c                    15.06355
_cell_angle_alpha                 89.701437
_cell_angle_beta                  91.648401
_cell_angle_gamma                 89.940116
_cell_volume                      1562.52564573

loop_
_atom_site_label
_atom_site_type_symbol
_atom_type_description
_atom_site_fract_x
_atom_site_fract_y
_atom_site_fract_z
_atom_type_partial_charge
C1    C     C_R   0.262256 0.500042 0.499894 0.805323
C2    C     C_R   0.737741 0.499958 0.500056 0.804305
C3    C     C_R   0.410842 0.732969 0.044439 -0.275322
C4    C     C_R   0.600510 0.272470 0.955663 -0.287098
C5    C     C_R   0.063922 0.373283 0.498071 -0.163954
C6    C     C_R   0.936064 0.626718 0.501739 -0.163481
C7    C     C_R   0.936168 0.373239 0.498022 -0.164715
C8    C     C_R   0.063817 0.626763 0.501771 -0.162155
C9    C     C_R   0.871684 0.499950 0.499952 -0.020728
C10   C     C_R   0.128305 0.500050 0.499894 -0.020244
C11   C     C_R   0.421108 0.074984 0.444557 0.016522
C12   C     C_R   0.578786 0.925008 0.555520 0.017139
C13   C     C_R   0.579247 0.073803 0.555179 0.022161
C14   C     C_R   0.420772 0.926181 0.444806 0.023449
C15   C     C_R   0.500379 0.500333 0.328788 0.824821
C16   C     C_R   0.499891 0.499725 0.671197 0.826438
C17   C     C_R   0.546674 0.384728 0.815692 -0.208208
C18   C     C_R   0.459713 0.617937 0.184373 -0.201045
C19   C     C_R   0.500086 0.499685 0.767973 -0.083819
C20   C     C_R   0.502587 0.501110 0.232034 -0.084735
C21   C     C_R   0.454790 0.615822 0.812673 -0.215799
C22   C     C_R   0.548260 0.385144 0.187314 -0.221925
C23   C     C_R   0.456147 0.618847 0.905545 0.084868
C24   C     C_R   0.553031 0.385285 0.094559 0.088721
C25   C     C_R   0.504475 0.502570 0.953474 0.009030
C26   C     C_R   0.505772 0.502151 0.046643 0.008689
C27   C     C_R   0.550544 0.385977 0.908160 0.088837
C28   C     C_R   0.458866 0.618341 0.091940 0.081126
C29   C     C_R   0.409100 0.734454 0.951531 0.246454
C30   C     C_R   0.602724 0.271049 0.048579 0.244630
Cu1   Cu    Cu3+1 0.500000 0.640660 0.500000 0.969805
Cu2   Cu    Cu3+1 0.500000 0.359340 0.500000 0.968782
H1    H     H_    0.581175 0.294785 0.780950 0.168851
H2    H     H_    0.424853 0.707724 0.219119 0.169528
H3    H     H_    0.417048 0.702836 0.774528 0.188776
H4    H     H_    0.581232 0.295637 0.225313 0.188753
H5    H     H_    0.374610 0.821947 0.079515 0.154697
H6    H     H_    0.639230 0.185046 0.920489 0.152906
H7    H     H_    0.111929 0.274149 0.496656 0.158775
H8    H     H_    0.888055 0.725852 0.503168 0.158870
H9    H     H_    0.888236 0.274105 0.496395 0.159582
H10   H     H_    0.111749 0.725898 0.503380 0.159683
N1    N     N_R   0.500000 0.852070 0.500000 -0.205967
N2    N     N_R   0.500000 0.147930 0.500000 -0.206327
O1    O     O_R   0.319640 0.618740 0.499990 -0.585604
O2    O     O_R   0.680360 0.381260 0.500010 -0.585902
O3    O     O_R   0.680360 0.618740 0.500010 -0.585864
O4    O     O_R   0.319640 0.381260 0.499990 -0.586468
O5    O     O_R   0.499970 0.618800 0.370260 -0.581944
O6    O     O_R   0.500030 0.381200 0.629740 -0.582461
O7    O     O_R   0.500030 0.618800 0.629740 -0.582458
O8    O     O_R   0.499970 0.381200 0.370260 -0.582389
N3    N     N_2   0.357682 0.851354 0.904903 -0.434407
H11   H     H_    0.282555 0.894417 0.935322 0.260957
C31   C     C_3   0.447514 0.956138 0.882217 -0.705617
H12   H     H_    0.488312 0.002248 0.943733 0.223185
H13   H     H_    0.401711 0.040128 0.842258 0.236876
H14   H     H_    0.522054 0.910149 0.842436 0.240069
N4    N     N_2   0.654723 0.154305 0.095126 -0.443500
H15   H     H_    0.641536 0.060665 0.062765 0.253178
C32   C     C_3   0.782214 0.173300 0.123823 -0.675655
H16   H     H_    0.841857 0.183420 0.065296 0.232165
H17   H     H_    0.813370 0.081512 0.163826 0.232591
H18   H     H_    0.792529 0.267832 0.165744 0.235012
C33   C     C_1   0.337796 0.149553 0.384558 0.292331
N5    N     N_1   0.270734 0.208179 0.336094 -0.295093
C34   C     C_1   0.661833 0.850443 0.615715 0.285639
N6    N     N_1   0.728662 0.791831 0.664352 -0.295235
C35   C     C_1   0.665923 0.146904 0.612754 0.273936
N7    N     N_1   0.736448 0.204003 0.658892 -0.312403
C36   C     C_1   0.334413 0.853007 0.387015 0.276912
N8    N     N_1   0.264228 0.795789 0.340666 -0.313849

loop_
_geom_bond_atom_site_label_1
_geom_bond_atom_site_label_2
_ccdc_geom_bond_type
C32   H18   S    
N4    H15   S    
C31   H12   S    
C1    O4    A    
C7    C9    A    
C21   H3    S    
C2    O3    A    
C25   C27   A    
C18   H2    S    
C14   C36   S    
C26   C28   A    
Cu1   Cu2   S    
C16   O7    A    
C14   N1    A    
Cu2   O6    S    
C30   N4    S    
C13   C35   S    
C6    C9    A    
N3    C31   S    
Cu2   N2    S    
C4    C30   A    
C5    C10   A    
C17   H1    S    
C31   H13   S    
Cu1   O3    S    
N3    H11   S    
C2    O2    A    
C15   O5    A    
C13   N2    A    
Cu2   O4    S    
C24   C26   A    
C1    O1    A    
C6    H8    S    
C35   N7    T    
Cu1   N1    S    
Cu1   O5    S    
C16   C19   S    
C23   C29   A    
C3    C28   A    
C17   C19   A    
C8    H10   S    
C33   N5    T    
C12   N1    A    
C18   C20   A    
C5    H7    S    
C21   C23   A    
C32   H16   S    
C11   C14   A    
C22   C24   A    
N4    C32   S    
C24   C30   A    
C20   C22   A    
C34   N6    T    
C17   C27   A    
C11   N2    A    
C36   N8    T    
C4    C27   A    
C18   C28   A    
C12   C13   A    
C3    H5    S    
C8    C10   A    
C23   C25   A    
Cu1   O1    S    
C31   H14   S    
Cu1   O7    S    
C4    H6    S    
C5    C7    A    
Cu2   O8    S    
C3    C29   A    
C6    C8    A    
C12   C34   S    
C19   C21   A    
C25   C26   A    
C15   O8    A    
C2    C9    S    
Cu2   O2    S    
C32   H17   S    
C22   H4    S    
C1    C10   S    
C11   C33   S    
C7    H9    S    
C16   O6    A    
C15   C20   S    
C29   N3    S    
