data_mof_unit_34691.cif
_audit_creation_date              2012-12-10T20:42:37-0500
_audit_creation_method            fapswitch 2.2
_symmetry_space_group_name_H-M    P1
_symmetry_Int_Tables_number       1
_space_group_crystal_system       triclinic
_cell_length_a                    8.893843
_cell_length_b                    10.683211
_cell_length_c                    9.893403
_cell_angle_alpha                 89.698358
_cell_angle_beta                  89.7826
_cell_angle_gamma                 90.074302
_cell_volume                      939.999112277

loop_
_atom_site_label
_atom_site_type_symbol
_atom_type_description
_atom_site_fract_x
_atom_site_fract_y
_atom_site_fract_z
_atom_type_partial_charge
C1    C     C_R   0.505014 0.259941 0.500201 0.872265
C2    C     C_R   0.553627 0.935932 0.377222 -0.226918
C3    C     C_R   0.530873 0.871229 0.499295 -0.104470
C4    C     C_R   0.537910 0.935100 0.621342 0.133643
C5    C     C_3   0.438655 0.926416 0.743218 -0.466876
C6    C     C_3   0.438613 0.068165 0.743866 -0.505771
C7    C     C_R   0.371664 0.474720 0.072376 0.180935
C8    C     C_R   0.623904 0.535107 0.071101 -0.134233
C9    C     C_R   0.624084 0.534763 0.927479 -0.134289
C10   C     C_R   0.369922 0.476040 0.929883 0.147415
C11   C     C_3   0.277051 0.357755 0.929746 -0.090610
C12   C     C_R   0.218828 0.500124 0.500098 0.935759
C13   C     C_3   0.282453 0.357957 0.083649 -0.491475
C14   C     C_R   0.505272 0.739952 0.499634 0.873049
C15   C     C_R   0.781192 0.499995 0.499854 0.935629
C16   C     C_1   0.065450 0.500162 0.500054 -0.231888
C17   C     C_1   0.934560 0.500076 0.499715 -0.209197
C18   C     C_R   0.537901 0.062876 0.621848 0.139560
C19   C     C_R   0.530471 0.128519 0.500121 -0.101764
C20   C     C_R   0.553410 0.065408 0.377627 -0.228513
H1    H     H_    0.560011 0.114816 0.281870 0.170643
H2    H     H_    0.338234 0.278270 0.883958 0.172659
H3    H     H_    0.173154 0.375002 0.135231 0.209223
H4    H     H_    0.348579 0.278929 0.126363 0.192580
H5    H     H_    0.326592 0.885246 0.720824 0.204101
H6    H     H_    0.497673 0.884632 0.831416 0.205894
H7    H     H_    0.326423 0.109179 0.721778 0.201911
H8    H     H_    0.498083 0.107818 0.832526 0.200411
H9    H     H_    0.725247 0.561001 0.873349 0.153398
N1    N     N_R   0.499010 0.499140 0.142800 -0.103435
N2    N     N_R   0.499010 0.499180 0.857150 -0.114187
O1    O     O_R   0.500020 0.316790 0.614690 -0.619690
O2    O     O_R   0.500000 0.316760 0.385350 -0.624454
O3    O     O_R   0.285350 0.500020 0.614650 -0.632713
O4    O     O_R   0.285340 0.499980 0.385310 -0.608561
O5    O     O_R   0.500000 0.683240 0.614650 -0.615135
O6    O     O_R   0.499980 0.683210 0.385310 -0.621596
O7    O     O_R   0.714660 0.500020 0.614690 -0.624682
O8    O     O_R   0.714650 0.499980 0.385350 -0.622977
Zn1   Zn    Zn3+2 0.500010 0.500020 0.653130 0.931915
Zn2   Zn    Zn3+2 0.499990 0.499980 0.346870 0.939399
H10   H     H_    0.560321 0.887733 0.281322 0.173476
H11   H     H_    0.724891 0.561765 0.124268 0.152093
C21   C     C_3   0.116464 0.375008 0.874742 -0.343494
C22   C     C_3   0.019794 0.258749 0.899371 -0.884676
H12   H     H_    0.072664 0.175619 0.851912 0.255677
H13   H     H_    0.004938 0.240942 0.009244 0.265037
H14   H     H_    0.907064 0.272998 0.853889 0.254757
H15   H     H_    0.061213 0.457606 0.921534 0.202819
H16   H     H_    0.120922 0.390575 0.764564 0.237357

loop_
_geom_bond_atom_site_label_1
_geom_bond_atom_site_label_2
_ccdc_geom_bond_type
C21   H15   S    
C8    C9    A    
C7    C10   A    
N1    Zn2   S    
C11   H2    S    
C6    H7    S    
C8    H11   S    
C9    H9    S    
O2    Zn2   S    
C8    N1    A    
C19   C20   A    
O1    Zn1   S    
C2    C3    A    
C1    O2    A    
C11   C21   S    
C15   O7    A    
C7    N1    A    
C22   H12   S    
C21   C22   S    
C14   O6    A    
O7    Zn1   S    
C11   C13   S    
C15   O8    A    
C3    C14   S    
C2    H10   S    
C5    H5    S    
C10   N2    A    
C22   H13   S    
O6    Zn2   S    
C5    C6    S    
O4    Zn2   S    
C6    C18   S    
O3    Zn1   S    
C1    C19   S    
C10   C11   S    
C9    N2    A    
C12   O3    A    
C5    H6    S    
O5    Zn1   S    
C20   H1    S    
C13   H3    S    
O8    Zn2   S    
C18   C19   A    
C22   H14   S    
C21   H16   S    
C15   C17   S    
C16   C17   T    
C14   O5    A    
C7    C13   S    
N2    Zn1   S    
C2    C20   A    
C4    C18   A    
C1    O1    A    
C6    H8    S    
C3    C4    A    
C12   C16   S    
C13   H4    S    
C4    C5    S    
C12   O4    A    
