data_mof_unit_57068.cif
_audit_creation_date              2012-12-10T19:05:49-0500
_audit_creation_method            fapswitch 2.2
_symmetry_space_group_name_H-M    P1
_symmetry_Int_Tables_number       1
_space_group_crystal_system       triclinic
_cell_length_a                    19.334748
_cell_length_b                    10.872115
_cell_length_c                    9.619203
_cell_angle_alpha                 90.06346
_cell_angle_beta                  92.189224
_cell_angle_gamma                 91.770687
_cell_volume                      2019.60287191

loop_
_atom_site_label
_atom_site_type_symbol
_atom_type_description
_atom_site_fract_x
_atom_site_fract_y
_atom_site_fract_z
_atom_type_partial_charge
C1    C     C_R   0.499780 0.262278 0.500400 0.843139
C2    C     C_R   0.290720 0.527007 0.495582 -0.279609
C3    C     C_R   0.930863 0.504318 0.524595 0.563883
C4    C     C_R   0.070799 0.515167 0.528635 0.514670
C5    C     C_R   0.817913 0.490341 0.642644 0.230756
C6    C     C_R   0.746482 0.461320 0.635436 0.403243
C7    C     C_R   0.708932 0.480072 0.508776 -0.291262
C8    C     C_R   0.745377 0.482787 0.385780 -0.315573
C9    C     C_R   0.817703 0.482297 0.389304 0.377265
C10   C     C_R   0.854679 0.495029 0.518521 -0.253441
C11   C     C_R   0.506693 0.061879 0.626062 0.004380
C12   C     C_R   0.367421 0.509581 0.497592 0.890782
C13   C     C_R   0.498157 0.128093 0.501229 -0.135490
C14   C     C_R   0.480363 0.064243 0.377249 -0.357527
C15   C     C_R   0.469408 0.935406 0.376989 0.536910
C16   C     C_R   0.486812 0.870124 0.499069 -0.101495
C17   C     C_R   0.497403 0.934368 0.623753 -0.134668
C18   C     C_3   0.447151 0.936509 0.738512 0.315153
C19   C     C_3   0.463087 0.073388 0.752486 0.235864
C20   C     C_R   0.554893 0.550580 0.075973 0.015786
C21   C     C_R   0.452707 0.429383 0.072393 0.569510
C22   C     C_R   0.452029 0.432763 0.921675 -0.213777
C23   C     C_R   0.494462 0.736810 0.499480 0.818277
C24   C     C_R   0.554182 0.550378 0.930488 0.154249
C25   C     C_3   0.587317 0.674446 0.919684 0.231457
C26   C     C_3   0.591166 0.676399 0.080797 0.777876
C27   C     C_R   0.632456 0.492317 0.502512 0.858752
C28   C     C_R   0.260293 0.564430 0.618988 0.444893
C29   C     C_R   0.187884 0.560647 0.627647 -0.301460
C30   C     C_R   0.145975 0.513081 0.518226 -0.178909
C31   C     C_R   0.175608 0.479266 0.393083 0.331084
C32   C     C_R   0.246730 0.505786 0.376229 0.314932
Cu1   Cu    Cu3+1 0.500000 0.499980 0.640670 0.999539
Cu2   Cu    Cu3+1 0.500000 0.500020 0.359330 1.055785
H1    H     H_    0.464303 0.878302 0.827457 0.098423
H2    H     H_    0.417363 0.132006 0.735576 0.116111
H3    H     H_    0.412754 0.382615 0.860152 0.155206
H4    H     H_    0.550833 0.740177 0.870322 0.041174
H5    H     H_    0.163994 0.596497 0.718629 0.194458
H6    H     H_    0.717350 0.482167 0.286217 0.250929
H7    H     H_    0.472203 0.115311 0.281985 0.183623
N1    N     N_R   0.037038 0.430999 0.607100 -0.168644
N2    N     N_R   0.968139 0.425567 0.604812 -0.131211
N3    N     N_R   0.964850 0.589816 0.448117 -0.152756
N4    N     N_R   0.033685 0.594647 0.449479 -0.153501
N5    N     N_R   0.500440 0.500930 0.147930 -0.234984
N6    N     N_R   0.500440 0.500890 0.852020 -0.225927
O1    O     O_R   0.500000 0.319640 0.618810 -0.595626
O2    O     O_R   0.500010 0.319680 0.381230 -0.561385
O3    O     O_R   0.400140 0.499970 0.618830 -0.567400
O4    O     O_R   0.400150 0.500010 0.381250 -0.492989
O5    O     O_R   0.499990 0.680320 0.618770 -0.603727
O6    O     O_R   0.500000 0.680360 0.381190 -0.503529
O7    O     O_R   0.599850 0.499990 0.618750 -0.508960
O8    O     O_R   0.599860 0.500030 0.381170 -0.593333
O9    O     O_3   0.301741 0.624164 0.719822 -0.571449
C33   C     C_3   0.292702 0.568655 0.849653 -0.155454
H8    H     H_    0.337475 0.597042 0.918654 0.177403
H9    H     H_    0.291425 0.466204 0.843285 0.156606
H10   H     H_    0.245278 0.601896 0.896714 0.218410
O10   O     O_3   0.442551 0.870177 0.261377 -0.513416
C34   C     C_3   0.391498 0.935313 0.185850 -0.248599
H11   H     H_    0.355818 0.982758 0.255003 0.172799
H12   H     H_    0.359534 0.869618 0.121055 0.204642
H13   H     H_    0.416178 0.000100 0.112775 0.140551
O11   O     O_3   0.378609 0.910625 0.687769 -0.562878
C35   C     C_3   0.334209 0.905228 0.800628 -0.201437
H14   H     H_    0.335149 0.993898 0.858650 0.116514
H15   H     H_    0.347799 0.828724 0.872123 0.165145
H16   H     H_    0.280452 0.887080 0.759679 0.223086
O12   O     O_3   0.496850 0.093857 0.884673 -0.675264
C36   C     C_3   0.559263 0.162968 0.880752 -0.259072
H17   H     H_    0.551235 0.254825 0.835314 0.244195
H18   H     H_    0.599011 0.110990 0.827116 0.215535
H19   H     H_    0.579106 0.178117 0.989324 0.163629
O13   O     O_3   0.404838 0.361418 0.147367 -0.509206
C37   C     C_3   0.379009 0.254946 0.077123 -0.303700
H20   H     H_    0.351859 0.195857 0.152815 0.195195
H21   H     H_    0.421401 0.201825 0.035391 0.176918
H22   H     H_    0.340175 0.277781 0.993917 0.180325
O14   O     O_3   0.653322 0.667228 0.861886 -0.482381
C38   C     C_3   0.663944 0.763844 0.766749 -0.235885
H23   H     H_    0.660762 0.855198 0.817575 0.146520
H24   H     H_    0.626575 0.756021 0.676460 0.142519
H25   H     H_    0.716588 0.757262 0.725974 0.176845
O15   O     O_3   0.660693 0.668463 0.135718 -0.543822
C39   C     C_3   0.675259 0.740211 0.256634 -0.171656
H26   H     H_    0.634901 0.728536 0.334998 0.160496
H27   H     H_    0.683820 0.838412 0.229922 0.160909
H28   H     H_    0.724956 0.711653 0.305287 0.177484
O16   O     O_3   0.550220 0.767142 0.140637 -0.585040
C40   C     C_3   0.568457 0.887229 0.095097 -0.333277
H29   H     H_    0.524921 0.921551 0.031123 0.229531
H30   H     H_    0.616338 0.894599 0.034834 0.146405
H31   H     H_    0.576208 0.948660 0.186732 0.194912
S1    S     S_3+6 0.123933 0.403090 0.259413 0.098923
O17   O     O_2   0.070157 0.320302 0.323133 -0.236866
O18   O     O_2   0.088181 0.497049 0.170132 -0.204992
O19   O     O_3   0.172945 0.316168 0.160204 -0.485820
H32   H     H_    0.141846 0.288823 0.081191 0.384284
S2    S     S_3+6 0.270402 0.565738 0.213824 0.035150
O20   O     O_2   0.283745 0.460523 0.119374 -0.294080
O21   O     O_2   0.211857 0.637897 0.151772 -0.253638
O22   O     O_3   0.340381 0.660945 0.229584 -0.505186
H33   H     H_    0.369804 0.640337 0.151443 0.358794
S3    S     S_3+6 0.858621 0.530326 0.805864 0.092877
O23   O     O_2   0.891693 0.419370 0.869377 -0.139621
O24   O     O_2   0.913739 0.629094 0.787807 -0.313821
O25   O     O_3   0.799508 0.582580 0.913370 -0.385240
H34   H     H_    0.802632 0.673384 0.905830 0.372441
S4    S     S_3+6 0.714250 0.351384 0.754745 0.069609
O26   O     O_2   0.659372 0.271870 0.681550 -0.365983
O27   O     O_2   0.771765 0.270773 0.805114 -0.215746
O28   O     O_3   0.681213 0.420366 0.892211 -0.438754
H35   H     H_    0.674260 0.354043 0.961220 0.353582
S5    S     S_3+6 0.859313 0.462288 0.230564 0.109451
O29   O     O_2   0.920044 0.380421 0.252094 -0.217842
O30   O     O_2   0.809405 0.404014 0.124565 -0.175341
O31   O     O_3   0.886865 0.600719 0.173166 -0.469332
H36   H     H_    0.925784 0.583516 0.112733 0.422188

loop_
_geom_bond_atom_site_label_1
_geom_bond_atom_site_label_2
_ccdc_geom_bond_type
C39   H26   S    
S2    O20   D    
C6    S4    S    
C19   O12   S    
S4    O26   D    
C2    C12   S    
O28   H35   S    
C28   O9    S    
C27   O7    A    
C7    C8    A    
C37   H20   S    
O9    C33   S    
Cu1   O5    S    
C21   O13   S    
C11   C19   S    
Cu2   O4    S    
C29   C30   A    
C20   C26   S    
C28   C29   A    
C19   H2    S    
C5    C6    A    
C27   O8    A    
C33   H9    S    
S3    O23   D    
C15   C16   A    
S1    O19   S    
C7    C27   S    
S5    O29   D    
C2    C32   A    
C18   C19   S    
C34   H12   S    
C20   C24   A    
C8    C9    A    
S1    O18   D    
C23   O6    A    
Cu2   N5    S    
C26   O16   S    
C9    C10   A    
C5    S3    S    
S3    O24   D    
C22   N6    A    
Cu2   O8    S    
S2    O21   D    
C21   C22   A    
C25   O14   S    
C9    S5    S    
C36   H19   S    
O22   H33   S    
Cu1   Cu2   S    
C4    N4    A    
C37   H21   S    
C3    N3    A    
C35   H14   S    
C24   C25   S    
C36   H18   S    
O16   C40   S    
O15   C39   S    
C16   C17   A    
C33   H10   S    
Cu1   O3    S    
C22   H3    S    
C40   H31   S    
O14   C38   S    
C35   H15   S    
C23   O5    A    
C34   H11   S    
C25   H4    S    
C31   C32   A    
C26   O15   S    
C3    N2    A    
S1    O17   D    
C29   H5    S    
C40   H30   S    
C17   C18   S    
C15   O10   S    
S4    O27   D    
O13   C37   S    
C14   H7    S    
S2    O22   S    
C38   H24   S    
C39   H27   S    
Cu1   N6    S    
C1    C13   S    
N1    N2    A    
C12   O4    A    
N3    N4    A    
C21   N5    A    
C18   H1    S    
C37   H22   S    
Cu1   O7    S    
C18   O11   S    
C11   C17   A    
Cu2   O2    S    
C34   H13   S    
C32   S2    S    
C24   N6    A    
C36   H17   S    
C12   O3    A    
O31   H36   S    
S5    O31   S    
C1    O1    A    
C6    C7    A    
C16   C23   S    
C38   H25   S    
O19   H32   S    
C35   H16   S    
C25   C26   S    
C5    C10   A    
C3    C10   S    
O25   H34   S    
C11   C13   A    
C33   H8    S    
C30   C31   A    
C4    N1    A    
C40   H29   S    
S5    O30   D    
O11   C35   S    
S4    O28   S    
O10   C34   S    
C20   N5    A    
O12   C36   S    
Cu2   O6    S    
C38   H23   S    
C39   H28   S    
Cu1   O1    S    
C14   C15   A    
C2    C28   A    
C8    H6    S    
C13   C14   A    
C1    O2    A    
C4    C30   S    
C31   S1    S    
S3    O25   S    
