data_mof_unit_6309.cif
_audit_creation_date              2012-12-10T16:53:52-0500
_audit_creation_method            fapswitch 2.2
_symmetry_space_group_name_H-M    P1
_symmetry_Int_Tables_number       1
_space_group_crystal_system       triclinic
_cell_length_a                    7.888854
_cell_length_b                    8.556503
_cell_length_c                    10.659371
_cell_angle_alpha                 93.100548
_cell_angle_beta                  85.242447
_cell_angle_gamma                 93.102257
_cell_volume                      715.09842072

loop_
_atom_site_label
_atom_site_type_symbol
_atom_type_description
_atom_site_fract_x
_atom_site_fract_y
_atom_site_fract_z
_atom_type_partial_charge
C1    C     C_R   0.544840 0.794075 0.497063 0.954044
C2    C     C_3   0.385073 0.628712 0.941002 -0.164627
C3    C     C_3   0.382933 0.626878 0.085108 -0.396330
C4    C     C_3   0.437877 0.339343 0.920690 -0.429021
C5    C     C_3   0.692759 0.536759 0.919835 -0.148595
C6    C     C_3   0.507068 0.502734 0.877744 -0.030661
C7    C     C_2   0.570281 0.212330 0.100353 0.555032
C8    C     C_2   0.014361 0.339002 0.380757 0.565654
C9    C     C_2   0.984847 0.659521 0.621147 0.609328
C10   C     C_2   0.423099 0.791791 0.893779 0.401347
C11   C     C_2   0.266385 0.276043 0.118455 0.337267
C12   C     C_3   0.500418 0.499253 0.121112 -0.049730
C13   C     C_2   0.821375 0.418380 0.868374 0.467534
C14   C     C_3   0.444141 0.330300 0.065920 -0.081162
C15   C     C_3   0.684161 0.547354 0.064085 -0.344678
C16   C     C_2   0.568541 0.957430 0.495251 -0.355404
C17   C     C_2   0.431435 0.042597 0.504818 -0.348004
C18   C     C_R   0.502323 0.502661 0.741520 0.806675
C19   C     C_R   0.455155 0.205940 0.502996 0.949211
C20   C     C_R   0.499696 0.501258 0.258258 0.809698
H1    H     H_    0.780981 0.473214 0.098134 0.214745
H2    H     H_    0.852615 0.677507 0.640622 0.089803
H3    H     H_    0.336030 0.840702 0.834592 0.132609
H4    H     H_    0.426071 0.743086 0.126769 0.220755
H5    H     H_    0.249811 0.605728 0.125710 0.170147
H6    H     H_    0.304937 0.319910 0.892662 0.206693
H7    H     H_    0.160212 0.350180 0.113450 0.126121
H8    H     H_    0.782645 0.310375 0.818471 0.131322
H9    H     H_    0.301360 0.992945 0.514079 0.207132
H10   H     H_    0.743235 0.651427 0.884658 0.199915
H11   H     H_    0.719866 0.669686 0.096847 0.202474
H12   H     H_    0.253155 0.595170 0.916929 0.203249
H13   H     H_    0.506231 0.243887 0.866970 0.198370
H14   H     H_    0.569925 0.180915 0.197759 0.089672
H15   H     H_    0.698613 0.007087 0.485989 0.206989
H16   H     H_    0.146359 0.321178 0.362524 0.118057
N1    N     N_2   0.950330 0.457950 0.465890 -0.178470
N2    N     N_2   0.049670 0.542050 0.534110 -0.165700
O1    O     O_R   0.389250 0.738570 0.508370 -0.577825
O2    O     O_2   0.915186 0.253447 0.323703 -0.561200
O3    O     O_2   0.083781 0.744217 0.679040 -0.601261
O4    O     O_2   0.551314 0.868864 0.919417 -0.541743
O5    O     O_2   0.237676 0.146762 0.161465 -0.564929
O6    O     O_2   0.972295 0.443714 0.882964 -0.615868
O7    O     O_R   0.678390 0.711620 0.486510 -0.662131
O8    O     O_R   0.355430 0.513500 0.696140 -0.572092
O9    O     O_R   0.644580 0.486550 0.674270 -0.690628
O10   O     O_R   0.321610 0.288380 0.513490 -0.656787
O11   O     O_R   0.610750 0.261430 0.491630 -0.579479
O12   O     O_R   0.355420 0.513450 0.325730 -0.671015
O13   O     O_R   0.644570 0.486500 0.303860 -0.602246
O14   O     O_2   0.674169 0.154167 0.022892 -0.533483
Zn1   Zn    Zn3+2 0.306940 0.517990 0.514600 0.983486
Zn2   Zn    Zn3+2 0.693060 0.482010 0.485400 0.965738

loop_
_geom_bond_atom_site_label_1
_geom_bond_atom_site_label_2
_ccdc_geom_bond_type
O7    Zn2   S    
C4    H6    S    
C13   H8    S    
C11   O5    D    
N1    N2    D    
C10   H3    S    
C10   O4    D    
C17   H9    S    
C19   O11   A    
C5    C13   S    
C12   C15   S    
C11   H7    S    
O13   Zn2   S    
C18   O9    A    
C12   C20   S    
C2    C3    S    
C1    C16   S    
O1    Zn1   S    
C15   H11   S    
C1    O7    A    
C3    H4    S    
C2    C6    S    
N2    Zn1   S    
O9    Zn2   S    
C5    C6    S    
N1    Zn2   S    
C18   O8    A    
O8    Zn1   S    
C4    C6    S    
C9    N2    S    
C7    H14   S    
C12   C14   S    
C7    O14   D    
C20   O13   A    
C7    C14   S    
C16   H15   S    
C4    C14   S    
O10   Zn1   S    
C6    C18   S    
C11   C14   S    
C9    H2    S    
C5    C15   S    
O12   Zn1   S    
C8    N1    S    
C1    O1    A    
O11   Zn2   S    
C2    C10   S    
C15   H1    S    
C3    H5    S    
C2    H12   S    
C5    H10   S    
C8    H16   S    
C4    H13   S    
C20   O12   A    
C3    C12   S    
C8    O2    D    
C17   C19   S    
C19   O10   A    
C9    O3    D    
C13   O6    D    
C16   C17   D    
