data_mof_unit_51923.cif
_audit_creation_date              2012-12-11T18:34:47-0500
_audit_creation_method            fapswitch 2.2
_symmetry_space_group_name_H-M    P1
_symmetry_Int_Tables_number       1
_space_group_crystal_system       triclinic
_cell_length_a                    8.219171
_cell_length_b                    14.279564
_cell_length_c                    22.891405
_cell_angle_alpha                 93.436905
_cell_angle_beta                  89.408632
_cell_angle_gamma                 91.540653
_cell_volume                      2680.77291594

loop_
_atom_site_label
_atom_site_type_symbol
_atom_type_description
_atom_site_fract_x
_atom_site_fract_y
_atom_site_fract_z
_atom_type_partial_charge
Ba1   Ba    Ba6+2 0.846250 0.544220 0.470860 1.636575
Ba2   Ba    Ba6+2 0.343570 0.455860 0.529140 1.636379
C1    C     C_3   0.617367 0.889611 0.310053 -0.358460
C2    C     C_R   0.091141 0.577837 0.937286 -0.028183
C3    C     C_R   0.045357 0.572475 0.877401 0.595480
C4    C     C_3   0.080776 0.742582 0.304293 0.319527
C5    C     C_R   0.968875 0.409947 0.883434 0.571545
C6    C     C_R   0.013364 0.413246 0.943040 -0.014134
C7    C     C_R   0.074597 0.497629 0.970151 -0.052545
C8    C     C_R   0.152501 0.661762 0.965299 -0.075943
C9    C     C_R   0.196298 0.665803 0.024415 -0.074211
C10   C     C_R   0.180260 0.586074 0.057717 -0.018661
C11   C     C_R   0.119153 0.501716 0.030411 -0.052180
C12   C     C_3   0.604616 0.791950 0.333015 0.348717
C13   C     C_R   0.998053 0.333352 0.976163 -0.077042
C14   C     C_R   0.042496 0.337230 0.035046 -0.076288
C15   C     C_R   0.103228 0.421224 0.063020 -0.026264
C16   C     C_3   0.052356 0.767850 0.241730 -0.307960
C17   C     C_R   0.149137 0.426076 0.122680 0.591003
C18   C     C_R   0.223705 0.589103 0.117618 0.574729
C19   C     C_2   0.798582 0.438389 0.770895 -0.092304
C20   C     C_3   0.776411 0.407881 0.707202 -0.053041
C21   C     C_1   0.001576 0.516809 0.684997 0.033889
C22   C     C_2   0.047608 0.522099 0.741161 -0.103049
C23   C     C_3   0.516802 0.320068 0.355213 0.294229
C24   C     C_2   0.938906 0.483253 0.788391 0.197280
C25   C     C_R   0.402395 0.554968 0.230438 -0.097755
C26   C     C_R   0.444039 0.561715 0.289820 -0.015880
C27   C     C_R   0.192912 0.481179 0.315072 0.029032
C28   C     C_3   0.173351 0.743705 0.589957 0.311289
C29   C     C_R   0.147608 0.475996 0.255467 -0.097583
C30   C     C_R   0.251329 0.514130 0.212157 0.199404
C31   C     C_2   0.871405 0.467683 0.666272 -0.283096
C32   C     C_R   0.692187 0.935484 0.531979 -0.035610
C33   C     C_R   0.510529 0.801470 0.497822 0.046107
C34   C     C_3   0.505313 0.294551 0.289907 -0.363290
C35   C     C_R   0.371579 0.769555 0.467322 -0.298480
C36   C     C_R   0.269299 0.832390 0.442845 0.017628
C37   C     C_R   0.313891 0.927190 0.443140 -0.143536
C38   C     C_R   0.457734 0.960301 0.470940 -0.008031
C39   C     C_R   0.554923 0.898363 0.500686 -0.026931
C40   C     C_3   0.177866 0.849615 0.602507 -0.387570
C41   C     C_R   0.640216 0.091810 0.500727 -0.021064
C42   C     C_R   0.737101 0.030956 0.531318 0.002154
C43   C     C_R   0.684497 0.187893 0.501495 0.025345
C44   C     C_R   0.820321 0.222407 0.532553 -0.286253
C45   C     C_3   0.102462 0.250357 0.695399 0.367129
C46   C     C_R   0.923380 0.161881 0.558431 0.012766
C47   C     C_R   0.880700 0.066212 0.559144 -0.148603
C48   C     C_R   0.502187 0.055234 0.470453 -0.038708
C49   C     C_3   0.021968 0.256698 0.411469 0.307476
C50   C     C_3   0.019690 0.150637 0.399607 -0.378000
C51   C     C_3   0.674504 0.661377 0.641619 0.300667
C52   C     C_3   0.682187 0.685333 0.707187 -0.365258
C53   C     C_3   0.974521 0.154712 0.775792 -0.190724
C54   C     C_3   0.965874 0.061105 0.739733 -0.394288
C55   C     C_3   0.117609 0.218582 0.757718 -0.168801
C56   C     C_3   0.567900 0.205193 0.671669 0.362076
C57   C     C_3   0.536542 0.110237 0.697045 -0.377499
C58   C     C_R   0.338103 0.526801 0.331545 -0.301619
H1    H     H_    0.669901 0.793629 0.375368 0.081816
H2    H     H_    0.796930 0.642497 0.625384 0.010791
H3    H     H_    0.588673 0.600744 0.633779 0.082057
H4    H     H_    0.747155 0.910604 0.303803 0.142908
H5    H     H_    0.773744 0.742739 0.716607 0.130819
H6    H     H_    0.716795 0.622988 0.730340 0.072699
H7    H     H_    0.561182 0.708054 0.723803 0.133419
H8    H     H_    0.473695 0.774195 0.340082 -0.054532
H9    H     H_    0.560724 0.940958 0.341889 0.072836
H10   H     H_    0.393858 0.338012 0.371981 0.019298
H11   H     H_    0.600847 0.381942 0.361830 0.061904
H12   H     H_    0.269814 0.869562 0.636555 0.126366
H13   H     H_    0.419310 0.233912 0.281918 0.137735
H14   H     H_    0.460895 0.354881 0.266851 0.070806
H15   H     H_    0.627119 0.275906 0.272016 0.131095
H16   H     H_    0.553279 0.890532 0.267625 0.126415
H17   H     H_    0.052468 0.703253 0.212424 0.120360
H18   H     H_    0.174658 0.316837 0.692078 0.073972
H19   H     H_    0.973125 0.263735 0.686344 -0.072326
H20   H     H_    0.234219 0.182514 0.762801 0.131578
H21   H     H_    0.122683 0.281996 0.788067 0.106228
H22   H     H_    0.701872 0.217918 0.670879 -0.072671
H23   H     H_    0.209954 0.885739 0.562316 0.068115
H24   H     H_    0.521616 0.201593 0.626109 0.079729
H25   H     H_    0.606698 0.055936 0.671687 0.068734
H26   H     H_    0.405569 0.089992 0.694554 0.149666
H27   H     H_    0.004175 0.679589 0.312476 0.102052
H28   H     H_    0.575456 0.112845 0.743428 0.116521
H29   H     H_    0.028655 0.273966 0.058674 0.123745
H30   H     H_    0.951646 0.267134 0.956595 0.118440
H31   H     H_    0.242847 0.731953 0.044015 0.122590
H32   H     H_    0.487969 0.581026 0.198625 0.116492
H33   H     H_    0.166955 0.724871 0.941558 0.121930
H34   H     H_    0.056501 0.873059 0.618262 0.115699
H35   H     H_    0.165613 0.553029 0.752984 0.130133
H36   H     H_    0.712380 0.412179 0.802628 0.118622
H37   H     H_    0.032764 0.442172 0.242988 0.127915
H38   H     H_    0.372758 0.531103 0.377112 0.083505
H39   H     H_    0.211068 0.725953 0.309111 -0.042725
H40   H     H_    0.850081 0.454039 0.619804 0.082281
H41   H     H_    0.336735 0.695850 0.466120 0.072290
H42   H     H_    0.234911 0.975067 0.422814 0.075718
H43   H     H_    0.960689 0.019578 0.579973 0.068365
H44   H     H_    0.853264 0.296315 0.532583 0.062516
H45   H     H_    0.899419 0.279362 0.424786 -0.001651
H46   H     H_    0.766421 0.891327 0.556843 0.098167
H47   H     H_    0.426482 0.099877 0.446404 0.095791
H48   H     H_    0.932485 0.800828 0.237982 0.147698
H49   H     H_    0.149442 0.817537 0.227802 0.125376
H50   H     H_    0.296801 0.720452 0.578029 0.003992
H51   H     H_    0.088841 0.726215 0.553179 0.066334
H52   H     H_    0.931326 0.071936 0.693941 0.140209
H53   H     H_    0.084801 0.026000 0.740020 0.146112
H54   H     H_    0.871720 0.014451 0.758758 0.121445
H55   H     H_    0.989125 0.140184 0.822581 0.142514
H56   H     H_    0.109130 0.275545 0.447136 0.073967
H57   H     H_    0.857995 0.191485 0.771852 0.141879
H58   H     H_    0.925418 0.129284 0.366671 0.132524
H59   H     H_    0.992287 0.114890 0.440314 0.066398
H60   H     H_    0.140529 0.128002 0.382786 0.117667
N1    N     N_R   0.985329 0.488884 0.850569 -0.421285
N2    N     N_R   0.206202 0.509878 0.150104 -0.423381
O1    O     O_2   0.901900 0.448470 0.362340 -0.458276
O2    O     O_2   0.259617 0.165669 0.547957 -0.485358
O3    O     O_3   0.164255 0.181049 0.655899 -0.606511
O4    O     O_3   0.142240 0.449440 0.433360 -0.494985
O5    O     O_3   0.549340 0.612930 0.525560 -0.485797
O6    O     O_2   0.396530 0.270940 0.479440 -0.464646
O7    O     O_3   0.575148 0.243076 0.383125 -0.645326
O8    O     O_2   0.442340 0.457799 0.710682 -0.495493
O9    O     O_3   0.487971 0.275678 0.705905 -0.596394
O10   O     O_2   0.056638 0.642778 0.849589 -0.596819
O11   O     O_2   0.915917 0.335927 0.860809 -0.634165
O12   O     O_3   0.622163 0.739939 0.614059 -0.640621
O13   O     O_2   0.140869 0.354982 0.149847 -0.597085
O14   O     O_2   0.276585 0.662816 0.140787 -0.614444
O15   O     O_3   0.645560 0.619080 0.391970 -0.486776
O16   O     O_2   0.782563 0.556111 0.291305 -0.499953
O17   O     O_3   0.067524 0.298523 0.360002 -0.626493
O18   O     O_3   0.675828 0.727375 0.292281 -0.599809
O19   O     O_2   0.793170 0.729090 0.520590 -0.470500
O20   O     O_3   0.052800 0.667320 0.419180 -0.493869
O21   O     O_2   0.932299 0.834551 0.450417 -0.487706
O22   O     O_3   0.037062 0.818269 0.342663 -0.602104
O23   O     O_2   0.287790 0.551560 0.637690 -0.459881
O24   O     O_3   0.047460 0.550640 0.566640 -0.497587
O25   O     O_3   0.544140 0.380990 0.608030 -0.473988
O26   O     O_3   0.121182 0.701444 0.640567 -0.625228
O27   O     O_3   0.640350 0.387150 0.474440 -0.474606
O28   O     O_3   0.136890 0.332750 0.580830 -0.487634
P1    P     P_3+3 0.074990 0.420800 0.372080 0.993619
P2    P     P_3+3 0.618830 0.715330 0.538180 0.972316
P3    P     P_3+3 0.072302 0.788798 0.414419 0.941603
P4    P     P_3+3 0.114710 0.579280 0.627920 0.991872
P5    P     P_3+3 0.120600 0.210247 0.584972 0.941585
P6    P     P_3+3 0.638134 0.614257 0.315540 0.948085
P7    P     P_3+3 0.578275 0.270630 0.458621 0.936814
P8    P     P_3+3 0.561355 0.384402 0.683972 0.944914

loop_
_geom_bond_atom_site_label_1
_geom_bond_atom_site_label_2
_ccdc_geom_bond_type
C42   C47   A    
Ba2   O28   S    
C53   C54   S    
C17   N2    Am   
C16   H49   S    
C45   H19   S    
C19   C24   D    
C23   O7    S    
O7    P7    S    
Ba2   O6    S    
C5    C6    A    
C52   H5    S    
C43   C44   A    
Ba2   O23   S    
C28   H50   S    
C1    H9    S    
C22   C24   S    
C5    O11   D    
C58   H38   S    
C56   H22   S    
C36   C37   A    
O21   P3    D    
C27   P1    S    
C17   O13   D    
C13   C14   A    
C3    N1    Am   
Ba1   P2    S    
Ba1   Ba2   S    
O4    P1    S    
O22   P3    S    
C7    C11   A    
C57   H28   S    
Ba1   O20   S    
C3    O10   D    
C6    C7    A    
C21   C31   D    
C21   C22   D    
Ba1   O27   S    
C23   H11   S    
C24   N1    S    
C18   N2    Am   
C49   H45   S    
Ba2   O5    S    
Ba2   O27   S    
C14   H29   S    
Ba2   P4    S    
C19   C20   S    
C55   H20   S    
Ba1   O24   S    
C32   C39   A    
O26   P4    S    
C5    N1    Am   
O6    P7    D    
C45   O3    S    
C44   C46   A    
C26   C58   A    
C4    C16   S    
O1    P1    D    
C40   H23   S    
C49   C50   S    
C32   H46   S    
C30   N2    S    
C32   C42   A    
Ba1   O4    S    
C34   H13   S    
C22   H35   S    
C37   C38   A    
C14   C15   A    
C52   H7    S    
C20   P8    S    
C8    H33   S    
C56   C57   S    
C51   C52   S    
C12   H1    S    
C44   H44   S    
C4    H27   S    
O15   P6    S    
O9    P8    S    
C41   C42   A    
Ba1   O1    S    
C35   C36   A    
C34   H15   S    
C56   H24   S    
O5    P2    S    
C45   C55   S    
C51   H2    S    
C29   C30   A    
O24   P4    S    
C27   C58   A    
C56   O9    S    
C54   H53   S    
O12   P2    S    
C10   C18   A    
C40   H12   S    
C43   P7    S    
C25   H32   S    
C18   O14   D    
C1    H16   S    
C41   C43   A    
C1    C12   S    
C34   H14   S    
O18   P6    S    
O23   P4    D    
Ba2   O4    S    
C46   C47   A    
C46   P5    S    
C12   O18   S    
C6    C13   A    
O28   P5    S    
C53   C55   S    
C48   H47   S    
C55   H21   S    
C21   P4    S    
C33   P2    S    
C4    O22   S    
C50   H60   S    
Ba1   O15   S    
C37   H42   S    
C53   H57   S    
O16   P6    D    
C20   C31   S    
C38   C39   A    
C12   H8    S    
C33   C35   A    
C25   C30   A    
C40   H34   S    
C51   O12   S    
Ba1   O5    S    
C2    C8    A    
C2    C3    A    
C47   H43   S    
C9    C10   A    
C41   C48   A    
C28   O26   S    
C52   H6    S    
C19   H36   S    
Ba2   O24   S    
C49   H56   S    
C45   H18   S    
C11   C15   A    
C28   H51   S    
O8    P8    D    
C31   H40   S    
C4    H39   S    
Ba2   O25   S    
C57   H26   S    
C27   C29   A    
C13   H30   S    
C35   H41   S    
C51   H3    S    
C53   H55   S    
C16   H17   S    
C38   C48   A    
O17   P1    S    
C15   C17   A    
Ba1   P1    S    
C29   H37   S    
O20   P3    S    
C1    H4    S    
C33   C39   A    
C16   H48   S    
Ba1   O19   S    
C8    C9    A    
C23   C34   S    
C50   H59   S    
C9    H31   S    
C10   C11   A    
O2    P5    D    
C25   C26   A    
C26   P6    S    
C54   H54   S    
C28   C40   S    
C23   H10   S    
C36   P3    S    
C2    C7    A    
O25   P8    S    
O27   P7    S    
C57   H25   S    
C54   H52   S    
O3    P5    S    
O19   P2    D    
C50   H58   S    
C49   O17   S    
