data_mof_unit_33742.cif
_audit_creation_date              2013-03-05T15:45:11-0500
_audit_creation_method            fapswitch 2.2
_symmetry_space_group_name_H-M    P1
_symmetry_Int_Tables_number       1
_space_group_crystal_system       triclinic
_cell_length_a                    11.548061
_cell_length_b                    11.500797
_cell_length_c                    19.546984
_cell_angle_alpha                 90.587801
_cell_angle_beta                  90.483684
_cell_angle_gamma                 60.02591
_cell_volume                      2248.71640197

loop_
_atom_site_label
_atom_site_type_symbol
_atom_site_description
_atom_site_fract_x
_atom_site_fract_y
_atom_site_fract_z
_atom_type_partial_charge
O1    O     O_R   0.267740 0.231990 0.575440 -0.492028
O2    O     O_R   0.527280 0.186680 0.570530 -0.496145
C1    C     C_R   0.640736 0.117468 0.599197 0.546346
O3    O     O_R   0.728090 0.003480 0.576380 -0.494416
O4    O     O_R   0.682970 0.789220 0.570490 -0.488572
C2    C     C_R   0.612787 0.745753 0.598587 0.547499
O5    O     O_R   0.499290 0.771920 0.575530 -0.499237
O6    O     O_R   0.285330 0.030900 0.569730 -0.489567
C3    C     C_R   0.241106 0.145296 0.598226 0.552841
O7    O     O_R   0.270980 0.227040 0.423900 -0.463430
O8    O     O_R   0.530280 0.182090 0.430050 -0.507878
C4    C     C_R   0.644194 0.113662 0.402920 0.552171
O9    O     O_R   0.731330 0.998530 0.424830 -0.490481
O10   O     O_R   0.685970 0.784630 0.430010 -0.485409
C5    C     C_R   0.612078 0.746677 0.400081 0.558228
O11   O     O_R   0.502530 0.766960 0.423990 -0.498667
O12   O     O_R   0.288330 0.026310 0.429250 -0.461679
C6    C     C_R   0.235700 0.144629 0.403877 0.583245
Cr1   Cr    Cr6+3 0.404720 0.198220 0.499960 1.094351
Cr2   Cr    Cr6+3 0.698290 0.897110 0.500380 1.094457
Cr3   Cr    Cr6+3 0.396970 0.904720 0.499610 1.108830
O13   O     O_3   0.499990 0.000020 0.499980 -0.293152
C7    C     C_1   0.669574 0.646946 0.860154 0.011618
C8    C     C_1   0.655089 0.683718 0.728466 -0.026847
C9    C     C_1   0.662999 0.667019 0.799721 -0.026873
C10   C     C_1   0.641929 0.703735 0.667991 0.010479
C11   C     C_1   0.126351 0.198721 0.859240 0.011322
C12   C     C_1   0.171610 0.170254 0.727673 -0.025735
C13   C     C_1   0.149932 0.182223 0.798908 -0.025780
C14   C     C_1   0.195543 0.160906 0.667381 0.011325
C15   C     C_1   0.677945 0.191560 0.860776 0.010862
C16   C     C_1   0.658816 0.167278 0.728991 -0.026641
C17   C     C_1   0.665315 0.181144 0.800288 -0.026485
C18   C     C_1   0.653579 0.149602 0.668585 0.009855
C19   C     C_R   0.517946 0.759941 0.286453 -0.104670
H1    H     H_    0.418904 0.804914 0.308361 0.200013
C20   C     C_R   0.529800 0.750397 0.216135 0.204974
C21   C     C_R   0.658335 0.688114 0.187724 0.016352
C22   C     C_R   0.770122 0.659268 0.228585 -0.165456
H2    H     H_    0.869612 0.614739 0.207211 0.166287
C23   C     C_R   0.756475 0.674711 0.298699 -0.129247
H3    H     H_    0.843081 0.650670 0.330060 0.215099
C24   C     C_R   0.631742 0.717790 0.327958 -0.019781
C25   C     C_R   0.124268 0.303659 0.309004 0.160496
C26   C     C_R   0.116413 0.313003 0.238434 -0.117377
H4    H     H_    0.096632 0.406322 0.215257 0.198545
C27   C     C_R   0.121590 0.209210 0.198470 -0.044011
C28   C     C_R   0.130973 0.095905 0.230569 -0.117733
C29   C     C_R   0.145015 0.081765 0.301777 0.134795
C30   C     C_R   0.156872 0.180044 0.340120 0.007380
C31   C     C_R   0.784024 0.079432 0.303934 -0.119604
H5    H     H_    0.870626 0.003378 0.331016 0.221164
C32   C     C_R   0.794370 0.095503 0.235412 -0.157573
H6    H     H_    0.892220 0.034374 0.212897 0.180284
C33   C     C_R   0.682773 0.188919 0.197117 0.009291
C34   C     C_R   0.558532 0.268183 0.229456 0.188907
C35   C     C_R   0.550026 0.252113 0.299531 -0.109215
H7    H     H_    0.453531 0.308565 0.324139 0.193816
C36   C     C_R   0.661842 0.155166 0.336151 -0.022939
O14   O     O_R   0.821500 0.119550 0.952820 -0.501030
O15   O     O_R   0.037130 0.162750 0.957360 -0.486606
C37   C     C_R   0.081609 0.231238 0.928522 0.560085
O16   O     O_R   0.056440 0.344950 0.951330 -0.493147
O17   O     O_R   0.797900 0.560570 0.957460 -0.497710
C38   C     C_R   0.683562 0.604784 0.929508 0.548478
O18   O     O_R   0.596140 0.579600 0.952720 -0.492181
O19   O     O_R   0.639070 0.321380 0.958660 -0.488868
C39   C     C_R   0.707988 0.206738 0.930175 0.549482
O20   O     O_R   0.821240 0.124490 0.104360 -0.530298
O21   O     O_R   0.036900 0.167320 0.097830 -0.492614
C40   C     C_R   0.079533 0.238046 0.126950 0.584167
O22   O     O_R   0.056190 0.349890 0.102870 -0.495249
O23   O     O_R   0.797670 0.565150 0.097930 -0.524418
C41   C     C_R   0.681268 0.617412 0.123397 0.571251
O24   O     O_R   0.595880 0.584540 0.104260 -0.439303
O25   O     O_R   0.638830 0.325960 0.099140 -0.444700
C42   C     C_R   0.709490 0.211612 0.127420 0.573751
Cr4   Cr    Cr6+3 0.926180 0.152240 0.028110 1.077162
Cr5   Cr    Cr6+3 0.921340 0.452070 0.027460 1.069218
Cr6   Cr    Cr6+3 0.626260 0.447120 0.028700 1.138700
O26   O     O_3   0.824590 0.350480 0.028090 -0.293453
N1    N     N_R   0.440037 0.358610 0.192019 0.088834
O27   O     O_R   0.413067 0.321310 0.133793 -0.314894
O28   O     O_R   0.348791 0.468765 0.220826 -0.250962
N2    N     N_R   0.412391 0.797536 0.174205 0.081396
O29   O     O_R   0.399680 0.864922 0.118850 -0.333666
O30   O     O_R   0.322777 0.764580 0.188393 -0.252370
N3    N     N_R   0.096453 0.420962 0.348690 0.078868
O31   O     O_R   0.030066 0.446904 0.405644 -0.331414
O32   O     O_R   0.123803 0.509588 0.324609 -0.293048
H8    H     H_    0.120771 0.021919 0.200556 0.209618
N4    N     N_R   0.136545 0.974793 0.334813 0.065092
O33   O     O_R   0.156793 0.869049 0.300268 -0.287346
O34   O     O_R   0.083585 0.994017 0.395342 -0.327032

loop_
_geom_bond_atom_site_label_1
_geom_bond_atom_site_label_2
_geom_bond_distance
_ccdc_geom_bond_type
C33   C34   1.409140 A    
O11   Cr3   2.057571 S    
C11   C13   1.204219 T    
C23   H3    1.081349 S    
O20   C42   1.257387 A    
C19   H1    1.082441 S    
C22   C23   1.380350 A    
O4    Cr2   1.925452 S    
O16   Cr5   2.060899 S    
N2    O29   1.301452 A    
O8    Cr1   1.940031 S    
C20   C21   1.402884 A    
C20   N2    1.435227 S    
C12   C13   1.409960 S    
C19   C20   1.380260 A    
C8    C10   1.200438 T    
O22   Cr5   2.036422 S    
C21   C22   1.405198 A    
C33   C42   1.454029 S    
C35   C36   1.408921 A    
O21   Cr4   1.925998 S    
C5    O11   1.259402 A    
C34   C35   1.394874 A    
O23   C41   1.270371 A    
C26   C27   1.396092 A    
C4    C36   1.444729 S    
O6    C3    1.272948 A    
C28   H8    1.082050 S    
C15   C17   1.202172 T    
O21   C40   1.270407 A    
C19   C24   1.404872 A    
O24   Cr6   2.051619 S    
O7    Cr1   2.040929 S    
N3    O31   1.301992 A    
N2    O30   1.300161 A    
Cr3   O13   1.979712 S    
C23   C24   1.393695 A    
O20   Cr4   2.053929 S    
O6    Cr3   1.940681 S    
C32   C33   1.411434 A    
C15   C39   1.427859 S    
O1    Cr1   2.060022 S    
C41   O24   1.272220 A    
O19   C39   1.275028 A    
O10   Cr2   1.931273 S    
Cr1   O13   1.974964 S    
O1    C3    1.266863 A    
O25   C42   1.279037 A    
C22   H2    1.082884 S    
Cr5   O26   1.979501 S    
C1    C18   1.428037 S    
O5    Cr3   2.035871 S    
N1    O27   1.301496 A    
O12   Cr3   1.917886 S    
C31   H5    1.082576 S    
C31   C32   1.368315 A    
C16   C18   1.202225 T    
C37   O16   1.266463 A    
C11   C37   1.431482 S    
C27   C28   1.406430 A    
O15   Cr4   1.938266 S    
O14   Cr4   2.044820 S    
N4    O34   1.301742 A    
O12   C6    1.284295 A    
O23   Cr5   1.941382 S    
C8    C9    1.403918 S    
C34   N1    1.437458 S    
C27   C40   1.461978 S    
C3    C14   1.431423 S    
C28   C29   1.401654 A    
N3    O32   1.301639 A    
C29   C30   1.411929 A    
N1    O28   1.301473 A    
O17   Cr5   1.919910 S    
C31   C36   1.386281 A    
C29   N4    1.441434 S    
C1    O3    1.268586 A    
C25   C26   1.383404 A    
C6    C30   1.472586 S    
C21   C41   1.442860 S    
C25   C30   1.418393 A    
C2    C10   1.424961 S    
O9    Cr2   2.043650 S    
O2    Cr1   1.925279 S    
O19   Cr6   1.933006 S    
O25   Cr6   1.921573 S    
Cr2   O13   1.984078 S    
Cr6   O26   1.984354 S    
O8    C4    1.264845 A    
C32   H6    1.083080 S    
C2    O5    1.268953 A    
O18   Cr6   2.038708 S    
C16   C17   1.406741 S    
C7    C38   1.424981 S    
C12   C14   1.204205 T    
O2    C1    1.272354 A    
C5    C24   1.438692 S    
C40   O22   1.269878 A    
O17   C38   1.274017 A    
Cr4   O26   1.975278 S    
C35   H7    1.083672 S    
O4    C2    1.275294 A    
O7    C6    1.262148 A    
N4    O33   1.300500 A    
C7    C9    1.200448 T    
O15   C37   1.272904 A    
O3    Cr2   2.048572 S    
C26   H4    1.082839 S    
C4    O9    1.273675 A    
O14   C39   1.267131 A    
C38   O18   1.269473 A    
O10   C5    1.272566 A    
C25   N3    1.440379 S    
