data_mof_unit_34708.cif
_audit_creation_date              2012-10-26T20:24:18-0400
_audit_creation_method            fapswitch 2.2
_symmetry_space_group_name_H-M    P1
_symmetry_Int_Tables_number       1
_space_group_crystal_system       triclinic
_cell_length_a                    15.852652
_cell_length_b                    10.736763
_cell_length_c                    9.435058
_cell_angle_alpha                 89.695549
_cell_angle_beta                  89.957358
_cell_angle_gamma                 89.625027
_cell_volume                      1605.84759585

loop_
_atom_site_label
_atom_site_type_symbol
_atom_type_description
_atom_site_fract_x
_atom_site_fract_y
_atom_site_fract_z
_atom_type_partial_charge
C1    C     C_R   0.500844 0.259877 0.500195 0.579516
C2    C     C_3   0.568441 0.927040 0.605337 -0.242615
C3    C     C_3   0.411979 0.071337 0.542667 0.174176
C4    C     C_R   0.339866 0.500001 0.500022 0.563365
C5    C     C_3   0.522739 0.072288 0.350098 -0.277763
C6    C     C_3   0.500979 0.121851 0.500769 0.059274
C7    C     C_3   0.501744 0.877793 0.499304 0.022547
C8    C     C_3   0.413134 0.925712 0.543656 -0.203790
C9    C     C_3   0.523668 0.929551 0.349655 -0.257533
C10   C     C_3   0.456657 0.612442 0.084081 0.248757
C11   C     C_3   0.458584 0.614751 0.916153 -0.088115
C12   C     C_3   0.082862 0.498346 0.499645 0.066080
C13   C     C_3   0.589418 0.500918 0.082841 0.249663
C14   C     C_3   0.458873 0.389319 0.083160 -0.075385
C15   C     C_3   0.588014 0.501395 0.914855 -0.090247
C16   C     C_R   0.501765 0.740000 0.499637 0.541213
C17   C     C_3   0.457401 0.392450 0.916260 -0.117992
C18   C     C_R   0.660126 0.499961 0.499977 0.544838
C19   C     C_3   0.971540 0.392999 0.559693 -0.103407
C20   C     C_3   0.027522 0.401685 0.425842 0.017811
C21   C     C_1   0.250172 0.499615 0.499997 -0.014765
C22   C     C_1   0.749805 0.500036 0.499899 -0.054440
C23   C     C_3   0.971446 0.597990 0.574601 -0.103018
C24   C     C_3   0.027797 0.490992 0.633979 -0.151535
C25   C     C_3   0.061712 0.290412 0.343015 -0.274163
C26   C     C_3   0.990409 0.211331 0.284036 -0.447632
C27   C     C_3   0.383730 0.072200 0.793574 -0.123950
C28   C     C_3   0.338279 0.734836 0.137505 -0.130823
C29   C     C_3   0.723042 0.413867 0.122471 -0.143100
C30   C     C_3   0.996746 0.791573 0.335155 -0.132815
C31   C     C_3   0.916973 0.499887 0.499087 -0.000917
C32   C     C_3   0.026929 0.602829 0.440566 0.313094
C33   C     C_3   0.971580 0.506982 0.363554 -0.083033
C34   C     C_1   0.174607 0.499118 0.499804 -0.027256
C35   C     C_1   0.825360 0.500044 0.499568 -0.083512
C36   C     C_3   0.569758 0.070747 0.602991 -0.236243
Cu1   Cu    Cu3+1 0.500040 0.499860 0.642410 0.890650
Cu2   Cu    Cu3+1 0.499960 0.500140 0.357590 0.976005
H1    H     H_    0.554249 0.893953 0.714646 0.113423
H2    H     H_    0.947147 0.306084 0.608518 0.107916
H3    H     H_    0.393531 0.621859 0.872584 0.158296
H4    H     H_    0.491548 0.700651 0.881014 0.069481
H5    H     H_    0.620404 0.588440 0.118804 0.074416
H6    H     H_    0.623403 0.583778 0.875385 0.082175
H7    H     H_    0.491117 0.302316 0.118085 0.136859
H8    H     H_    0.393410 0.382446 0.124611 0.144233
H9    H     H_    0.391009 0.390496 0.878380 0.145647
H10   H     H_    0.488111 0.305875 0.877381 0.131922
H11   H     H_    0.947467 0.513571 0.253304 0.084592
H12   H     H_    0.395578 0.882818 0.646338 0.117371
H13   H     H_    0.621697 0.417844 0.873725 0.154539
H14   H     H_    0.947035 0.678898 0.635231 0.096075
H15   H     H_    0.052107 0.483918 0.744057 0.110975
H16   H     H_    0.561195 0.107590 0.711813 0.129938
H17   H     H_    0.632963 0.102745 0.567064 0.101317
H18   H     H_    0.632058 0.890315 0.577068 0.108531
H19   H     H_    0.950974 0.174032 0.371654 0.145055
H20   H     H_    0.950172 0.267641 0.211352 0.143249
H21   H     H_    0.017399 0.131798 0.224038 0.129485
H22   H     H_    0.101396 0.324828 0.254175 0.148150
H23   H     H_    0.475476 0.106052 0.271289 0.101742
H24   H     H_    0.101692 0.232264 0.414230 0.148760
H25   H     H_    0.445593 0.025866 0.809055 0.094720
H26   H     H_    0.331540 0.004654 0.806882 0.116082
H27   H     H_    0.376554 0.141736 0.879213 0.111962
H28   H     H_    0.268434 0.729449 0.138893 0.157311
H29   H     H_    0.356550 0.793462 0.044875 0.054312
H30   H     H_    0.358096 0.779250 0.237685 0.130911
H31   H     H_    0.743333 0.495506 0.185566 0.119851
H32   H     H_    0.743763 0.425090 0.010685 0.082167
H33   H     H_    0.755869 0.330732 0.166515 0.136457
H34   H     H_    0.585469 0.107319 0.315409 0.143760
H35   H     H_    0.957442 0.822624 0.426187 0.106694
H36   H     H_    0.956801 0.747583 0.252769 0.103137
H37   H     H_    0.025349 0.875855 0.287124 0.134858
H38   H     H_    0.587122 0.895466 0.316462 0.118296
H39   H     H_    0.477630 0.896831 0.269709 0.109008
H40   H     H_    0.369588 0.097776 0.453163 0.116308
H41   H     H_    0.365395 0.891602 0.466864 0.076663
H42   H     H_    0.490185 0.697182 0.121672 0.080644
N1    N     N_3   0.501840 0.500250 0.143650 -0.192756
N2    N     N_3   0.501160 0.503300 0.856280 -0.275020
O1    O     O_R   0.500050 0.317570 0.620260 -0.482316
O2    O     O_3   0.371377 0.612663 0.130374 -0.545698
O3    O     O_3   0.634988 0.394687 0.132218 -0.549832
O4    O     O_3   0.062104 0.710966 0.379614 -0.565223
O5    O     O_R   0.499980 0.317810 0.379740 -0.512685
O6    O     O_R   0.379110 0.499870 0.620240 -0.503767
O7    O     O_R   0.379040 0.500110 0.379720 -0.448644
O8    O     O_R   0.500020 0.682190 0.620260 -0.520755
O9    O     O_R   0.499950 0.682430 0.379740 -0.518917
O10   O     O_R   0.620960 0.499890 0.620280 -0.521354
O11   O     O_R   0.620890 0.500130 0.379760 -0.463499
O12   O     O_3   0.376101 0.134297 0.661907 -0.559766

loop_
_geom_bond_atom_site_label_1
_geom_bond_atom_site_label_2
_ccdc_geom_bond_type
C1    O5    A    
C16   O8    A    
C30   H37   S    
C28   O2    S    
Cu1   O6    S    
C2    C7    S    
C17   H10   S    
C3    C6    S    
C19   C31   S    
C7    C8    S    
C14   H8    S    
C22   C35   T    
Cu2   O7    S    
Cu1   O8    S    
C28   H30   S    
C15   H6    S    
C29   H32   S    
C5    H34   S    
C5    C6    S    
C30   H36   S    
C20   C25   S    
C33   H11   S    
C13   N1    S    
C11   H4    S    
C17   N2    S    
C2    H1    S    
C19   C20   S    
C8    H41   S    
C23   C24   S    
C31   C33   S    
C9    H38   S    
C15   H13   S    
C30   O4    S    
C26   H21   S    
C29   O3    S    
C12   C32   S    
C14   C17   S    
C15   N2    S    
C29   H31   S    
C19   H2    S    
C11   N2    S    
C1    C6    S    
C28   H29   S    
C3    C8    S    
C27   H26   S    
C30   H35   S    
C10   H42   S    
C21   C34   T    
C24   H15   S    
Cu2   O9    S    
C23   C31   S    
C28   H28   S    
C5    C9    S    
Cu1   Cu2   S    
C27   H27   S    
C32   O4    S    
C12   C20   S    
C5    H23   S    
C9    H39   S    
C26   H20   S    
C27   H25   S    
C20   C33   S    
C7    C16   S    
C25   H22   S    
C13   C15   S    
Cu2   N1    S    
C31   C35   S    
Cu1   N2    S    
C12   C34   S    
C8    H12   S    
C13   H5    S    
C4    O7    A    
C2    C36   S    
C7    C9    S    
Cu1   O10   S    
C18   C22   S    
C17   H9    S    
C14   H7    S    
C4    O6    A    
C1    O1    A    
C12   C24   S    
C10   N1    S    
Cu2   O5    S    
C18   O10   A    
C23   C32   S    
C19   C24   S    
C25   C26   S    
C36   H17   S    
C2    H18   S    
C32   C33   S    
C4    C21   S    
C23   H14   S    
Cu2   O11   S    
C10   O2    S    
C6    C36   S    
C11   H3    S    
C3    O12   S    
C25   H24   S    
C26   H19   S    
C36   H16   S    
C10   C11   S    
C16   O9    A    
C13   O3    S    
C18   O11   A    
Cu1   O1    S    
C27   O12   S    
C14   N1    S    
C3    H40   S    
C29   H33   S    
