data_mof_unit_31134.cif
_audit_creation_date              2012-12-11T14:56:30-0500
_audit_creation_method            fapswitch 2.2
_symmetry_space_group_name_H-M    P1
_symmetry_Int_Tables_number       1
_space_group_crystal_system       triclinic
_cell_length_a                    10.512994
_cell_length_b                    10.766029
_cell_length_c                    17.070787
_cell_angle_alpha                 79.915069
_cell_angle_beta                  90.364615
_cell_angle_gamma                 119.731311
_cell_volume                      1644.52460736

loop_
_atom_site_label
_atom_site_type_symbol
_atom_type_description
_atom_site_fract_x
_atom_site_fract_y
_atom_site_fract_z
_atom_type_partial_charge
Br1   Br    Br    0.429883 0.397925 0.129788 -0.307261
Br2   Br    Br    0.125354 0.521698 0.686740 -0.397144
Br3   Br    Br    0.784362 0.156323 0.381284 -0.384250
Br4   Br    Br    0.888756 0.236208 0.191651 -0.350036
Br5   Br    Br    0.569948 0.532899 0.908439 -0.342785
Br6   Br    Br    0.463737 0.482010 0.727457 -0.386525
C1    C     C_R   0.222953 0.854287 0.128696 0.553756
C2    C     C_1   0.634330 0.306571 0.704807 0.003427
C3    C     C_R   0.638014 0.695248 0.819259 0.178948
C4    C     C_R   0.635145 0.271661 0.090789 0.614803
C5    C     C_R   0.617657 0.670222 0.741754 0.148427
C6    C     C_R   0.695582 0.787873 0.677292 -0.007308
C7    C     C_R   0.781167 0.930382 0.691658 -0.133871
C8    C     C_R   0.779194 0.956513 0.767908 -0.174107
C9    C     C_R   0.703210 0.839329 0.831592 -0.017318
C10   C     C_R   0.169547 0.941776 0.765346 -0.074023
C11   C     C_R   0.213273 0.950408 0.686590 -0.013393
C12   C     C_R   0.704369 0.250109 0.305878 0.152674
C13   C     C_R   0.172167 0.819187 0.661541 0.034013
C14   C     C_R   0.145481 0.694213 0.718885 0.087576
C15   C     C_R   0.138457 0.697077 0.800849 -0.009112
C16   C     C_R   0.642018 0.857965 0.124920 0.561108
C17   C     C_R   0.156490 0.824426 0.824225 -0.039095
C18   C     C_R   0.686266 0.809514 0.357068 0.594441
C19   C     C_R   0.678203 0.381629 0.400623 0.579506
C20   C     C_R   0.103747 0.810732 0.359287 0.550638
C21   C     C_R   0.702121 0.762119 0.596829 0.569206
C22   C     C_R   0.675015 0.374902 0.623174 0.573184
C23   C     C_R   0.728866 0.263531 0.224430 0.126410
C24   C     C_R   0.103513 0.802708 0.585683 0.589219
C25   C     C_R   0.216562 0.860077 0.900802 0.553406
C26   C     C_R   0.612584 0.219687 0.859259 0.558701
C27   C     C_R   0.650381 0.864708 0.901904 0.550254
C28   C     C_R   0.544377 0.340185 0.200992 0.121845
C29   C     C_R   0.531054 0.338245 0.283097 -0.046681
C30   C     C_R   0.624085 0.307726 0.333265 -0.061589
C31   C     C_2   0.305408 0.094271 0.631747 0.279512
C32   C     C_2   0.102181 0.563739 0.861374 0.316880
C33   C     C_2   0.416382 0.360541 0.318167 0.333679
C34   C     C_R   0.644628 0.304087 0.171099 -0.029461
C35   C     C_2   0.120922 0.042719 0.785279 0.261445
C36   C     C_1   0.670222 0.847802 0.205030 0.030483
C37   C     C_1   0.680608 0.838023 0.274611 0.035058
C38   C     C_1   0.181225 0.825867 0.211409 -0.002757
C39   C     C_1   0.151927 0.820796 0.279901 -0.007584
C40   C     C_1   0.619684 0.262685 0.775348 -0.001313
Cr1   Cr    Cr6+3 0.402240 0.783890 0.019450 1.148649
Cr2   Cr    Cr6+3 0.382360 0.097900 0.991800 1.122293
Cr3   Cr    Cr6+3 0.715380 0.118170 0.988700 1.109754
Cr4   Cr    Cr6+3 0.936650 0.882420 0.465510 1.110245
Cr5   Cr    Cr6+3 0.605770 0.565620 0.493360 1.110967
Cr6   Cr    Cr6+3 0.921340 0.550490 0.496380 1.128892
H1    H     H_    0.842461 0.023324 0.643428 0.198431
H2    H     H_    0.830241 0.068268 0.776244 0.183755
H3    H     H_    0.333333 0.195288 0.650121 0.193872
H4    H     H_    0.136053 0.488071 0.849772 0.168988
H5    H     H_    0.357659 0.294799 0.375745 0.134172
H6    H     H_    0.066553 0.021506 0.843833 0.150656
O1    O     O_R   0.521780 0.757110 0.108900 -0.448442
O2    O     O_R   0.805020 0.410040 0.421340 -0.450706
O3    O     O_R   0.049240 0.685450 0.403290 -0.483202
O4    O     O_R   0.275160 0.783810 0.101120 -0.466722
O5    O     O_R   0.077520 0.903010 0.551800 -0.487058
O6    O     O_R   0.802980 0.872780 0.546830 -0.491272
O7    O     O_R   0.578090 0.681300 0.569920 -0.438259
O8    O     O_R   0.608530 0.436370 0.586530 -0.486366
O9    O     O_R   0.798770 0.401880 0.597100 -0.474243
O10   O     O_R   0.043450 0.677890 0.566230 -0.465655
O11   O     O_3   0.821250 0.666180 0.485090 -0.323472
O12   O     O_R   0.513330 0.228330 0.898660 -0.429563
O13   O     O_R   0.237900 0.972600 0.090980 -0.494352
O14   O     O_R   0.511190 0.220540 0.061620 -0.450831
O15   O     O_R   0.736920 0.257720 0.063840 -0.438392
O16   O     O_R   0.710450 0.984050 0.081720 -0.486200
O17   O     O_R   0.524090 0.765520 0.933110 -0.459783
O18   O     O_R   0.277300 0.791600 0.938160 -0.464359
O19   O     O_R   0.240210 0.981010 0.915190 -0.542078
O20   O     O_2   0.360059 0.102273 0.566791 -0.506206
O21   O     O_2   0.030387 0.535196 0.924567 -0.450818
O22   O     O_2   0.391453 0.455769 0.285944 -0.426311
O23   O     O_R   0.739230 0.266130 0.888050 -0.461503
O24   O     O_2   0.130343 0.144190 0.735740 -0.487673
O25   O     O_R   0.712580 0.991850 0.918770 -0.537825
O26   O     O_3   0.499990 0.999980 0.999980 -0.333201
O27   O     O_R   0.083770 0.911170 0.376030 -0.494160
O28   O     O_R   0.808770 0.880340 0.383890 -0.453599
O29   O     O_R   0.584340 0.689460 0.394160 -0.484897
O30   O     O_R   0.614320 0.443940 0.423590 -0.516512

loop_
_geom_bond_atom_site_label_1
_geom_bond_atom_site_label_2
_ccdc_geom_bond_type
Cr4   O6    S    
C22   O8    A    
C29   C30   A    
Cr1   O4    S    
C26   O23   A    
C28   C34   A    
Cr3   O26   S    
C20   O3    A    
Cr1   O18   S    
Cr6   O3    S    
C1    O13   A    
C4    O15   A    
C32   O21   D    
C33   H5    S    
Br3   C12   S    
C4    C34   S    
C28   C29   A    
Cr5   O7    S    
Cr3   O23   S    
Cr6   O11   S    
Cr6   O2    S    
C20   C39   S    
C27   O17   A    
C15   C32   S    
C13   C14   A    
C10   C11   A    
C19   O2    A    
Br4   C23   S    
Cr4   O27   S    
C7    C8    A    
Cr4   O5    S    
Cr2   O14   S    
Br1   C28   S    
C25   O19   A    
C7    H1    S    
C6    C21   S    
Br2   C14   S    
C22   O9    A    
Cr5   O29   S    
C16   O1    A    
C26   O12   A    
Cr1   O26   S    
C19   O30   A    
Cr2   O26   S    
Cr5   O8    S    
C17   C25   S    
Cr2   O19   S    
C29   C33   S    
C1    O4    A    
Br5   C3    S    
C21   O7    A    
C3    C5    A    
C12   C23   A    
C11   C31   S    
C1    C38   S    
C14   C15   A    
C27   O25   A    
Cr6   O9    S    
C8    H2    S    
C10   C17   A    
C15   C17   A    
C2    C22   S    
Cr3   O15   S    
C36   C37   T    
C16   O16   A    
Cr2   O13   S    
Br6   C5    S    
C38   C39   T    
Cr3   O16   S    
C26   C40   S    
Cr4   O11   S    
Cr2   O12   S    
Cr6   O10   S    
Cr5   O30   S    
C35   H6    S    
C5    C6    A    
C31   O20   D    
C33   O22   D    
Cr3   O25   S    
C3    C9    A    
Cr1   O17   S    
C25   O18   A    
C16   C36   S    
C18   O28   A    
C20   O27   A    
C35   O24   D    
C23   C34   A    
C11   C13   A    
C18   O29   A    
C2    C40   T    
C21   O6    A    
Cr4   O28   S    
C19   C30   S    
Cr1   O1    S    
C31   H3    S    
C32   H4    S    
C6    C7    A    
C18   C37   S    
C8    C9    A    
Cr5   O11   S    
C24   O5    A    
C13   C24   S    
C12   C30   A    
C10   C35   S    
C9    C27   S    
C24   O10   A    
C4    O14   A    
