data_mof_unit_68030.cif
_audit_creation_date              2012-12-11T14:31:07-0500
_audit_creation_method            fapswitch 2.2
_symmetry_space_group_name_H-M    P1
_symmetry_Int_Tables_number       1
_space_group_crystal_system       triclinic
_cell_length_a                    6.888822
_cell_length_b                    14.245026
_cell_length_c                    16.499915
_cell_angle_alpha                 90.000367
_cell_angle_beta                  90.000935
_cell_angle_gamma                 89.999368
_cell_volume                      1619.16055872

loop_
_atom_site_label
_atom_site_type_symbol
_atom_type_description
_atom_site_fract_x
_atom_site_fract_y
_atom_site_fract_z
_atom_type_partial_charge
O1    O     O_R   0.469910 0.836130 0.163900 -0.515943
O2    O     O_R   0.530090 0.163870 0.836100 -0.508759
O3    O     O_R   0.530090 0.163870 0.663900 -0.515906
O4    O     O_R   0.469910 0.836130 0.336100 -0.508837
O5    O     O_R   0.969910 0.663870 0.336100 -0.515911
O6    O     O_R   0.030090 0.336130 0.663900 -0.508792
O7    O     O_R   0.030090 0.336130 0.836100 -0.515924
O8    O     O_R   0.969910 0.663870 0.163900 -0.508766
O9    O     O_R   0.140100 0.847470 0.335520 -0.561443
O10   O     O_R   0.859900 0.152530 0.664480 -0.544409
O11   O     O_R   0.859900 0.152530 0.835520 -0.561442
O12   O     O_R   0.140100 0.847470 0.164480 -0.544400
O13   O     O_R   0.640100 0.652530 0.164480 -0.561458
O14   O     O_R   0.359900 0.347470 0.835520 -0.544411
O15   O     O_R   0.359900 0.347470 0.664480 -0.561458
O16   O     O_R   0.640100 0.652530 0.335520 -0.544403
C1    C     C_R   0.310750 0.869929 0.364124 0.758263
C2    C     C_R   0.689215 0.128866 0.637092 0.765851
C3    C     C_R   0.689248 0.130065 0.864119 0.758376
C4    C     C_R   0.310785 0.871142 0.137098 0.765830
C5    C     C_R   0.810752 0.630063 0.135881 0.758318
C6    C     C_R   0.189214 0.371145 0.862899 0.765814
C7    C     C_R   0.189247 0.369931 0.635878 0.758294
C8    C     C_R   0.810787 0.628862 0.362904 0.765869
O17   O     O_3   0.303300 0.689750 0.250000 -0.370951
O18   O     O_3   0.696700 0.310250 0.750000 -0.370986
O19   O     O_3   0.803300 0.810250 0.250000 -0.371001
O20   O     O_3   0.196700 0.189750 0.750000 -0.370935
V1    V     V_3+5 0.028490 0.761170 0.250000 1.485514
V2    V     V_3+5 0.971510 0.238830 0.750000 1.485556
V3    V     V_3+5 0.528490 0.738830 0.250000 1.485457
V4    V     V_3+5 0.471510 0.261170 0.750000 1.485559
C9    C     C_2   0.827769 0.557017 0.428085 -0.423406
C10   C     C_2   0.172340 0.439456 0.568356 -0.434292
C11   C     C_2   0.172232 0.442999 0.928074 -0.423398
C12   C     C_2   0.827663 0.560531 0.068364 -0.434321
C13   C     C_2   0.327763 0.942986 0.071914 -0.423450
C14   C     C_2   0.672337 0.060536 0.931638 -0.434381
C15   C     C_2   0.672239 0.057026 0.571905 -0.423408
C16   C     C_2   0.327647 0.939454 0.431646 -0.434298
C17   C     C_2   0.991711 0.545211 0.473637 0.358459
C18   C     C_2   0.998800 0.473589 0.540830 0.356251
C19   C     C_2   0.008303 0.454791 0.973636 0.358465
C20   C     C_2   0.001209 0.526408 0.040833 0.356255
C21   C     C_2   0.491707 0.954791 0.026364 0.358452
C22   C     C_2   0.498795 0.026395 0.959156 0.356255
C23   C     C_2   0.508282 0.045210 0.526365 0.358469
C24   C     C_2   0.501185 0.973580 0.459181 0.356238
O21   O     O_3   0.826635 0.441212 0.574917 -0.565083
C25   C     C_3   0.732108 0.514469 0.617583 0.091175
H1    H     H_    0.586989 0.488494 0.635843 0.145178
H2    H     H_    0.703925 0.576483 0.578696 0.087472
C26   C     C_3   0.841640 0.543097 0.694863 -0.299231
H3    H     H_    0.845680 0.483318 0.737965 0.222382
H4    H     H_    0.993148 0.563537 0.680867 0.164726
C27   C     C_3   0.743082 0.626163 0.735203 -0.882720
H5    H     H_    0.733823 0.686575 0.692824 0.237505
H6    H     H_    0.829551 0.647903 0.788736 0.240881
H7    H     H_    0.594429 0.605804 0.754369 0.240245
O22   O     O_3   0.152618 0.601643 0.459008 -0.562148
C28   C     C_3   0.173841 0.668508 0.522016 0.067596
H8    H     H_    0.313455 0.705764 0.511876 0.137186
H9    H     H_    0.186840 0.634229 0.582248 0.093544
C29   C     C_3   0.009511 0.742010 0.522159 -0.298721
H10   H     H_    0.006262 0.779970 0.463722 0.223571
H11   H     H_    0.866438 0.708019 0.530803 0.172281
C30   C     C_3   0.035459 0.812262 0.590284 -0.867929
H12   H     H_    0.036613 0.774384 0.649008 0.243599
H13   H     H_    0.912372 0.862379 0.590409 0.242197
H14   H     H_    0.172871 0.851812 0.582193 0.243023
O23   O     O_3   0.173370 0.558796 0.074920 -0.565079
C31   C     C_3   0.267960 0.485541 0.117565 0.091199
H15   H     H_    0.413051 0.511539 0.135838 0.145202
H16   H     H_    0.296211 0.423554 0.078658 0.087486
C32   C     C_3   0.158458 0.456854 0.194832 -0.299290
H17   H     H_    0.154386 0.516608 0.237957 0.222352
H18   H     H_    0.006960 0.436399 0.180830 0.164741
C33   C     C_3   0.257078 0.373780 0.235135 -0.882732
H19   H     H_    0.266354 0.313393 0.192732 0.237545
H20   H     H_    0.170644 0.351999 0.288661 0.240867
H21   H     H_    0.405728 0.394147 0.254302 0.240227
O24   O     O_3   0.847416 0.398339 0.959017 -0.562151
C34   C     C_3   0.826295 0.331451 0.022014 0.067638
H22   H     H_    0.686736 0.294146 0.011868 0.137170
H23   H     H_    0.813238 0.365721 0.082247 0.093522
C35   C     C_3   0.990741 0.258004 0.022154 -0.298772
H24   H     H_    0.994045 0.220045 0.963716 0.223568
H25   H     H_    0.133762 0.292043 0.030805 0.172259
C36   C     C_3   0.964907 0.187737 0.090274 -0.867710
H26   H     H_    0.963368 0.225637 0.149003 0.243605
H27   H     H_    0.088274 0.137747 0.090475 0.242101
H28   H     H_    0.827677 0.148022 0.082093 0.242989
O25   O     O_3   0.326636 0.058757 0.925049 -0.565066
C37   C     C_3   0.232075 0.985483 0.882421 0.091212
H29   H     H_    0.086978 0.011465 0.864136 0.145175
H30   H     H_    0.203835 0.923510 0.921340 0.087499
C38   C     C_3   0.341599 0.956773 0.805170 -0.299347
H31   H     H_    0.345642 0.016502 0.762025 0.222312
H32   H     H_    0.493106 0.936343 0.819179 0.164792
C39   C     C_3   0.243022 0.873673 0.764897 -0.882800
H33   H     H_    0.233828 0.813300 0.807312 0.237555
H34   H     H_    0.329433 0.851892 0.711364 0.240895
H35   H     H_    0.094340 0.894009 0.745749 0.240229
O26   O     O_3   0.652628 0.898376 0.041015 -0.562146
C40   C     C_3   0.673902 0.831501 0.978020 0.067667
H36   H     H_    0.813498 0.794241 0.988189 0.137184
H37   H     H_    0.686971 0.865774 0.917789 0.093527
C41   C     C_3   0.509565 0.758006 0.977853 -0.298799
H38   H     H_    0.506256 0.720048 0.036289 0.223580
H39   H     H_    0.366509 0.792001 0.969182 0.172300
C42   C     C_3   0.535564 0.687750 0.909738 -0.867948
H40   H     H_    0.536818 0.725630 0.851010 0.243632
H41   H     H_    0.412447 0.637648 0.909589 0.242181
H42   H     H_    0.672953 0.648183 0.917866 0.243015
O27   O     O_3   0.673355 0.941200 0.425103 -0.565098
C43   C     C_3   0.767778 0.014442 0.382375 0.091159
H43   H     H_    0.912921 0.988485 0.364125 0.145204
H44   H     H_    0.795897 0.076508 0.421216 0.087404
C44   C     C_3   0.658156 0.042962 0.305082 -0.299138
H45   H     H_    0.653944 0.983094 0.262063 0.222487
H46   H     H_    0.506704 0.063486 0.319102 0.164617
C45   C     C_3   0.756771 0.125920 0.264581 -0.882450
H47   H     H_    0.766160 0.186429 0.306868 0.237416
H48   H     H_    0.670261 0.147565 0.211025 0.240813
H49   H     H_    0.905373 0.105469 0.245404 0.240250
O28   O     O_3   0.347380 0.101647 0.540993 -0.562152
C46   C     C_3   0.326174 0.168511 0.477983 0.067588
H50   H     H_    0.186558 0.205769 0.488117 0.137183
H51   H     H_    0.313185 0.134231 0.417751 0.093546
C47   C     C_3   0.490505 0.242011 0.477845 -0.298731
H52   H     H_    0.493743 0.279970 0.536282 0.223570
H53   H     H_    0.633579 0.208020 0.469204 0.172282
C48   C     C_3   0.464572 0.312264 0.409720 -0.868034
H54   H     H_    0.463503 0.274400 0.350993 0.243595
H55   H     H_    0.587606 0.362394 0.409622 0.242216
H56   H     H_    0.327141 0.351789 0.417792 0.243028
H57   H     H_    0.306316 0.464565 0.541301 0.130530
H58   H     H_    0.699845 0.515242 0.441024 0.127636
H59   H     H_    0.693689 0.535412 0.041310 0.130514
H60   H     H_    0.300142 0.484790 0.941002 0.127625
H61   H     H_    0.806312 0.035434 0.958702 0.130479
H62   H     H_    0.199833 0.984756 0.058969 0.127663
H63   H     H_    0.193666 0.964572 0.458694 0.130543
H64   H     H_    0.800171 0.015260 0.558955 0.127687

loop_
_geom_bond_atom_site_label_1
_geom_bond_atom_site_label_2
_ccdc_geom_bond_type
O17   V3    S    
O18   V4    S    
O28   C46   S    
O12   V1    S    
O19   V1    S    
C17   C18   S    
C26   H4    S    
C42   H40   S    
C10   C18   D    
C32   H17   S    
C38   H31   S    
O15   V4    S    
C5    C12   S    
C21   C22   S    
C43   H43   S    
O16   V3    S    
C6    C11   S    
C40   H37   S    
O11   C3    A    
O25   C37   S    
O3    C2    A    
O8    V1    S    
C22   O25   S    
C3    C14   S    
C33   H20   S    
C26   C27   S    
O27   C43   S    
O1    V3    S    
C41   H38   S    
C20   O23   S    
O2    V4    S    
C28   H9    S    
C2    C15   S    
C34   H22   S    
O11   V2    S    
C43   H44   S    
C48   H56   S    
C25   H2    S    
C36   H27   S    
C11   C19   D    
O9    V1    S    
O15   C7    A    
O16   C8    A    
O7    V2    S    
C28   H8    S    
C31   C32   S    
O26   C40   S    
C38   H32   S    
C25   H1    S    
O5    V1    S    
C44   H46   S    
O17   V1    S    
C40   C41   S    
C25   C26   S    
C13   H62   S    
O19   V3    S    
C30   H12   S    
C29   C30   S    
O20   V4    S    
C31   H16   S    
C35   H24   S    
C37   C38   S    
C32   C33   S    
C26   H3    S    
O24   C34   S    
C39   H35   S    
O22   C28   S    
C30   H13   S    
C1    C16   S    
C29   H11   S    
C28   C29   S    
C47   H53   S    
C19   C20   S    
C46   H51   S    
C21   O26   S    
C11   H60   S    
O10   V2    S    
C23   C24   S    
C9    H58   S    
C7    C10   S    
O12   C4    A    
C39   H34   S    
O8    C5    A    
O13   C5    A    
C37   H29   S    
C42   H41   S    
C41   C42   S    
C36   H28   S    
C37   H30   S    
C32   H18   S    
C41   H39   S    
C24   O27   S    
O4    C1    A    
O9    C1    A    
C34   H23   S    
O18   V2    S    
C48   H54   S    
C14   H61   S    
C12   C20   D    
C47   C48   S    
C27   H5    S    
C45   H48   S    
C46   H50   S    
C38   C39   S    
C23   O28   S    
C15   C23   D    
C44   C45   S    
C16   C24   D    
O1    C4    A    
O6    V2    S    
O2    C3    A    
C33   H19   S    
O13   V3    S    
C17   O22   S    
O14   V4    S    
C31   H15   S    
C35   C36   S    
C44   H45   S    
C43   C44   S    
O7    C6    A    
C40   H36   S    
C10   H57   S    
C8    C9    S    
C27   H7    S    
C30   H14   S    
C9    C17   D    
C29   H10   S    
O14   C6    A    
C45   H49   S    
O20   V2    S    
C47   H52   S    
C45   H47   S    
C46   C47   S    
O23   C31   S    
C4    C13   S    
C33   H21   S    
O5    C8    A    
O10   C2    A    
O6    C7    A    
C39   H33   S    
C27   H6    S    
C42   H42   S    
C35   H25   S    
O3    V4    S    
C12   H59   S    
C14   C22   D    
O4    V3    S    
C18   O21   S    
C34   C35   S    
C15   H64   S    
O21   C25   S    
C16   H63   S    
C48   H55   S    
C19   O24   S    
C36   H26   S    
C13   C21   D    
