data_mof_unit_16027.cif
_audit_creation_date              2012-12-11T14:15:43-0500
_audit_creation_method            fapswitch 2.2
_symmetry_space_group_name_H-M    P1
_symmetry_Int_Tables_number       1
_space_group_crystal_system       triclinic
_cell_length_a                    11.162685
_cell_length_b                    12.679497
_cell_length_c                    23.527446
_cell_angle_alpha                 90.537939
_cell_angle_beta                  96.993899
_cell_angle_gamma                 68.630155
_cell_volume                      3075.78423467

loop_
_atom_site_label
_atom_site_type_symbol
_atom_type_description
_atom_site_fract_x
_atom_site_fract_y
_atom_site_fract_z
_atom_type_partial_charge
C1    C     C_R   0.149282 0.616880 0.428849 0.541324
C2    C     C_2   0.178224 0.236182 0.225722 0.378739
C3    C     C_2   0.158419 0.166240 0.262936 -0.109096
C4    C     C_R   0.751997 0.602727 0.403125 0.546246
C5    C     C_1   0.133107 0.199964 0.320450 0.001562
C6    C     C_1   0.209373 0.199308 0.169237 -0.009974
C7    C     C_1   0.115660 0.232812 0.368184 0.011324
C8    C     C_1   0.167903 0.749234 0.123617 0.013626
C9    C     C_2   0.142683 0.688026 0.227753 -0.086709
C10   C     C_2   0.235944 0.676802 0.271635 -0.100672
C11   C     C_1   0.217122 0.653135 0.329214 -0.024966
C12   C     C_R   0.687246 0.544221 0.308206 -0.127700
C13   C     C_1   0.155540 0.719983 0.170615 -0.026893
C14   C     C_1   0.193257 0.635417 0.376155 0.013626
C15   C     C_1   0.537228 0.791208 0.851737 -0.034320
C16   C     C_R   0.100931 0.282460 0.423281 0.545583
C17   C     C_2   0.573293 0.774965 0.742290 0.265378
C18   C     C_2   0.619552 0.671330 0.721191 -0.085084
C19   C     C_1   0.656284 0.654011 0.664210 -0.009104
C20   C     C_1   0.553586 0.784979 0.801951 -0.059799
C21   C     C_1   0.693337 0.634706 0.617877 0.005388
C22   C     C_R   0.193481 0.184801 0.855949 -0.009687
C23   C     C_R   0.721103 0.722583 0.315823 -0.139546
C24   C     C_R   0.103496 0.242265 0.643827 -0.056542
C25   C     C_R   0.018110 0.163413 0.715079 0.364369
C26   C     C_R   0.020826 0.188534 0.657872 -0.102046
C27   C     C_R   0.176452 0.277879 0.686763 -0.149781
C28   C     C_R   0.152307 0.617588 0.589977 0.561858
C29   C     C_R   0.171787 0.256350 0.743568 -0.018255
C30   C     C_R   0.095884 0.194922 0.758139 0.044313
C31   C     C_R   0.105835 0.160824 0.815021 -0.105427
C32   C     C_R   0.255798 0.257221 0.842249 -0.113806
C33   C     C_R   0.245395 0.292635 0.785914 -0.123805
C34   C     C_R   0.716103 0.729459 0.256415 -0.052156
C35   C     C_R   0.130834 0.757568 0.847779 0.018987
C36   C     C_R   0.201774 0.640763 0.647007 0.016359
C37   C     C_R   0.307826 0.562707 0.741334 -0.130756
C38   C     C_R   0.296720 0.553724 0.682020 -0.221876
C39   C     C_R   0.129494 0.741694 0.671139 0.360092
C40   C     C_R   0.749698 0.602046 0.565907 0.541583
C41   C     C_R   0.128785 0.744667 0.729780 -0.045887
C42   C     C_R   0.218732 0.655241 0.765638 -0.005517
C43   C     C_R   0.218825 0.661542 0.824807 0.319405
C44   C     C_R   0.029376 0.838512 0.810924 0.180941
C45   C     C_R   0.707428 0.637919 0.223308 0.066436
C46   C     C_R   0.033716 0.833376 0.752341 -0.089293
C47   C     C_R   0.265995 0.110022 0.069459 0.551346
C48   C     C_R   0.602868 0.773834 0.080505 0.574108
C49   C     C_R   0.189762 0.787571 0.069784 0.542646
C50   C     C_R   0.240225 0.116152 0.908328 0.536832
C51   C     C_R   0.513347 0.798152 0.910396 0.556696
C52   C     C_R   0.099130 0.281313 0.585905 0.538483
C53   C     C_R   0.164440 0.788093 0.906070 0.576022
C54   C     C_R   0.679241 0.750644 0.137238 0.006750
C55   C     C_R   0.709890 0.628498 0.341989 -0.034039
C56   C     C_R   0.704738 0.645196 0.164143 0.401823
C57   C     C_R   0.692816 0.544792 0.249592 0.270566
C58   C     C_3   0.425357 0.929624 0.690779 0.007851
C59   C     C_3   0.380719 0.876396 0.637359 -0.270638
C60   C     C_3   0.245456 0.950373 0.610072 -0.444298
C61   C     C_3   0.815422 0.938583 0.820235 0.037410
C62   C     C_3   0.723983 0.055052 0.835542 -0.237979
C63   C     C_3   0.582056 0.069266 0.820980 -0.462169
C64   C     C_3   0.777704 0.360876 0.223834 0.051771
C65   C     C_3   0.748151 0.271095 0.187080 -0.232774
C66   C     C_3   0.864881 0.160011 0.190381 -0.487558
C67   C     C_R   0.693806 0.839515 0.169767 -0.195260
C68   C     C_R   0.717330 0.827078 0.229351 -0.162955
C69   C     C_1   0.235678 0.163423 0.122785 -0.021953
Cr1   Cr    Cr6+3 0.189770 0.415650 0.511620 1.036225
Cr2   Cr    Cr6+3 0.930400 0.667320 0.496770 1.069323
Cr3   Cr    Cr6+3 0.879870 0.417010 0.491650 1.032732
Cr4   Cr    Cr6+3 0.149500 0.973980 0.985330 1.040949
Cr5   Cr    Cr6+3 0.457000 0.976510 0.994660 1.017764
Cr6   Cr    Cr6+3 0.411170 0.724270 0.995270 1.127045
F1    F     F_    0.711651 0.553829 0.132006 -0.591162
F2    F     F_    0.939753 0.109237 0.728245 -0.651614
F3    F     F_    0.309202 0.578113 0.859799 -0.632780
F4    F     F_    0.047209 0.832147 0.637542 -0.639889
F5    F     F_    0.171540 0.341829 0.240851 -0.612439
H1    H     H_    0.053502 0.676995 0.234896 0.155217
H2    H     H_    0.963230 0.900796 0.724565 0.248696
H3    H     H_    0.356005 0.476083 0.663982 0.140097
H4    H     H_    0.724976 0.897293 0.254174 0.130681
H5    H     H_    0.673249 0.473083 0.327589 0.150364
H6    H     H_    0.736686 0.788822 0.341651 0.138896
H7    H     H_    0.164305 0.081793 0.250744 0.062446
H8    H     H_    0.324719 0.688854 0.264807 0.139557
H9    H     H_    0.413170 0.018091 0.679325 0.161629
H10   H     H_    0.362506 0.935421 0.725042 0.125936
H11   H     H_    0.449525 0.864364 0.605305 0.183461
H12   H     H_    0.634557 0.596833 0.747759 0.100663
H13   H     H_    0.379381 0.792331 0.649358 0.162794
H14   H     H_    0.175965 0.966314 0.641948 0.211605
H15   H     H_    0.213848 0.906563 0.573510 0.186075
H16   H     H_    0.245920 0.032085 0.593841 0.141794
H17   H     H_    0.803124 0.871999 0.846892 0.141830
H18   H     H_    0.789004 0.925822 0.774184 0.166409
H19   H     H_    0.744042 0.067010 0.882123 0.173894
H20   H     H_    0.742008 0.121703 0.811448 0.214227
H21   H     H_    0.559395 0.057808 0.774601 0.180840
H22   H     H_    0.520450 0.155992 0.831403 0.150734
H23   H     H_    0.056307 0.106109 0.826267 0.210224
H24   H     H_    0.559512 0.007437 0.846521 0.180828
H25   H     H_    0.803115 0.328640 0.269304 0.110454
H26   H     H_    0.862076 0.375360 0.209253 0.190555
H27   H     H_    0.665409 0.254939 0.201989 0.178309
H28   H     H_    0.719894 0.302973 0.141697 0.217954
H29   H     H_    0.946222 0.172975 0.172451 0.157809
H30   H     H_    0.838110 0.095883 0.164930 0.155398
H31   H     H_    0.896623 0.127275 0.235505 0.145788
H32   H     H_    0.320953 0.278441 0.874272 0.156529
H33   H     H_    0.301309 0.341892 0.775063 0.123928
H34   H     H_    0.959640 0.165542 0.624641 0.160485
H35   H     H_    0.234987 0.325172 0.676072 0.145155
H36   H     H_    0.677624 0.920859 0.149642 0.146938
H37   H     H_    0.380401 0.494456 0.767920 0.177553
O1    O     O_R   0.196340 0.303200 0.448500 -0.493886
O2    O     O_R   0.555390 0.700940 0.062700 -0.425244
O3    O     O_R   0.295020 0.731920 0.049950 -0.482372
O4    O     O_R   0.199310 0.519670 0.454880 -0.487750
O5    O     O_R   0.094290 0.884230 0.921550 -0.469943
O6    O     O_R   0.168980 0.069410 0.926940 -0.498561
O7    O     O_R   0.358400 0.089990 0.927950 -0.527178
O8    O     O_R   0.544850 0.873850 0.939920 -0.506633
O9    O     O_R   0.536020 0.701900 0.936430 -0.464953
O10   O     O_R   0.277070 0.732810 0.932890 -0.455712
O11   O     O_3   0.339220 0.891590 0.991750 -0.295810
O12   O     O_R   0.811960 0.658090 0.547150 -0.481040
O13   O     O_R   0.045660 0.691380 0.441680 -0.515023
O14   O     O_R   0.811930 0.659460 0.430950 -0.501557
O15   O     O_R   0.757900 0.507620 0.421760 -0.520114
O16   O     O_R   0.988630 0.322990 0.439840 -0.501879
O17   O     O_R   0.196380 0.301720 0.573850 -0.518175
O18   O     O_R   0.199350 0.518300 0.571080 -0.522748
O19   O     O_R   0.045700 0.689900 0.567030 -0.426530
O20   O     O_3   0.558590 0.870194 0.709520 -0.565511
O21   O     O_3   0.943720 0.935670 0.831811 -0.527784
O22   O     O_3   0.666882 0.461827 0.217446 -0.507284
O23   O     O_R   0.757930 0.506140 0.547110 -0.508231
O24   O     O_R   0.988670 0.321620 0.556040 -0.494242
O25   O     O_3   0.000020 0.499990 0.500010 -0.257250
O26   O     O_R   0.113660 0.883270 0.047820 -0.516063
O27   O     O_R   0.186930 0.068530 0.043990 -0.495371
O28   O     O_R   0.377770 0.089040 0.054220 -0.500829
O29   O     O_R   0.562800 0.872960 0.056970 -0.515359

loop_
_geom_bond_atom_site_label_1
_geom_bond_atom_site_label_2
_ccdc_geom_bond_type
C24   C52   S    
C6    C69   T    
Cr5   O7    S    
C40   O12   A    
C47   O28   A    
C8    C13   T    
C56   F1    S    
C38   H3    S    
C35   C53   S    
C28   O18   A    
C52   O17   A    
C41   C42   A    
Cr5   O28   S    
C61   H18   S    
C24   C27   A    
C63   H21   S    
C64   H25   S    
C39   C41   A    
C43   F3    S    
Cr3   O25   S    
C45   C57   A    
C37   C38   A    
C22   C32   A    
C12   H5    S    
C25   F2    S    
C19   C21   T    
C24   C26   A    
C18   C19   S    
C53   O5    A    
C30   C31   A    
C11   C14   T    
C61   O21   S    
C49   O3    A    
C27   C29   A    
C29   C33   A    
C17   C20   S    
C57   O22   S    
Cr6   O11   S    
C37   C42   A    
C9    C13   S    
C47   C69   S    
C53   O10   A    
C46   H2    S    
Cr5   O11   S    
C45   C56   A    
Cr4   O6    S    
C23   H6    S    
C48   O29   A    
C41   C46   A    
C15   C51   S    
C66   H31   S    
C48   O2    A    
C29   C30   A    
C35   C43   A    
C9    C10   D    
C65   H28   S    
C22   C50   S    
Cr4   O27   S    
C31   H23   S    
C59   C60   S    
C2    C6    S    
C63   H22   S    
C16   O16   A    
C44   C46   A    
Cr3   O15   S    
C4    O14   A    
Cr3   O24   S    
C54   C56   A    
Cr1   O25   S    
C22   C31   A    
Cr6   O3    S    
C3    H7    S    
C67   C68   A    
C68   H4    S    
Cr6   O2    S    
C4    O15   A    
C1    O13   A    
C34   C68   A    
Cr2   O19   S    
C5    C7    T    
C54   C67   A    
C58   C59   S    
C47   O27   A    
C15   C20   T    
C51   O8    A    
C48   C54   S    
C67   H36   S    
C26   H34   S    
C62   C63   S    
C16   O1    A    
Cr2   O12   S    
C23   C34   A    
C10   H8    S    
C17   C18   D    
C50   O7    A    
C34   C45   A    
C59   H11   S    
C66   H30   S    
C23   C55   A    
C35   C44   A    
C58   H10   S    
Cr2   O25   S    
C62   H20   S    
C12   C57   A    
C60   H16   S    
C58   O20   S    
C7    C16   S    
C65   C66   S    
C4    C55   S    
Cr1   O18   S    
C42   C43   A    
Cr4   O26   S    
C25   C30   A    
C44   O21   S    
C32   H32   S    
C28   O19   A    
C51   O9    A    
Cr5   O29   S    
C36   C39   A    
C61   H17   S    
C50   O6    A    
C63   H24   S    
C3    C5    S    
C64   H26   S    
Cr4   O11   S    
C33   H33   S    
C52   O24   A    
C27   H35   S    
Cr6   O9    S    
C18   H12   S    
C64   C65   S    
C36   C38   A    
C2    C3    D    
C25   C26   A    
C32   C33   A    
Cr2   O13   S    
Cr1   O4    S    
Cr3   O16   S    
C21   C40   S    
Cr1   O1    S    
C49   O26   A    
C40   O23   A    
Cr6   O10   S    
C66   H29   S    
C61   C62   S    
C58   H9    S    
C1    O4    A    
C12   C55   A    
C2    F5    S    
C10   C11   S    
Cr2   O14   S    
C62   H19   S    
Cr5   O8    S    
C60   H15   S    
Cr3   O23   S    
C37   H37   S    
C28   C36   S    
Cr4   O5    S    
C9    H1    S    
Cr1   O17   S    
C17   O20   S    
C1    C14   S    
C59   H13   S    
C8    C49   S    
C65   H27   S    
C39   F4    S    
C64   O22   S    
C60   H14   S    
