data_mof_unit_19005.cif
_audit_creation_date              2012-12-10T16:55:01-0500
_audit_creation_method            fapswitch 2.2
_symmetry_space_group_name_H-M    P1
_symmetry_Int_Tables_number       1
_space_group_crystal_system       triclinic
_cell_length_a                    7.787559
_cell_length_b                    8.575301
_cell_length_c                    15.721617
_cell_angle_alpha                 90.967778
_cell_angle_beta                  85.434503
_cell_angle_gamma                 93.675386
_cell_volume                      1044.34280167

loop_
_atom_site_label
_atom_site_type_symbol
_atom_type_description
_atom_site_fract_x
_atom_site_fract_y
_atom_site_fract_z
_atom_type_partial_charge
C1    C     C_R   0.545754 0.794686 0.497838 0.959447
C2    C     C_2   0.430215 0.041782 0.503492 -0.382563
C3    C     C_R   0.501329 0.500084 0.661561 0.905483
C4    C     C_R   0.454247 0.205315 0.502207 0.960056
C5    C     C_R   0.498648 0.499965 0.338429 0.904506
C6    C     C_3   0.330450 0.574540 0.958854 0.047450
C7    C     C_3   0.653770 0.604290 0.945768 -0.483144
C8    C     C_3   0.650585 0.607132 0.044242 -0.408978
C9    C     C_1   0.496149 0.500513 0.249642 -0.183402
C10   C     C_3   0.497129 0.501346 0.917346 0.359359
C11   C     C_3   0.155310 0.524537 0.922607 -0.407658
C12   C     C_3   0.324727 0.561621 0.057241 -0.416182
C13   C     C_3   0.102942 0.349699 0.923232 -0.864715
C14   C     C_3   0.496068 0.500991 0.082906 0.336735
C15   C     C_3   0.512143 0.332881 0.047506 -0.406164
C16   C     C_3   0.516193 0.333297 0.949394 -0.380286
C17   C     C_1   0.495918 0.500815 0.174315 -0.114858
C18   C     C_1   0.501484 0.500674 0.825739 -0.119399
C19   C     C_1   0.503420 0.500174 0.750343 -0.188912
C20   C     C_2   0.569786 0.958222 0.496625 -0.382028
H1    H     H_    0.304638 0.678621 0.086890 0.142365
H2    H     H_    0.651450 0.725739 0.922103 0.165865
H3    H     H_    0.639681 0.729244 0.068262 0.168928
H4    H     H_    0.774137 0.566254 0.063992 0.178267
H5    H     H_    0.416022 0.248174 0.927485 0.173440
H6    H     H_    0.641258 0.290473 0.922341 0.158168
H7    H     H_    0.401299 0.255041 0.073752 0.163038
H8    H     H_    0.173000 0.289812 0.869209 0.255360
H9    H     H_    0.125784 0.295773 0.984596 0.252938
H10   H     H_    0.963264 0.332122 0.913978 0.236812
H11   H     H_    0.053737 0.586275 0.960751 0.195505
H12   H     H_    0.214490 0.482266 0.082427 0.180352
H13   H     H_    0.155747 0.566715 0.856102 0.210415
H14   H     H_    0.632277 0.284840 0.067168 0.170255
H15   H     H_    0.701596 0.009318 0.490076 0.180641
H16   H     H_    0.298405 0.990687 0.510049 0.180508
H17   H     H_    0.013390 0.381651 0.436467 0.191295
H18   H     H_    0.986611 0.618335 0.563543 0.190935
H19   H     H_    0.346801 0.702116 0.945154 0.102200
H20   H     H_    0.775682 0.557444 0.917828 0.188990
N1    N     N_2   0.950340 0.457950 0.477370 -0.173383
N2    N     N_2   0.049660 0.542050 0.522630 -0.173478
O1    O     O_R   0.389240 0.738570 0.505550 -0.613212
O2    O     O_R   0.678400 0.711630 0.491050 -0.630774
O3    O     O_R   0.355360 0.513470 0.630110 -0.614582
O4    O     O_R   0.644510 0.486530 0.615610 -0.620969
O5    O     O_R   0.321600 0.288370 0.508950 -0.630528
O6    O     O_R   0.610760 0.261430 0.494450 -0.612881
O7    O     O_R   0.355490 0.513470 0.384390 -0.621621
O8    O     O_R   0.644640 0.486530 0.369890 -0.613426
Zn1   Zn    Zn3+2 0.306930 0.517990 0.509680 0.941467
Zn2   Zn    Zn3+2 0.693070 0.482010 0.490320 0.942366

loop_
_geom_bond_atom_site_label_1
_geom_bond_atom_site_label_2
_ccdc_geom_bond_type
C6    C10   S    
C7    C10   S    
O8    Zn2   S    
C7    H20   S    
C13   H8    S    
C5    C9    S    
C7    H2    S    
N1    N2    D    
C1    O2    A    
C2    C4    S    
C11   H13   S    
N2    Zn1   S    
O1    Zn1   S    
O2    Zn2   S    
C11   H11   S    
C7    C8    S    
C10   C16   S    
C12   H12   S    
C3    C19   S    
C11   C13   S    
C14   C17   S    
C5    O7    A    
C10   C18   S    
C6    C12   S    
C13   H9    S    
C8    H4    S    
C12   C14   S    
H18   N2    S    
C6    C11   S    
H17   N1    S    
C5    O8    A    
O3    Zn1   S    
C3    O4    A    
C2    C20   D    
C15   C16   S    
C15   H14   S    
O4    Zn2   S    
C13   H10   S    
O6    Zn2   S    
C8    H3    S    
C2    H16   S    
C18   C19   T    
C4    O6    A    
C9    C17   T    
C16   H5    S    
C3    O3    A    
C6    H19   S    
C4    O5    A    
C1    C20   S    
C8    C14   S    
N1    Zn2   S    
C14   C15   S    
C20   H15   S    
C15   H7    S    
C12   H1    S    
C1    O1    A    
O5    Zn1   S    
O7    Zn1   S    
C16   H6    S    
