data_mof_unit_40350.cif
_audit_creation_date              2012-12-11T17:44:06-0500
_audit_creation_method            fapswitch 2.2
_symmetry_space_group_name_H-M    P1
_symmetry_Int_Tables_number       1
_space_group_crystal_system       triclinic
_cell_length_a                    20.219932
_cell_length_b                    22.812494
_cell_length_c                    6.935899
_cell_angle_alpha                 90.000041
_cell_angle_beta                  86.882097
_cell_angle_gamma                 90.000015
_cell_volume                      3194.5660106

loop_
_atom_site_label
_atom_site_type_symbol
_atom_type_description
_atom_site_fract_x
_atom_site_fract_y
_atom_site_fract_z
_atom_type_partial_charge
O1    O     O_R   0.751270 0.447300 0.600030 -0.541370
O2    O     O_R   0.248730 0.947300 0.399970 -0.541370
O3    O     O_R   0.613530 0.440160 0.952150 -0.533902
O4    O     O_R   0.386470 0.940160 0.047850 -0.533902
O5    O     O_R   0.613050 0.552700 0.122560 -0.534742
O6    O     O_R   0.386950 0.052700 0.877440 -0.534742
C1    C     C_R   0.592637 0.424353 0.786169 0.709880
C2    C     C_R   0.407362 0.924353 0.213831 0.709882
O7    O     O_R   0.750780 0.440350 0.929820 -0.547665
O8    O     O_R   0.249220 0.940350 0.070180 -0.547665
O9    O     O_R   0.751280 0.552900 0.100070 -0.540347
O10   O     O_R   0.248720 0.052900 0.899930 -0.540347
C3    C     C_R   0.774673 0.426846 0.757387 0.672140
C4    C     C_R   0.225327 0.926846 0.242613 0.672139
O11   O     O_R   0.613040 0.447100 0.622520 -0.539624
O12   O     O_R   0.386960 0.947100 0.377480 -0.539624
O13   O     O_3   0.682160 0.536920 0.777780 -0.365667
O14   O     O_3   0.317840 0.036920 0.222220 -0.365667
V1    V     V_3+5 0.682160 0.493150 0.052630 1.414138
V2    V     V_3+5 0.317840 0.993150 0.947370 1.414138
O15   O     O_R   0.750790 0.559840 0.429870 -0.544433
O16   O     O_R   0.249210 0.059840 0.570130 -0.544433
C5    C     C_R   0.773599 0.574437 0.257450 0.689951
C6    C     C_R   0.226401 0.074438 0.742550 0.689952
O17   O     O_R   0.613540 0.559650 0.452200 -0.537748
O18   O     O_R   0.386460 0.059650 0.547800 -0.537748
C7    C     C_R   0.591686 0.574265 0.287056 0.715435
C8    C     C_R   0.408314 0.074265 0.712944 0.715435
V3    V     V_3+5 0.682160 0.506850 0.552630 1.408053
V4    V     V_3+5 0.317840 0.006850 0.447370 1.408053
O19   O     O_3   0.682150 0.463080 0.277610 -0.370104
O20   O     O_3   0.317850 0.963080 0.722390 -0.370104
C9    C     C_R   0.577615 0.861432 0.240896 -0.129717
C10   C     C_R   0.422384 0.361431 0.759107 -0.129726
H1    H     H_    0.534358 0.946765 0.236777 0.132421
H2    H     H_    0.465641 0.446764 0.763225 0.132421
H3    H     H_    0.627112 0.879550 0.241841 0.171633
H4    H     H_    0.372888 0.379549 0.758163 0.171630
C11   C     C_R   0.460063 0.879391 0.219279 -0.147942
C12   C     C_R   0.539937 0.379391 0.780721 -0.147943
C13   C     C_R   0.473246 0.594957 0.338047 -0.255210
C14   C     C_R   0.526754 0.094957 0.661951 -0.255209
C15   C     C_R   0.421081 0.633109 0.381366 -0.198872
C16   C     C_R   0.578919 0.133109 0.618632 -0.198873
C17   C     C_R   0.430558 0.693721 0.371830 0.532806
C18   C     C_R   0.569442 0.193721 0.628168 0.532805
C19   C     C_R   0.491685 0.717144 0.294368 -0.014144
C20   C     C_R   0.508315 0.217143 0.705632 -0.014142
C21   C     C_R   0.546636 0.678087 0.271249 -0.063767
C22   C     C_R   0.453364 0.178086 0.728752 -0.063771
C23   C     C_R   0.501382 0.778465 0.257125 -0.053476
C24   C     C_R   0.498618 0.278465 0.742875 -0.053472
C25   C     C_R   0.567096 0.800678 0.247301 -0.023544
C26   C     C_R   0.432904 0.300677 0.752701 -0.023548
C27   C     C_R   0.621518 0.761963 0.241789 0.458477
C28   C     C_R   0.378482 0.261962 0.758215 0.458476
C29   C     C_R   0.610559 0.701329 0.239604 -0.249218
C30   C     C_R   0.389441 0.201328 0.760399 -0.249211
C31   C     C_R   0.448086 0.817411 0.220142 0.453376
C32   C     C_R   0.551914 0.317411 0.779858 0.453379
C33   C     C_R   0.524582 0.900041 0.235783 -0.251073
C34   C     C_R   0.475418 0.400041 0.764219 -0.251070
C35   C     C_R   0.536637 0.616639 0.290544 -0.056254
C36   C     C_R   0.463363 0.116638 0.709456 -0.056253
H5    H     H_    0.465125 0.548227 0.354959 0.132052
H6    H     H_    0.534875 0.048227 0.645039 0.132052
C37   C     C_R   0.170221 0.883288 0.260888 -0.053659
C38   C     C_R   0.829779 0.383289 0.739112 -0.053658
C39   C     C_R   0.142582 0.859489 0.095989 -0.222914
C40   C     C_R   0.857417 0.359488 0.904011 -0.222914
C41   C     C_R   0.090143 0.819217 0.113567 -0.138986
C42   C     C_R   0.909856 0.319217 0.886433 -0.138987
C43   C     C_R   0.063944 0.801604 0.297624 0.428036
C44   C     C_R   0.936057 0.301605 0.702376 0.428036
C45   C     C_R   0.091915 0.825051 0.461330 -0.180168
C46   C     C_R   0.908087 0.325053 0.538669 -0.180169
C47   C     C_R   0.144222 0.865318 0.443806 -0.196259
C48   C     C_R   0.855780 0.365320 0.556194 -0.196258
C49   C     C_R   0.907128 0.683685 0.386724 -0.147818
C50   C     C_R   0.092876 0.183690 0.613276 -0.147820
C51   C     C_R   0.855334 0.642771 0.404228 -0.231325
C52   C     C_R   0.144671 0.142776 0.595773 -0.231318
C53   C     C_R   0.932957 0.701691 0.202704 0.428446
C54   C     C_R   0.067043 0.201691 0.797296 0.428446
N1    N     N_2   0.010322 0.760878 0.325840 -0.308740
N2    N     N_2   0.989680 0.260880 0.674160 -0.308740
N3    N     N_2   0.986400 0.742598 0.174528 -0.308096
N4    N     N_2   0.013599 0.242598 0.825472 -0.308096
C55   C     C_R   0.827935 0.618745 0.239281 -0.047642
C56   C     C_R   0.172065 0.118746 0.760719 -0.047630
H7    H     H_    0.836957 0.629812 0.547447 0.134874
H8    H     H_    0.163051 0.129821 0.452553 0.134872
H9    H     H_    0.072836 0.812132 0.603959 0.120333
H10   H     H_    0.927168 0.312136 0.396041 0.120333
H11   H     H_    0.164145 0.882471 0.574139 0.133318
H12   H     H_    0.835858 0.382474 0.425860 0.133318
C57   C     C_R   0.853400 0.637273 0.056414 -0.183985
C58   C     C_R   0.146596 0.137270 0.943586 -0.183982
C59   C     C_R   0.905095 0.678152 0.038971 -0.175133
C60   C     C_R   0.094901 0.178149 0.961030 -0.175134
H13   H     H_    0.833592 0.620026 0.926049 0.131538
H14   H     H_    0.166400 0.120019 0.073952 0.131537
H15   H     H_    0.070322 0.802115 0.983089 0.134896
H16   H     H_    0.929677 0.302114 0.016911 0.134896
H17   H     H_    0.161289 0.872116 0.952754 0.133227
H18   H     H_    0.838709 0.372114 0.047246 0.133227
H19   H     H_    0.926844 0.700875 0.517225 0.136174
H20   H     H_    0.073164 0.200883 0.482775 0.136174
H21   H     H_    0.923885 0.691380 0.896369 0.118692
H22   H     H_    0.076108 0.191373 0.103632 0.118693
O21   O     O_3   0.685394 0.783713 0.216168 -0.555533
C61   C     C_3   0.720615 0.770988 0.381272 -0.237878
H23   H     H_    0.731407 0.723367 0.392025 0.138176
H24   H     H_    0.693719 0.786814 0.515790 0.137020
H25   H     H_    0.768888 0.794158 0.368390 0.176711
O22   O     O_3   0.314607 0.283711 0.783840 -0.555532
C62   C     C_3   0.279391 0.270999 0.618717 -0.237888
H26   H     H_    0.268618 0.223377 0.607884 0.138165
H27   H     H_    0.306283 0.286853 0.484231 0.137032
H28   H     H_    0.231108 0.294153 0.631635 0.176715
O23   O     O_3   0.393206 0.792471 0.138306 -0.560584
C63   C     C_3   0.332139 0.815459 0.210387 -0.160201
H29   H     H_    0.314139 0.846992 0.104571 0.124378
H30   H     H_    0.333694 0.834845 0.357487 0.123772
H31   H     H_    0.295404 0.779316 0.220085 0.178923
O24   O     O_3   0.606794 0.292471 0.861693 -0.560584
C64   C     C_3   0.667861 0.315459 0.789612 -0.160203
H32   H     H_    0.685861 0.346992 0.895428 0.124378
H33   H     H_    0.666306 0.334845 0.642512 0.123773
H34   H     H_    0.704596 0.279316 0.779913 0.178923
O25   O     O_3   0.381456 0.728872 0.455872 -0.558486
C65   C     C_3   0.397994 0.742601 0.645720 -0.238917
H35   H     H_    0.444521 0.768631 0.646594 0.137016
H36   H     H_    0.402239 0.702322 0.734893 0.153021
H37   H     H_    0.357780 0.769860 0.714087 0.181923
O26   O     O_3   0.618543 0.228872 0.544128 -0.558487
C66   C     C_3   0.602008 0.242599 0.354278 -0.238921
H38   H     H_    0.555481 0.268627 0.353397 0.137020
H39   H     H_    0.597766 0.202320 0.265109 0.153022
H40   H     H_    0.642222 0.269859 0.285912 0.181922
H41   H     H_    0.373737 0.615588 0.434296 0.145662
H42   H     H_    0.626262 0.115588 0.565701 0.145662
H43   H     H_    0.652957 0.672549 0.219870 0.118633
H44   H     H_    0.347043 0.172548 0.780133 0.118640

loop_
_geom_bond_atom_site_label_1
_geom_bond_atom_site_label_2
_ccdc_geom_bond_type
C31   O23   S    
C53   N3    S    
C60   H22   S    
O24   C64   S    
C21   C35   A    
O13   V3    S    
C25   C27   A    
O21   C61   S    
C37   C47   A    
O4    C2    A    
V1    O19   S    
C61   H24   S    
C12   C34   A    
C19   C21   A    
C66   H39   S    
O9    V1    S    
C44   C46   A    
C12   C32   A    
C22   C36   A    
C46   C48   A    
O3    C1    A    
C62   H27   S    
N2    N4    D    
O12   V4    S    
C59   H21   S    
C10   C34   A    
C52   H8    S    
O22   C62   S    
O17   V3    S    
O10   C6    A    
C17   C19   A    
C39   C41   A    
O7    C3    A    
C24   C32   A    
C46   H10   S    
O5    C7    A    
C9    C33   A    
O7    V1    S    
O6    C8    A    
O8    V2    S    
C65   H35   S    
C1    C12   S    
C5    C55   S    
O3    V1    S    
O14   V4    S    
C2    C11   S    
V4    O20   S    
C50   C54   A    
C51   C55   A    
C20   C22   A    
C2    O12   A    
C53   C59   A    
C9    C25   A    
C13   C15   A    
C14   C16   A    
H2    C34   S    
C61   H23   S    
C57   C59   A    
C24   C26   A    
O11   V3    S    
C18   C20   A    
N1    N3    D    
C38   C48   A    
C11   C33   A    
C66   H40   S    
C26   C28   A    
C17   O25   S    
C29   H43   S    
C54   C60   A    
C42   C44   A    
C40   H18   S    
C62   H28   S    
C48   H12   S    
C49   C51   A    
C39   H17   S    
C19   C23   A    
C1    O11   A    
C42   H16   S    
C58   H14   S    
O15   V3    S    
C47   H11   S    
C9    H3    S    
C55   C57   A    
C23   C25   A    
C22   C30   A    
C64   H33   S    
C45   C47   A    
C4    C37   S    
C11   C31   A    
O10   V2    S    
O1    V3    S    
C28   O22   S    
C49   H19   S    
H1    C33   S    
C27   C29   A    
C44   N2    S    
C15   C17   A    
C43   N1    S    
O23   C63   S    
C7    C35   S    
C8    C36   S    
C65   H36   S    
O18   V4    S    
C58   C60   A    
O15   C5    A    
O8    C4    A    
O16   C6    A    
C15   H41   S    
C23   C31   A    
C43   C45   A    
C63   H30   S    
O25   C65   S    
C14   C36   A    
C45   H9    S    
C41   C43   A    
V2    O20   S    
C41   H15   S    
O16   V4    S    
C27   O21   S    
C10   H4    S    
C54   N4    S    
O26   C66   S    
C6    C56   S    
C21   C29   A    
C13   H5    S    
C10   C26   A    
O5    V1    S    
O4    V2    S    
O17   C7    A    
O6    V2    S    
C66   H38   S    
C50   H20   S    
O18   C8    A    
C52   C56   A    
O2    V4    S    
C63   H31   S    
C32   O24   S    
C64   H34   S    
V3    O19   S    
C62   H26   S    
C49   C53   A    
C65   H37   S    
O9    C5    A    
O13   V1    S    
C50   C52   A    
C28   C30   A    
O14   V2    S    
C61   H25   S    
O2    C4    A    
C18   O26   S    
C51   H7    S    
C30   H44   S    
C20   C24   A    
O1    C3    A    
C16   H42   S    
C14   H6    S    
C38   C40   A    
C13   C35   A    
C40   C42   A    
C37   C39   A    
C63   H29   S    
C56   C58   A    
C16   C18   A    
C57   H13   S    
C64   H32   S    
C3    C38   S    
