data_mof_unit_8290.cif
_audit_creation_date              2012-10-26T19:20:15-0400
_audit_creation_method            fapswitch 2.2
_symmetry_space_group_name_H-M    P1
_symmetry_Int_Tables_number       1
_space_group_crystal_system       triclinic
_cell_length_a                    15.856651
_cell_length_b                    10.904385
_cell_length_c                    9.810759
_cell_angle_alpha                 90.807896
_cell_angle_beta                  90.830203
_cell_angle_gamma                 90.397688
_cell_volume                      1695.95917235

loop_
_atom_site_label
_atom_site_type_symbol
_atom_type_description
_atom_site_fract_x
_atom_site_fract_y
_atom_site_fract_z
_atom_type_partial_charge
C1    C     C_R   0.500946 0.265791 0.498952 0.573173
C2    C     C_2   0.483380 0.864892 0.506332 -0.119174
C3    C     C_2   0.465993 0.064573 0.402094 0.133186
C4    C     C_R   0.340200 0.499439 0.499136 0.538448
C5    C     C_2   0.510068 0.133574 0.495501 0.154726
C6    C     C_2   0.442758 0.451037 0.927133 0.268564
C7    C     C_2   0.433717 0.494090 0.072572 0.269778
C8    C     C_R   0.495991 0.733958 0.501076 0.544133
C9    C     C_R   0.659833 0.499513 0.500789 0.548826
C10   C     C_3   0.973351 0.409277 0.589081 0.010800
C11   C     C_3   0.026933 0.384353 0.461649 0.182599
C12   C     C_3   0.083463 0.495600 0.499168 0.027246
C13   C     C_1   0.250594 0.497865 0.497417 -0.043055
C14   C     C_1   0.749504 0.497475 0.502151 -0.039270
C15   C     C_3   0.029734 0.521903 0.626040 0.006571
C16   C     C_3   0.002410 0.170285 0.386203 -0.325967
C17   C     C_3   0.654731 0.069086 0.520369 -0.319192
C18   C     C_3   0.379602 0.249365 0.956278 -0.348376
C19   C     C_3   0.556456 0.597739 0.894911 -0.088981
C20   C     C_3   0.512192 0.720937 0.924125 -0.282872
C21   C     C_3   0.556338 0.792849 0.039331 -0.480912
C22   C     C_3   0.334294 0.649731 0.146982 -0.283889
C23   C     C_3   0.972219 0.606579 0.540152 -0.133578
C24   C     C_3   0.935603 0.317278 0.688504 -0.251691
C25   C     C_3   0.003035 0.243210 0.764181 -0.301649
C26   C     C_3   0.962798 0.143903 0.850432 -0.462846
C27   C     C_3   0.996112 0.427903 0.134432 -0.311847
C28   C     C_3   0.064138 0.553781 0.768755 -0.251894
C29   C     C_3   0.105693 0.681003 0.775196 -0.289824
C30   C     C_3   0.138428 0.710309 0.919034 -0.462967
C31   C     C_3   0.326315 0.145549 0.363665 -0.299727
C32   C     C_3   0.916742 0.494014 0.502002 0.019573
C33   C     C_3   0.027160 0.580869 0.412502 -0.108127
C34   C     C_3   0.970978 0.468758 0.376491 0.191722
C35   C     C_1   0.175098 0.496579 0.497395 -0.071001
C36   C     C_1   0.825026 0.495657 0.502154 -0.068304
C37   C     C_2   0.477156 0.931262 0.393483 -0.142540
Cu1   Cu    Cu3+1 0.500020 0.500020 0.638630 0.902015
Cu2   Cu    Cu3+1 0.499980 0.499980 0.361370 0.939057
H1    H     H_    0.550221 0.450107 0.118880 0.188500
H2    H     H_    0.577394 0.123248 0.677539 0.257032
H3    H     H_    0.698508 0.022664 0.592019 0.137783
H4    H     H_    0.681181 0.160881 0.496449 0.136621
H5    H     H_    0.649713 0.012639 0.425400 0.160197
H6    H     H_    0.388253 0.339489 0.774165 0.305171
H7    H     H_    0.441866 0.203241 0.960171 0.144200
H8    H     H_    0.332619 0.185263 0.908866 0.127268
H9    H     H_    0.358879 0.270561 0.061428 0.173985
H10   H     H_    0.554647 0.740526 0.135342 0.191835
H11   H     H_    0.623054 0.811437 0.012904 0.146508
H12   H     H_    0.050169 0.650496 0.340144 0.098249
H13   H     H_    0.524028 0.881810 0.055286 0.127808
H14   H     H_    0.513333 0.779694 0.833005 0.172638
H15   H     H_    0.445258 0.707435 0.948563 0.159079
H16   H     H_    0.598646 0.569045 0.978580 0.087219
H17   H     H_    0.602615 0.616877 0.814846 0.181105
H18   H     H_    0.302988 0.478444 0.068907 0.239860
H19   H     H_    0.278765 0.657897 0.214072 0.137067
H20   H     H_    0.319136 0.695971 0.049777 0.092551
H21   H     H_    0.388585 0.696843 0.197789 0.183990
H22   H     H_    0.920247 0.185770 0.926813 0.150167
H23   H     H_    0.947859 0.697470 0.572493 0.102520
H24   H     H_    0.926245 0.078400 0.784556 0.145977
H25   H     H_    0.012837 0.092635 0.905216 0.138484
H26   H     H_    0.046381 0.199148 0.690879 0.166036
H27   H     H_    0.040753 0.304408 0.832831 0.148389
H28   H     H_    0.897339 0.368527 0.764001 0.137970
H29   H     H_    0.892476 0.254433 0.630379 0.138643
H30   H     H_    0.888022 0.378757 0.240410 0.240973
H31   H     H_    0.962132 0.418220 0.035124 0.128329
H32   H     H_    0.034081 0.344153 0.151080 0.169004
H33   H     H_    0.038617 0.509058 0.129770 0.147406
H34   H     H_    0.476114 0.887478 0.293550 0.116206
H35   H     H_    0.085201 0.714802 0.991289 0.145701
H36   H     H_    0.183136 0.638554 0.952707 0.154905
H37   H     H_    0.171654 0.800298 0.920437 0.135182
H38   H     H_    0.159311 0.684380 0.703651 0.171463
H39   H     H_    0.059330 0.752091 0.745460 0.153268
H40   H     H_    0.011110 0.550789 0.841390 0.137272
H41   H     H_    0.111488 0.484078 0.798164 0.141254
H42   H     H_    0.403731 0.073214 0.215706 0.231144
H43   H     H_    0.287319 0.193641 0.286465 0.144315
H44   H     H_    0.332147 0.205882 0.455554 0.146715
H45   H     H_    0.476096 0.907170 0.606352 0.127174
H46   H     H_    0.293819 0.058819 0.390983 0.123847
H47   H     H_    0.113049 0.240803 0.474101 0.238421
H48   H     H_    0.035348 0.094850 0.332177 0.134204
H49   H     H_    0.950383 0.202066 0.319346 0.151621
H50   H     H_    0.976032 0.133389 0.481364 0.133434
N1    N     N_2   0.499090 0.498660 0.846910 -0.251625
N2    N     N_2   0.499070 0.498630 0.153040 -0.344710
N3    N     N_2   0.061875 0.268364 0.416561 -0.524844
N4    N     N_2   0.573005 0.081727 0.582551 -0.558581
N5    N     N_2   0.384932 0.359660 0.876166 -0.521168
N6    N     N_2   0.351683 0.521294 0.122038 -0.455384
N7    N     N_2   0.935614 0.443583 0.241994 -0.512549
N8    N     N_2   0.408430 0.119395 0.308037 -0.509184
O1    O     O_R   0.500010 0.321960 0.617040 -0.530270
O2    O     O_R   0.499990 0.321920 0.382900 -0.467110
O3    O     O_R   0.379090 0.500010 0.617050 -0.506185
O4    O     O_R   0.379060 0.499970 0.382910 -0.451050
O5    O     O_R   0.500010 0.678080 0.617100 -0.517603
O6    O     O_R   0.499990 0.678040 0.382960 -0.507953
O7    O     O_R   0.620940 0.500030 0.617090 -0.514486
O8    O     O_R   0.620910 0.499990 0.382950 -0.498727

loop_
_geom_bond_atom_site_label_1
_geom_bond_atom_site_label_2
_ccdc_geom_bond_type
C19   H17   S    
C31   H46   S    
C22   N6    S    
C2    H45   S    
C19   C20   S    
C26   H24   S    
H30   N7    S    
C18   H8    S    
C1    O2    A    
C21   H10   S    
C31   H43   S    
C1    C5    S    
C32   C36   S    
C28   C29   S    
C26   H22   S    
C34   N7    S    
C13   C35   T    
C10   C15   S    
C14   C36   T    
Cu1   Cu2   S    
C30   H35   S    
C9    O8    A    
C31   H44   S    
C23   C33   S    
C4    C13   S    
C28   H40   S    
C26   H25   S    
C17   H3    S    
Cu1   O7    S    
C24   H28   S    
C11   N3    S    
C23   H23   S    
H2    N4    S    
C29   H39   S    
C6    N5    S    
C16   H48   S    
Cu1   O1    S    
C15   C23   S    
C16   H50   S    
C27   N7    S    
H6    N5    S    
C18   H7    S    
Cu2   N2    S    
C21   H11   S    
Cu2   O4    S    
C25   H26   S    
C24   C25   S    
C20   H15   S    
C22   H20   S    
C10   C24   S    
C25   C26   S    
C6    N1    D    
C32   C34   S    
C9    C14   S    
C17   H4    S    
C29   C30   S    
C30   H37   S    
C3    N8    S    
Cu2   O2    S    
C12   C15   S    
C7    N2    D    
C4    O4    A    
C33   C34   S    
C12   C35   S    
C27   H31   S    
Cu1   O3    S    
C16   N3    S    
C4    O3    A    
C18   N5    S    
C17   N4    S    
C27   H32   S    
C19   H16   S    
Cu2   O8    S    
C37   H34   S    
C11   C34   S    
C2    C8    S    
C25   H27   S    
C20   H14   S    
C3    C5    D    
C18   H9    S    
C1    O1    A    
C22   H19   S    
C5    N4    S    
C11   C12   S    
Cu2   O6    S    
C6    C7    S    
C33   H12   S    
C7    N6    S    
Cu1   N1    S    
C23   C32   S    
C17   H5    S    
Cu1   O5    S    
C19   N1    S    
H47   N3    S    
C22   H21   S    
C30   H36   S    
C2    C37   D    
C15   C28   S    
H42   N8    S    
C9    O7    A    
C31   N8    S    
H1    N2    S    
C28   H41   S    
C8    O6    A    
C10   C11   S    
C24   H29   S    
C10   C32   S    
C29   H38   S    
C20   C21   S    
C3    C37   S    
H18   N6    S    
C16   H49   S    
C12   C33   S    
C8    O5    A    
C21   H13   S    
C27   H33   S    
