data_mof_unit_51135.cif
_audit_creation_date              2012-12-11T16:08:47-0500
_audit_creation_method            fapswitch 2.2
_symmetry_space_group_name_H-M    P1
_symmetry_Int_Tables_number       1
_space_group_crystal_system       triclinic
_cell_length_a                    12.98188
_cell_length_b                    13.279763
_cell_length_c                    27.709357
_cell_angle_alpha                 94.766359
_cell_angle_beta                  90.351494
_cell_angle_gamma                 119.367606
_cell_volume                      4142.65861506

loop_
_atom_site_label
_atom_site_type_symbol
_atom_type_description
_atom_site_fract_x
_atom_site_fract_y
_atom_site_fract_z
_atom_type_partial_charge
C1    C     C_R   0.627633 0.895943 0.427189 0.546706
C2    C     C_R   0.586639 0.338249 0.229130 -0.081739
C3    C     C_R   0.578814 0.326526 0.278765 0.082569
C4    C     C_R   0.673949 0.332401 0.306053 0.018272
C5    C     C_R   0.688932 0.356915 0.206082 -0.012598
C6    C     C_1   0.697568 0.375107 0.155405 -0.042035
C7    C     C_1   0.656919 0.306218 0.355950 0.047482
C8    C     C_1   0.705308 0.398630 0.114005 0.003245
C9    C     C_R   0.219878 0.764913 0.345027 -0.109381
C10   C     C_R   0.211925 0.762632 0.295123 0.015432
C11   C     C_R   0.203171 0.762352 0.194104 0.022477
C12   C     C_R   0.601286 0.222628 0.440783 0.546357
C13   C     C_R   0.227287 0.683407 0.215604 -0.100041
C14   C     C_R   0.228686 0.681815 0.265622 -0.101804
C15   C     C_R   0.191268 0.758802 0.143573 0.081574
C16   C     C_R   0.138940 0.819274 0.124279 0.007067
C17   C     C_R   0.198982 0.937533 0.355025 -0.116218
C18   C     C_R   0.182123 0.931064 0.304637 0.019604
C19   C     C_R   0.192420 0.845410 0.274603 0.060438
C20   C     C_R   0.159977 0.011217 0.283559 -0.092311
C21   C     C_R   0.143984 0.004230 0.233308 -0.113433
C22   C     C_R   0.155341 0.919983 0.203438 0.003188
C23   C     C_R   0.271017 0.876634 0.424903 0.547014
C24   C     C_R   0.183937 0.842767 0.224007 0.042228
C25   C     C_R   0.130750 0.906265 0.153657 -0.150961
C26   C     C_R   0.221104 0.856150 0.375206 -0.007210
C27   C     C_R   0.750818 0.943684 0.356933 -0.099993
C28   C     C_R   0.761293 0.932879 0.307074 -0.010622
C29   C     C_R   0.758377 0.918676 0.205879 -0.019636
C30   C     C_R   0.849360 0.014902 0.233133 -0.135529
C31   C     C_R   0.855300 0.021732 0.283695 0.056365
C32   C     C_R   0.760521 0.909841 0.155840 -0.120739
C33   C     C_R   0.683452 0.805227 0.128378 0.006298
C34   C     C_R   0.627494 0.898404 0.564850 0.547678
C35   C     C_R   0.567878 0.759182 0.352144 -0.126169
C36   C     C_R   0.575992 0.745178 0.302105 0.020486
C37   C     C_R   0.669593 0.834552 0.279326 0.041960
C38   C     C_R   0.488763 0.646293 0.274160 -0.121183
C39   C     C_R   0.492584 0.636370 0.223758 -0.124252
C40   C     C_R   0.582270 0.726365 0.200703 0.021224
C41   C     C_R   0.669871 0.826600 0.228671 0.058977
C42   C     C_R   0.590284 0.715633 0.150413 -0.114870
C43   C     C_R   0.652020 0.861268 0.379086 -0.014481
C44   C     C_R   0.737233 0.284439 0.650891 -0.133533
C45   C     C_R   0.604398 0.228360 0.577898 0.544032
C46   C     C_R   0.753322 0.311054 0.700898 0.006786
C47   C     C_R   0.765431 0.340435 0.803026 -0.011959
C48   C     C_R   0.834915 0.300768 0.777865 -0.111506
C49   C     C_R   0.829421 0.287151 0.727406 -0.138127
C50   C     C_R   0.767759 0.353460 0.854381 0.039589
C51   C     C_R   0.693504 0.391150 0.877106 -0.014582
C52   C     C_R   0.589484 0.346146 0.648310 -0.133061
C53   C     C_R   0.605721 0.374680 0.698237 0.012004
C54   C     C_R   0.684600 0.352708 0.724991 0.061448
C55   C     C_R   0.537216 0.415787 0.722168 -0.124470
C56   C     C_R   0.271695 0.879288 0.563362 0.548237
C57   C     C_R   0.541600 0.428725 0.772475 -0.122041
C58   C     C_R   0.615207 0.401529 0.799201 -0.001572
C59   C     C_R   0.689691 0.366292 0.775832 0.035482
C60   C     C_R   0.615598 0.410588 0.849093 -0.157048
C61   C     C_R   0.649074 0.293699 0.625259 -0.005535
C62   C     C_1   0.221761 0.862410 0.609998 -0.009676
C63   C     C_R   0.064520 0.760238 0.717817 -0.109246
C64   C     C_R   0.048560 0.750335 0.767439 -0.109753
C65   C     C_R   0.244491 0.916083 0.786034 -0.101943
C66   C     C_R   0.260448 0.925976 0.736436 -0.104217
C67   C     C_1   0.635654 0.274498 0.396048 0.056779
C68   C     C_R   0.170879 0.847704 0.702209 0.032063
C69   C     C_R   0.138889 0.827642 0.801630 0.032882
C70   C     C_1   0.122026 0.814516 0.852490 -0.046905
C71   C     C_1   0.193001 0.853711 0.651396 -0.057101
C72   C     C_1   0.099221 0.797165 0.894122 0.004209
C73   C     C_1   0.648623 0.858543 0.608552 -0.015105
C74   C     C_R   0.788211 0.841292 0.716950 -0.105313
C75   C     C_R   0.800611 0.826038 0.765623 -0.104696
C76   C     C_R   0.587377 0.727642 0.770587 -0.104063
C77   C     C_R   0.574961 0.742843 0.721938 -0.106958
C78   C     C_R   0.780079 0.355637 0.283250 0.044155
C79   C     C_R   0.675361 0.801176 0.695156 0.035470
C80   C     C_R   0.700307 0.770900 0.792791 0.039516
C81   C     C_1   0.713843 0.763417 0.843838 -0.055533
C82   C     C_1   0.662447 0.829867 0.647228 -0.058460
C83   C     C_1   0.727762 0.759007 0.886569 -0.010881
C84   C     C_R   0.068557 0.774709 0.078139 0.564751
C85   C     C_R   0.717252 0.441790 0.067436 0.554378
C86   C     C_R   0.720146 0.782800 0.080849 0.564390
C87   C     C_R   0.056249 0.766233 0.941190 0.540800
C88   C     C_R   0.710849 0.436052 0.928427 0.562666
C89   C     C_R   0.785850 0.367895 0.233120 -0.110840
C90   C     C_R   0.749263 0.753893 0.937004 0.558590
Cr1   Cr    Cr6+3 0.416430 0.829200 0.492370 1.034952
Cr2   Cr    Cr6+3 0.674630 0.087020 0.504170 1.044582
Cr3   Cr    Cr6+3 0.408920 0.083740 0.503490 1.045126
Cr4   Cr    Cr6+3 0.914010 0.832750 0.013970 1.030663
Cr5   Cr    Cr6+3 0.922310 0.578600 0.003000 1.096278
Cr6   Cr    Cr6+3 0.656280 0.574630 0.003870 1.046181
H1    H     H_    0.122977 0.064718 0.217825 0.130571
H2    H     H_    0.154905 0.079010 0.305956 0.188415
H3    H     H_    0.199827 0.007988 0.378126 0.155892
H4    H     H_    0.831181 0.980445 0.138854 0.137693
H5    H     H_    0.812327 0.022928 0.378199 0.202783
H6    H     H_    0.919337 0.082449 0.214595 0.150534
H7    H     H_    0.529509 0.635103 0.129140 0.143681
H8    H     H_    0.425174 0.558764 0.202826 0.126315
H9    H     H_    0.417339 0.576909 0.291293 0.133743
H10   H     H_    0.865912 0.385676 0.214918 0.162045
H11   H     H_    0.492010 0.694949 0.369406 0.131152
H12   H     H_    0.785010 0.245501 0.632896 0.137723
H13   H     H_    0.891872 0.276989 0.796577 0.163429
H14   H     H_    0.881786 0.253915 0.709120 0.116067
H15   H     H_    0.559299 0.440731 0.866116 0.149095
H16   H     H_    0.485824 0.458075 0.790518 0.114218
H17   H     H_    0.477233 0.433878 0.702063 0.113572
H18   H     H_    0.523226 0.355461 0.628165 0.131474
H19   H     H_    0.994970 0.698839 0.691748 0.118990
H20   H     H_    0.512956 0.333765 0.208581 0.143434
H21   H     H_    0.966269 0.681739 0.779145 0.121092
H22   H     H_    0.314740 0.976388 0.812091 0.124116
H23   H     H_    0.343416 0.993509 0.724736 0.120123
H24   H     H_    0.866581 0.887269 0.696803 0.115907
H25   H     H_    0.888424 0.859854 0.782396 0.119769
H26   H     H_    0.509195 0.684726 0.791162 0.116009
H27   H     H_    0.487285 0.712218 0.705641 0.115558
H28   H     H_    0.236344 0.700870 0.359978 0.146654
H29   H     H_    0.239961 0.618851 0.194280 0.153658
H30   H     H_    0.244452 0.618190 0.281302 0.134579
H31   H     H_    0.096350 0.957262 0.138493 0.135072
O1    O     O_R   0.296680 0.802170 0.437540 -0.521381
O2    O     O_R   0.662610 0.183990 0.557860 -0.507516
O3    O     O_R   0.500730 0.201280 0.562180 -0.514008
O4    O     O_R   0.312500 0.978850 0.548170 -0.492668
O5    O     O_3   0.499990 0.999990 0.500010 -0.252493
O6    O     O_R   0.820790 0.857990 0.068830 -0.517614
O7    O     O_R   0.016700 0.827330 0.062850 -0.511358
O8    O     O_R   0.041970 0.673520 0.060040 -0.469208
O9    O     O_R   0.817980 0.483660 0.048840 -0.480896
O10   O     O_R   0.637200 0.461990 0.052510 -0.506163
O11   O     O_R   0.664790 0.681920 0.057970 -0.490234
O12   O     O_R   0.525380 0.838530 0.443500 -0.502248
O13   O     O_R   0.815840 0.852920 0.961840 -0.489625
O14   O     O_R   0.012100 0.822630 0.963670 -0.518498
O15   O     O_R   0.037010 0.668460 0.953040 -0.475894
O16   O     O_R   0.813390 0.478970 0.949660 -0.470326
O17   O     O_R   0.632250 0.456930 0.945520 -0.530555
O18   O     O_R   0.660200 0.677230 0.958780 -0.486693
O19   O     O_3   0.830870 0.661990 0.006950 -0.289449
O20   O     O_R   0.702130 0.995190 0.446810 -0.510445
O21   O     O_R   0.661770 0.181390 0.458760 -0.484716
O22   O     O_R   0.499820 0.198480 0.455280 -0.499282
O23   O     O_R   0.311660 0.976250 0.449080 -0.493548
O24   O     O_R   0.297580 0.804960 0.544440 -0.504475
O25   O     O_R   0.526220 0.841130 0.542590 -0.493314
O26   O     O_R   0.703030 0.997990 0.553710 -0.509815
C91   C     C_2   0.886549 0.369576 0.310359 0.593263
O27   O     O_2   0.984391 0.424737 0.294278 -0.519371
O28   O     O_R   0.876239 0.319825 0.353863 -0.695736
H32   H     H_    0.955375 0.336229 0.368493 0.352325
C92   C     C_2   0.962607 0.121322 0.309629 0.552536
O29   O     O_2   0.999224 0.112592 0.348936 -0.553700
O30   O     O_R   0.026876 0.223530 0.287294 -0.679319
H33   H     H_    0.099857 0.283621 0.307599 0.358278
C93   C     C_2   0.845582 0.327834 0.884509 0.580617
O31   O     O_2   0.951941 0.374841 0.878736 -0.518347
O32   O     O_R   0.797124 0.252970 0.920774 -0.684811
H34   H     H_    0.858767 0.243478 0.939418 0.344087
I1    I     I_    0.420997 0.302539 0.310660 -0.448273
I2    I     I_    0.257578 0.668355 0.096860 -0.365808

loop_
_geom_bond_atom_site_label_1
_geom_bond_atom_site_label_2
_ccdc_geom_bond_type
Cr4   O19   S    
C66   C68   A    
C84   O8    A    
C45   O2    A    
Cr2   O21   S    
Cr4   O13   S    
C53   C55   A    
Cr3   O22   S    
C35   C36   A    
C42   H7    S    
Cr4   O6    S    
C39   H8    S    
C53   C54   A    
Cr5   O16   S    
Cr6   O18   S    
C46   C49   A    
C84   O7    A    
C33   C42   A    
O32   H34   S    
Cr2   O5    S    
C8    C85   S    
C90   O18   A    
C2    C3    A    
C52   C61   A    
Cr6   O11   S    
Cr1   O25   S    
C65   C69   A    
C57   H16   S    
C50   C93   S    
C58   C60   A    
C15   C16   A    
C11   C24   A    
C16   C84   S    
C9    H28   S    
C18   C20   A    
C18   C19   A    
C23   C26   S    
C11   C15   A    
C1    C43   S    
C22   C25   A    
C89   H10   S    
C65   H22   S    
Cr2   O26   S    
Cr3   O5    S    
C35   C43   A    
C75   C80   A    
C88   O16   A    
C91   O28   S    
C1    O12   A    
C63   H19   S    
C40   C42   A    
C48   H13   S    
C45   O3    A    
C21   C22   A    
Cr2   O20   S    
C92   O30   S    
C15   I2    S    
Cr3   O23   S    
Cr5   O19   S    
C2    H20   S    
C4    C7    S    
C81   C83   T    
C44   C46   A    
C9    C26   A    
C50   C51   A    
C47   C50   A    
C93   O32   S    
C54   C59   A    
C44   H12   S    
C78   C89   A    
C38   C39   A    
C12   C67   S    
Cr1   O1    S    
C31   C92   S    
C76   C77   A    
C10   C14   A    
Cr6   O10   S    
C34   O25   A    
C78   C91   S    
C6    C8    T    
Cr1   O5    S    
C55   H17   S    
C58   C59   A    
C47   C59   A    
C27   H5    S    
C64   H21   S    
C32   H4    S    
C33   C86   S    
C4    C78   A    
C29   C30   A    
C77   H27   S    
Cr6   O17   S    
C21   H1    S    
C86   O6    A    
C47   C48   A    
C10   C19   A    
C46   C54   A    
Cr5   O8    S    
C17   C18   A    
C77   C79   A    
C64   C69   A    
C87   O14   A    
C56   O24   A    
C17   H3    S    
C91   O27   D    
C30   H6    S    
Cr1   O12   S    
C40   C41   A    
C23   O23   A    
C74   C79   A    
C55   C57   A    
C92   O29   D    
C22   C24   A    
C1    O20   A    
C2    C5    A    
C17   C26   A    
Cr3   O3    S    
C85   O10   A    
C73   C82   T    
C39   C40   A    
C72   C87   S    
Cr6   O19   S    
C52   C53   A    
C93   O31   D    
C9    C10   A    
C34   O26   A    
C16   C25   A    
C83   C90   S    
C63   C68   A    
O28   H32   S    
C29   C41   A    
C20   C21   A    
C75   H25   S    
Cr4   O14   S    
C12   O22   A    
C28   C31   A    
C76   C80   A    
C80   C81   S    
C51   C88   S    
C79   C82   S    
C90   O13   A    
C52   H18   S    
C44   C61   A    
C29   C32   A    
C74   H24   S    
C14   H30   S    
C66   H23   S    
C76   H26   S    
C32   C33   A    
C12   O21   A    
C38   H9    S    
C36   C38   A    
C19   C24   A    
C25   H31   S    
C13   H29   S    
C60   H15   S    
Cr3   O4    S    
O30   H33   S    
Cr1   O24   S    
C11   C13   A    
C30   C31   A    
C57   C58   A    
C5    C6    S    
C28   C37   A    
C68   C71   S    
C48   C49   A    
C45   C61   S    
Cr5   O9    S    
Cr4   O7    S    
C62   C71   T    
Cr2   O2    S    
C56   C62   S    
C87   O15   A    
C37   C41   A    
C69   C70   S    
C56   O4    A    
C35   H11   S    
C86   O11   A    
C34   C73   S    
C7    C67   T    
C63   C64   A    
C27   C43   A    
C20   H2    S    
C74   C75   A    
Cr5   O15   S    
C36   C37   A    
C65   C66   A    
C27   C28   A    
C85   O9    A    
C49   H14   S    
C70   C72   T    
C51   C60   A    
C13   C14   A    
C88   O17   A    
C5    C89   A    
C3    C4    A    
C3    I1    S    
C23   O1    A    
