data_mof_unit_19399.cif
_audit_creation_date              2012-12-10T18:58:15-0500
_audit_creation_method            fapswitch 2.2
_symmetry_space_group_name_H-M    P1
_symmetry_Int_Tables_number       1
_space_group_crystal_system       triclinic
_cell_length_a                    11.081909
_cell_length_b                    10.770104
_cell_length_c                    9.600543
_cell_angle_alpha                 89.456149
_cell_angle_beta                  102.91192
_cell_angle_gamma                 90.750138
_cell_volume                      1116.76224375

loop_
_atom_site_label
_atom_site_type_symbol
_atom_type_description
_atom_site_fract_x
_atom_site_fract_y
_atom_site_fract_z
_atom_type_partial_charge
C1    C     C_R   0.499830 0.262699 0.500355 0.827102
C2    C     C_R   0.496197 0.129376 0.500683 -0.055490
C3    C     C_R   0.420240 0.064550 0.387436 -0.206084
C4    C     C_R   0.421782 0.935095 0.386572 -0.214019
C5    C     C_R   0.499403 0.870778 0.498853 -0.080087
C6    C     C_R   0.568322 0.936060 0.615150 0.102905
C7    C     C_3   0.705400 0.934290 0.673627 -0.502682
C8    C     C_3   0.702345 0.074782 0.676725 -0.447940
C9    C     C_R   0.562396 0.590215 0.088611 0.250639
C10   C     C_R   0.446740 0.406423 0.063521 -0.076128
C11   C     C_R   0.445635 0.405473 0.915530 0.057833
C12   C     C_R   0.263267 0.498660 0.441353 0.864470
C13   C     C_R   0.562464 0.590264 0.941497 0.239598
C14   C     C_3   0.537255 0.726160 0.929372 -0.499219
C15   C     C_3   0.537816 0.725951 0.087044 -0.487431
C16   C     C_R   0.501552 0.737380 0.499791 0.783242
C17   C     C_R   0.737068 0.498470 0.558577 0.803344
C18   C     C_2   0.129802 0.480859 0.407283 -0.369136
C19   C     C_2   0.065216 0.507119 0.505114 -0.242667
C20   C     C_2   0.872717 0.503552 0.593082 -0.176074
C21   C     C_2   0.936680 0.463412 0.496515 0.011575
C22   C     C_R   0.566568 0.064163 0.615810 0.125034
Cu1   Cu    Cu3+1 0.499990 0.499980 0.640670 0.950834
Cu2   Cu    Cu3+1 0.500010 0.500020 0.359330 0.963756
H1    H     H_    0.753339 0.120150 0.602272 0.236937
H2    H     H_    0.400375 0.332872 0.109715 0.145713
H3    H     H_    0.615818 0.779684 0.904450 0.190077
H4    H     H_    0.445025 0.747764 0.860571 0.216708
H5    H     H_    0.616837 0.779117 0.152306 0.198666
H6    H     H_    0.445763 0.747305 0.108427 0.217339
H7    H     H_    0.111412 0.561627 0.596217 0.216323
H8    H     H_    0.088496 0.436493 0.306958 0.147842
H9    H     H_    0.361887 0.113869 0.299169 0.147615
H10   H     H_    0.363983 0.885502 0.298098 0.151205
H11   H     H_    0.731861 0.892370 0.781904 0.189447
H12   H     H_    0.756789 0.897863 0.595819 0.196985
H13   H     H_    0.722961 0.113152 0.786705 0.196455
N1    N     N_R   0.500780 0.500930 0.148120 -0.193142
N2    N     N_R   0.500790 0.500890 0.852210 -0.204512
O1    O     O_R   0.500000 0.319640 0.618810 -0.575867
O2    O     O_R   0.500010 0.319680 0.381230 -0.573984
O3    O     O_R   0.320680 0.500000 0.575130 -0.584511
O4    O     O_R   0.320690 0.500040 0.337550 -0.576592
O5    O     O_R   0.499990 0.680320 0.618770 -0.585364
O6    O     O_R   0.500000 0.680360 0.381190 -0.587790
O7    O     O_R   0.679310 0.499960 0.662450 -0.587608
O8    O     O_R   0.679320 0.500000 0.424870 -0.555834
C23   C     C_2   0.879301 0.374401 0.381297 0.398185
H14   H     H_    0.893342 0.385216 0.273737 0.062946
O9    O     O_2   0.816402 0.286806 0.406973 -0.572376
C24   C     C_R   0.377263 0.300753 0.835515 0.141886
C25   C     C_R   0.426943 0.180755 0.854735 -0.157330
C26   C     C_R   0.356158 0.078271 0.794092 -0.137783
C27   C     C_R   0.235506 0.094740 0.714314 -0.126561
C28   C     C_R   0.184042 0.213170 0.699175 -0.146449
C29   C     C_R   0.253828 0.315164 0.762495 -0.085503
H15   H     H_    0.519981 0.166657 0.917432 0.128929
H16   H     H_    0.394937 0.986126 0.808851 0.136985
H17   H     H_    0.181196 0.015498 0.666577 0.136147
H18   H     H_    0.089308 0.225586 0.641072 0.165606
H19   H     H_    0.211229 0.404950 0.757785 0.189212
C30   C     C_2   0.931254 0.566499 0.729336 0.310864
H20   H     H_    0.882982 0.641351 0.767956 0.075915
O10   O     O_2   0.028553 0.530322 0.804020 -0.570155

loop_
_geom_bond_atom_site_label_1
_geom_bond_atom_site_label_2
_ccdc_geom_bond_type
C16   O6    A    
C2    C22   A    
C25   H15   S    
C8    C22   S    
C28   C29   A    
C30   H20   S    
C8    H1    S    
C26   H16   S    
C13   C14   S    
C14   H3    S    
C7    H12   S    
C16   O5    A    
Cu2   N1    S    
C14   C15   S    
C10   N1    A    
C21   C23   S    
C19   H7    S    
C10   H2    S    
C23   O9    D    
C2    C3    A    
C9    C15   S    
C7    C8    S    
C29   H19   S    
Cu1   O7    S    
C26   C27   A    
C20   C21   D    
C11   N2    A    
Cu2   O2    S    
C24   C25   A    
C6    C7    S    
Cu1   O3    S    
C23   H14   S    
Cu1   N2    S    
Cu2   O6    S    
C1    O2    A    
C9    N1    A    
C19   C21   S    
C15   H5    S    
C12   O4    A    
C27   H17   S    
C20   C30   S    
C5    C6    A    
C4    H10   S    
C13   N2    A    
C11   C24   S    
C10   C11   A    
C3    H9    S    
Cu1   Cu2   S    
C12   O3    A    
Cu1   O1    S    
C6    C22   A    
C17   C20   S    
C18   H8    S    
C17   O7    A    
C3    C4    A    
C15   H6    S    
C1    C2    S    
C8    H13   S    
C12   C18   S    
Cu2   O4    S    
C9    C13   A    
C27   C28   A    
C18   C19   D    
C5    C16   S    
C30   O10   D    
C1    O1    A    
C14   H4    S    
C28   H18   S    
Cu2   O8    S    
C7    H11   S    
Cu1   O5    S    
C17   O8    A    
C25   C26   A    
C4    C5    A    
C24   C29   A    
