data_mof_unit_24341.cif
_audit_creation_date              2012-12-10T18:53:02-0500
_audit_creation_method            fapswitch 2.2
_symmetry_space_group_name_H-M    P1
_symmetry_Int_Tables_number       1
_space_group_crystal_system       triclinic
_cell_length_a                    9.838078
_cell_length_b                    10.685184
_cell_length_c                    16.542253
_cell_angle_alpha                 90.324864
_cell_angle_beta                  83.194646
_cell_angle_gamma                 90.078053
_cell_volume                      1726.66927595

loop_
_atom_site_label
_atom_site_type_symbol
_atom_type_description
_atom_site_fract_x
_atom_site_fract_y
_atom_site_fract_z
_atom_type_partial_charge
C1    C     C_R   0.500104 0.740089 0.499843 0.849229
C2    C     C_R   0.499892 0.259932 0.500134 0.843711
C3    C     C_R   0.620105 0.935903 0.471069 -0.201034
C4    C     C_R   0.379681 0.064187 0.528485 -0.201806
C5    C     C_R   0.620185 0.064119 0.471433 -0.204319
C6    C     C_R   0.379648 0.935971 0.528186 -0.200622
C7    C     C_R   0.499953 0.127554 0.500146 -0.010196
C8    C     C_R   0.499978 0.872510 0.499657 -0.011630
C9    C     C_R   0.938729 0.431912 0.443609 -0.325916
C10   C     C_R   0.061326 0.567887 0.556410 -0.328217
C11   C     C_R   0.083472 0.430132 0.443903 0.550135
C12   C     C_R   0.916786 0.570378 0.555774 0.549406
C13   C     C_R   0.478352 0.496649 0.653833 0.856303
C14   C     C_R   0.521304 0.497180 0.346424 0.845426
C15   C     C_R   0.457570 0.467442 0.739959 -0.037573
C16   C     C_R   0.538727 0.460469 0.261971 0.007594
C17   C     C_R   0.551388 0.507304 0.791600 -0.199963
C18   C     C_R   0.489120 0.535995 0.203856 -0.202231
C19   C     C_R   0.535239 0.469496 0.872278 -0.150521
C20   C     C_R   0.491859 0.491934 0.124738 -0.134882
C21   C     C_R   0.428528 0.387167 0.900989 0.145416
C22   C     C_R   0.537191 0.369426 0.104558 0.142666
C23   C     C_R   0.333263 0.349479 0.849541 -0.188291
C24   C     C_R   0.591745 0.295894 0.162429 -0.194746
C25   C     C_R   0.347148 0.390150 0.769467 -0.194864
C26   C     C_R   0.593346 0.341869 0.241073 -0.207138
C27   C     C_2   0.413281 0.346548 0.986550 -0.104896
C28   C     C_2   0.527646 0.320398 0.022000 -0.103105
H1    H     H_    0.636352 0.567524 0.769623 0.175121
H2    H     H_    0.447279 0.627764 0.219937 0.126439
H3    H     H_    0.630959 0.282831 0.286637 0.128031
H4    H     H_    0.274323 0.357452 0.729802 0.151925
H5    H     H_    0.249595 0.287601 0.871075 0.128243
H6    H     H_    0.629150 0.202354 0.147337 0.140316
H7    H     H_    0.454826 0.552100 0.079646 0.130214
H8    H     H_    0.606645 0.503915 0.912256 0.133151
H9    H     H_    0.712840 0.886629 0.447780 0.143271
H10   H     H_    0.286753 0.113489 0.551442 0.144123
H11   H     H_    0.713120 0.113349 0.448533 0.141552
H12   H     H_    0.286636 0.886765 0.550961 0.143800
H13   H     H_    0.891617 0.380419 0.397816 0.158109
H14   H     H_    0.108420 0.619350 0.602218 0.163202
N1    N     N_R   0.142790 0.500030 0.500020 -0.126665
N2    N     N_R   0.857210 0.499970 0.499980 -0.123994
O1    O     O_R   0.385380 0.683250 0.500010 -0.625644
O2    O     O_R   0.614620 0.316750 0.499990 -0.625493
O3    O     O_R   0.614710 0.683220 0.500000 -0.601365
O4    O     O_R   0.385290 0.316780 0.500000 -0.604967
O5    O     O_R   0.371780 0.500040 0.615800 -0.629476
O6    O     O_R   0.628220 0.499960 0.384200 -0.628691
O7    O     O_R   0.601110 0.500010 0.615800 -0.547476
O8    O     O_R   0.398890 0.499990 0.384200 -0.539688
Zn1   Zn    Zn3+2 0.346870 0.500020 0.500000 0.974317
Zn2   Zn    Zn3+2 0.653130 0.499980 0.500000 0.974442
C29   C     C_R   0.652267 0.265220 0.974348 0.126360
C30   C     C_R   0.783726 0.311138 0.983579 -0.164676
C31   C     C_R   0.899432 0.259684 0.938237 -0.126883
C32   C     C_R   0.885323 0.162031 0.883379 -0.120826
C33   C     C_R   0.755433 0.115442 0.873806 -0.138459
C34   C     C_R   0.639424 0.166454 0.919077 -0.125918
H15   H     H_    0.796570 0.388049 0.024830 0.133167
H16   H     H_    0.000094 0.295826 0.945345 0.145599
H17   H     H_    0.975050 0.122541 0.848251 0.118994
H18   H     H_    0.744599 0.039674 0.831317 0.127642
H19   H     H_    0.539577 0.128746 0.911182 0.124970
C35   C     C_R   0.276601 0.360449 0.036123 0.137345
C36   C     C_R   0.192889 0.464616 0.026096 -0.179650
C37   C     C_R   0.066443 0.477809 0.073751 -0.159018
C38   C     C_R   0.021598 0.386799 0.131137 -0.097294
C39   C     C_R   0.103180 0.282444 0.141011 -0.123407
C40   C     C_R   0.230354 0.269385 0.094079 -0.138120
H20   H     H_    0.226258 0.536577 0.982336 0.135529
H21   H     H_    0.002928 0.558456 0.065979 0.130422
H22   H     H_    0.923333 0.396838 0.167656 0.132673
H23   H     H_    0.067800 0.211639 0.185113 0.122972
H24   H     H_    0.292536 0.188030 0.102601 0.121646
O9    O     O_3   0.167294 0.367443 0.383832 -0.569485
C41   C     C_3   0.137203 0.238176 0.385480 0.096492
H25   H     H_    0.041128 0.219473 0.358242 0.111664
H26   H     H_    0.127754 0.200625 0.448674 0.124344
C42   C     C_3   0.252929 0.168555 0.334948 -0.787662
H27   H     H_    0.350878 0.184133 0.360458 0.257664
H28   H     H_    0.230497 0.066685 0.335115 0.195202
H29   H     H_    0.264530 0.202633 0.271280 0.252648
O10   O     O_3   0.833721 0.635527 0.614935 -0.585987
C43   C     C_3   0.862808 0.764894 0.609173 0.099008
H30   H     H_    0.862794 0.798740 0.545566 0.132275
H31   H     H_    0.963367 0.786263 0.630461 0.116249
C44   C     C_3   0.753413 0.836451 0.663517 -0.817739
H32   H     H_    0.755065 0.808771 0.728014 0.235816
H33   H     H_    0.772930 0.938620 0.657941 0.205927
H34   H     H_    0.650622 0.815829 0.645361 0.259785

loop_
_geom_bond_atom_site_label_1
_geom_bond_atom_site_label_2
_ccdc_geom_bond_type
C29   C30   A    
C10   H14   S    
C1    C8    S    
C17   H1    S    
C2    C7    S    
C42   H27   S    
C31   H16   S    
O9    C41   S    
C2    O2    A    
C33   H18   S    
O6    Zn2   S    
C12   O10   S    
C22   C24   A    
C19   C21   A    
C24   C26   A    
C19   H8    S    
C40   H24   S    
C41   H26   S    
C15   C25   A    
C30   C31   A    
C36   H20   S    
C11   O9    S    
C13   O7    A    
C20   H7    S    
N1    Zn1   S    
C14   O8    A    
C37   C38   A    
C23   H5    S    
C11   N1    A    
C39   C40   A    
C18   H2    S    
C44   H33   S    
C25   H4    S    
C35   C36   A    
C21   C27   S    
O1    Zn1   S    
C26   H3    S    
C22   C28   S    
C29   C34   A    
C4    C7    A    
C42   H28   S    
C28   C29   S    
C21   C23   A    
C16   C26   A    
O4    Zn1   S    
C43   H31   S    
C36   C37   A    
C6    H12   S    
C4    C6    A    
C3    C8    A    
C5    C7    A    
C43   H30   S    
C1    O3    A    
C6    C8    A    
C2    O4    A    
C32   C33   A    
O10   C43   S    
C24   H6    S    
C35   C40   A    
O2    Zn2   S    
C38   H22   S    
C44   H34   S    
C9    C11   A    
C10   C12   A    
O3    Zn2   S    
C13   O5    A    
C20   C22   A    
C34   H19   S    
C13   C15   S    
C14   C16   S    
C39   H23   S    
C42   H29   S    
O8    Zn1   S    
C32   H17   S    
C15   C17   A    
C9    N2    A    
C10   N1    A    
C41   H25   S    
C4    H10   S    
C3    C5    A    
C43   C44   S    
C9    H13   S    
O7    Zn2   S    
C5    H11   S    
C37   H21   S    
C12   N2    A    
C27   C35   S    
C41   C42   S    
C1    O1    A    
C31   C32   A    
C14   O6    A    
O5    Zn1   S    
C17   C19   A    
C18   C20   A    
C23   C25   A    
C38   C39   A    
N2    Zn2   S    
C33   C34   A    
C3    H9    S    
C16   C18   A    
C27   C28   D    
C30   H15   S    
C44   H32   S    
