data_mof_unit_15513.cif
_audit_creation_date              2012-12-10T17:20:23-0500
_audit_creation_method            fapswitch 2.2
_symmetry_space_group_name_H-M    P1
_symmetry_Int_Tables_number       1
_space_group_crystal_system       triclinic
_cell_length_a                    11.657103
_cell_length_b                    10.789903
_cell_length_c                    9.663324
_cell_angle_alpha                 85.890321
_cell_angle_beta                  90.24133
_cell_angle_gamma                 91.966871
_cell_volume                      1211.60192904

loop_
_atom_site_label
_atom_site_type_symbol
_atom_type_description
_atom_site_fract_x
_atom_site_fract_y
_atom_site_fract_z
_atom_type_partial_charge
C1    C     C_R   0.502720 0.261775 0.505670 0.833056
C2    C     C_R   0.273208 0.020194 0.764290 -0.154254
C3    C     C_R   0.224538 0.924208 0.687613 0.317760
C4    C     C_R   0.289410 0.878613 0.578744 -0.108197
C5    C     C_R   0.400697 0.931666 0.550775 -0.063844
C6    C     C_R   0.426497 0.050388 0.593991 -0.002678
C7    C     C_R   0.510385 0.126017 0.519435 -0.128026
C8    C     C_R   0.591710 0.069745 0.440455 0.295106
C9    C     C_R   0.584120 0.941847 0.430756 -0.071321
C10   C     C_R   0.488492 0.872392 0.483058 -0.148175
C11   C     C_R   0.624264 0.694246 0.117770 -0.037801
C12   C     C_R   0.284329 0.496093 0.500097 0.764088
C13   C     C_R   0.635022 0.801746 0.024682 0.176251
C14   C     C_R   0.653587 0.784459 0.883398 -0.174170
C15   C     C_R   0.649587 0.662233 0.844348 0.303131
C16   C     C_R   0.573285 0.579807 0.918994 0.109535
C17   C     C_R   0.567057 0.588001 0.066006 0.015374
C18   C     C_R   0.430632 0.420582 0.078446 0.117611
C19   C     C_R   0.427886 0.425180 0.930921 0.024902
C20   C     C_R   0.495818 0.737553 0.495092 0.805397
C21   C     C_R   0.715580 0.498561 0.500256 0.870577
C22   C     C_1   0.162399 0.491916 0.500017 -0.120172
C23   C     C_1   0.059677 0.490711 0.500136 0.098957
C24   C     C_1   0.939824 0.492263 0.500290 0.108058
C25   C     C_1   0.837271 0.494955 0.500429 -0.054459
C26   C     C_R   0.376173 0.081304 0.717993 0.124787
Cu1   Cu    Cu3+1 0.499990 0.499990 0.640660 1.018749
Cu2   Cu    Cu3+1 0.500010 0.500010 0.359340 0.996533
H1    H     H_    0.366328 0.367043 0.879136 0.141659
H2    H     H_    0.654417 0.896137 0.386360 0.241387
N1    N     N_R   0.501070 0.501210 0.147910 -0.207083
N2    N     N_R   0.501110 0.501290 0.852040 -0.190641
O1    O     O_R   0.499990 0.319640 0.618810 -0.548820
O2    O     O_R   0.500000 0.319660 0.381240 -0.543423
O3    O     O_R   0.337190 0.500000 0.618790 -0.578141
O4    O     O_R   0.337200 0.500030 0.381210 -0.612423
O5    O     O_R   0.500000 0.680340 0.618760 -0.572360
O6    O     O_R   0.500010 0.680360 0.381190 -0.578460
O7    O     O_R   0.662800 0.499970 0.618790 -0.532984
O8    O     O_R   0.662810 0.500000 0.381210 -0.599251
Br1   Br    Br    0.723919 0.161717 0.364861 -0.370010
C27   C     C_2   0.697790 0.886576 0.784826 0.531578
H3    H     H_    0.697928 0.982487 0.811028 0.141366
O9    O     O_2   0.735313 0.864395 0.671801 -0.498328
Br2   Br    Br    0.802530 0.602466 0.829401 -0.405284
Br3   Br    Br    0.478359 0.142620 0.856208 -0.446423
C28   C     C_2   0.219196 0.059812 0.892062 0.546322
H4    H     H_    0.231095 0.155331 0.918951 0.083123
O10   O     O_2   0.165402 0.986444 0.971288 -0.451677
Br4   Br    Br    0.074139 0.853208 0.737426 -0.266239
C29   C     C_2   0.236974 0.795994 0.476682 0.438302
H5    H     H_    0.288969 0.760434 0.397002 0.071381
O11   O     O_2   0.133826 0.774005 0.471801 -0.466256
C30   C     C_2   0.351829 0.330042 0.153283 0.418808
H6    H     H_    0.282284 0.360481 0.214572 0.081181
O12   O     O_2   0.362030 0.218889 0.143236 -0.497803
C31   C     C_2   0.730974 0.672766 0.197253 0.503095
H7    H     H_    0.776045 0.587416 0.187203 0.093866
O13   O     O_2   0.772757 0.750517 0.269938 -0.498007
Br5   Br    Br    0.661290 0.962618 0.093362 -0.345229

loop_
_geom_bond_atom_site_label_1
_geom_bond_atom_site_label_2
_ccdc_geom_bond_type
C15   C16   A    
C23   C24   S    
C6    C7    A    
C2    C28   S    
C16   N2    A    
C20   O6    A    
C9    C10   A    
C28   H4    S    
C21   O7    A    
Cu2   O6    S    
C14   C27   S    
C14   C15   A    
C2    C3    A    
C8    C9    A    
C1    O1    A    
C5    C10   A    
C2    C26   A    
C13   Br5   S    
C11   C31   S    
C13   C14   A    
Cu1   O1    S    
C12   O3    A    
C8    Br1   S    
C20   O5    A    
C11   C13   A    
C31   H7    S    
C6    C26   A    
C21   O8    A    
C27   O9    D    
C9    H2    S    
Cu1   O5    S    
C19   N2    A    
C3    Br4   S    
C1    O2    A    
C22   C23   T    
C5    C6    A    
C17   N1    A    
C30   O12   D    
C31   O13   D    
C12   O4    A    
C27   H3    S    
Cu2   O8    S    
C4    C29   S    
Cu2   O2    S    
C29   H5    S    
C19   H1    S    
C12   C22   S    
C7    C8    A    
C24   C25   T    
Cu2   O4    S    
C28   O10   D    
C18   C19   A    
C10   C20   S    
Cu1   Cu2   S    
C18   C30   S    
C30   H6    S    
C11   C17   A    
C21   C25   S    
C18   N1    A    
Cu1   O3    S    
Cu1   N2    S    
C1    C7    S    
C26   Br3   S    
Cu2   N1    S    
C3    C4    A    
C16   C17   A    
Cu1   O7    S    
C4    C5    A    
C29   O11   D    
C15   Br2   S    
