data_mof_unit_18309.cif
_audit_creation_date              2012-12-10T17:18:57-0500
_audit_creation_method            fapswitch 2.2
_symmetry_space_group_name_H-M    P1
_symmetry_Int_Tables_number       1
_space_group_crystal_system       triclinic
_cell_length_a                    10.231732
_cell_length_b                    10.430726
_cell_length_c                    13.482235
_cell_angle_alpha                 92.157966
_cell_angle_beta                  101.212841
_cell_angle_gamma                 94.417868
_cell_volume                      1405.18435451

loop_
_atom_site_label
_atom_site_type_symbol
_atom_type_description
_atom_site_fract_x
_atom_site_fract_y
_atom_site_fract_z
_atom_type_partial_charge
C1    C     C_R   0.053293 0.735001 0.497873 0.917351
C2    C     C_R   0.950379 0.265468 0.510149 0.947627
C3    C     C_R   0.424468 0.487447 0.147178 0.348741
C4    C     C_R   0.457358 0.280693 0.930042 0.358038
C5    C     C_R   0.297295 0.532875 0.113552 0.387727
C6    C     C_R   0.589349 0.244754 0.958611 0.419724
C7    C     C_2   0.087887 0.873315 0.513640 -0.055053
C8    C     C_2   0.933738 0.129699 0.530930 -0.040926
C9    C     C_2   0.042917 0.936952 0.587900 0.302101
C10   C     C_2   0.039739 0.077558 0.586664 0.303901
C11   C     C_2   0.429646 0.514277 0.507063 0.005528
C12   C     C_2   0.569194 0.483233 0.497980 -0.011732
C13   C     C_R   0.094885 0.513035 0.686951 0.961986
C14   C     C_R   0.904958 0.485100 0.313428 0.926651
C15   C     C_R   0.144086 0.514583 0.797084 -0.167811
C16   C     C_R   0.845537 0.449044 0.207662 -0.100544
C17   C     C_R   0.118816 0.578333 0.968036 0.273780
C18   C     C_R   0.815741 0.289463 0.067614 0.265844
C19   C     C_R   0.070755 0.568494 0.862850 -0.350859
C20   C     C_R   0.894723 0.351475 0.155413 -0.355874
C21   C     C_R   0.265702 0.465096 0.836296 0.443478
C22   C     C_R   0.721761 0.492091 0.168246 0.408396
C23   C     C_R   0.304884 0.454549 0.941776 -0.148871
C24   C     C_R   0.630118 0.412964 0.095282 -0.156146
C25   C     C_R   0.239520 0.522843 0.008651 -0.075604
C26   C     C_R   0.679196 0.315561 0.038820 -0.062614
C27   C     C_R   0.416729 0.387666 0.981504 -0.142051
C28   C     C_R   0.491887 0.430788 0.075841 -0.126544
H1    H     H_    0.993142 0.320966 0.183983 0.173064
H2    H     H_    0.979760 0.610529 0.831001 0.195506
H3    H     H_    0.581436 0.395184 0.456690 0.144734
H4    H     H_    0.416251 0.597963 0.552880 0.122207
N1    N     N_2   0.322180 0.446120 0.460900 -0.011605
N2    N     N_2   0.677820 0.553880 0.539100 -0.021224
O1    O     O_R   0.935190 0.693030 0.507870 -0.540130
O2    O     O_R   0.064810 0.306970 0.492130 -0.571356
O3    O     O_R   0.142080 0.658430 0.482770 -0.627775
O4    O     O_R   0.857920 0.341570 0.517230 -0.635216
O5    O     O_R   0.969700 0.527180 0.651960 -0.614930
O6    O     O_R   0.030300 0.472820 0.348040 -0.613418
O7    O     O_R   0.176600 0.492580 0.626860 -0.534318
O8    O     O_R   0.823400 0.507420 0.373140 -0.568256
Zn1   Zn    Zn3+2 0.861850 0.523100 0.516760 1.002822
Zn2   Zn    Zn3+2 0.138150 0.476900 0.483240 0.995775
O9    O     O_3   0.229290 0.587982 0.181263 -0.768647
H5    H     H_    0.286399 0.599576 0.249729 0.379951
O10   O     O_3   0.631700 0.140705 0.910425 -0.745962
H6    H     H_    0.561564 0.105324 0.852615 0.375228
O11   O     O_3   0.693906 0.611243 0.203299 -0.733187
H7    H     H_    0.631073 0.648208 0.148525 0.340655
O12   O     O_3   0.348841 0.434882 0.770919 -0.704332
H8    H     H_    0.442288 0.462890 0.804500 0.321896
N3    N     N_2   0.051108 0.649776 0.032032 -0.232920
H9    H     H_    0.100589 0.737724 0.059295 0.252685
C29   C     C_3   0.907217 0.651380 0.004694 -0.765696
H10   H     H_    0.869046 0.686700 0.071369 0.260026
H11   H     H_    0.859357 0.552891 0.980953 0.245889
H12   H     H_    0.879802 0.717941 0.943093 0.223500
N4    N     N_2   0.872592 0.196129 0.013111 -0.236499
H13   H     H_    0.937834 0.142179 0.058728 0.213309
C30   C     C_3   0.929399 0.247167 0.931054 -0.687576
H14   H     H_    0.959613 0.166907 0.886415 0.230716
H15   H     H_    0.019223 0.313827 0.961753 0.221058
H16   H     H_    0.855071 0.298929 0.879718 0.251704
O13   O     O_3   0.475220 0.490766 0.250071 -0.754775
H17   H     H_    0.533889 0.419634 0.264209 0.351169
O14   O     O_3   0.368390 0.205315 0.856420 -0.757478
H18   H     H_    0.276010 0.217125 0.865129 0.354354
O15   O     O_3   0.146927 0.156408 0.640796 -0.737006
H19   H     H_    0.211606 0.101026 0.678747 0.358348
O16   O     O_3   0.990617 0.870001 0.660058 -0.766989
H20   H     H_    0.961587 0.933315 0.706288 0.331005
N5    N     N_2   0.813620 0.054539 0.483539 -0.339381
H21   H     H_    0.825680 0.961948 0.459610 0.249925
C31   C     C_3   0.705130 0.059742 0.537751 -0.757197
H22   H     H_    0.614848 0.002612 0.493998 0.237017
H23   H     H_    0.679993 0.160497 0.547638 0.254980
H24   H     H_    0.732806 0.018669 0.613099 0.245567
N6    N     N_2   0.153283 0.939789 0.443943 -0.330179
H25   H     H_    0.127954 0.898374 0.371329 0.227549
C32   C     C_3   0.296679 0.962199 0.477206 -0.768542
H26   H     H_    0.339406 0.016853 0.420188 0.236069
H27   H     H_    0.342802 0.869117 0.485689 0.237407
H28   H     H_    0.321956 0.019424 0.550440 0.258324
N7    N     N_2   0.666038 0.677124 0.575778 -0.192108
H29   H     H_    0.591782 0.726562 0.534933 0.202093
C33   C     C_3   0.680343 0.689396 0.684426 -0.692164
H30   H     H_    0.596480 0.632903 0.708511 0.205391
H31   H     H_    0.680036 0.792220 0.708762 0.221630
H32   H     H_    0.776420 0.654298 0.721526 0.256111
N8    N     N_2   0.341552 0.327138 0.420538 -0.248705
H33   H     H_    0.349640 0.257496 0.473198 0.241846
C34   C     C_3   0.250605 0.286332 0.326903 -0.635152
H34   H     H_    0.292654 0.208131 0.288231 0.193365
H35   H     H_    0.237335 0.367084 0.275909 0.265039
H36   H     H_    0.152313 0.248484 0.341305 0.238563

loop_
_geom_bond_atom_site_label_1
_geom_bond_atom_site_label_2
_ccdc_geom_bond_type
C29   H10   S    
C34   H34   S    
N5    H21   S    
C18   C26   A    
C33   H30   S    
C4    C27   A    
C13   O7    A    
C32   H26   S    
N3    H9    S    
C15   C19   A    
C3    C28   A    
C24   C26   A    
O15   H19   S    
N1    N8    S    
N7    H29   S    
C30   H15   S    
C33   H32   S    
C23   C27   A    
O1    Zn1   S    
C9    C10   S    
C18   C20   A    
C1    O3    A    
C14   O8    A    
N7    C33   S    
N4    H13   S    
C34   H35   S    
N5    C31   S    
C3    O13   S    
C32   H27   S    
C20   H1    S    
N3    C29   S    
C21   C23   A    
N4    C30   S    
C6    O10   S    
O14   H18   S    
C24   C28   A    
C11   N1    D    
C4    C6    A    
N8    H33   S    
N6    C32   S    
O5    Zn1   S    
O9    H5    S    
C5    O9    S    
O12   H8    S    
N2    N7    S    
C30   H16   S    
C31   H22   S    
N8    C34   S    
C2    O4    A    
O10   H6    S    
O6    Zn2   S    
C16   C20   A    
C31   H23   S    
C22   O11   S    
C5    C25   A    
C11   H4    S    
O13   H17   S    
C34   H36   S    
C13   C15   S    
C12   H3    S    
O7    Zn2   S    
C14   C16   S    
O2    Zn2   S    
O8    Zn1   S    
C12   N2    D    
C17   N3    S    
C21   O12   S    
C32   H28   S    
C1    O1    A    
C7    N6    S    
C2    O2    A    
C7    C9    D    
C16   C22   A    
C1    C7    S    
N1    Zn2   S    
C2    C8    S    
N2    Zn1   S    
C9    O16   S    
C3    C5    A    
C4    O14   S    
C11   C12   S    
C17   C25   A    
O3    Zn2   S    
C29   H11   S    
O4    Zn1   S    
C6    C26   A    
C8    N5    S    
C17   C19   A    
C22   C24   A    
C23   C25   A    
C30   H14   S    
C31   H24   S    
C13   O5    A    
C14   O6    A    
N6    H25   S    
C10   O15   S    
C18   N4    S    
C15   C21   A    
O16   H20   S    
C8    C10   D    
O11   H7    S    
C29   H12   S    
C27   C28   A    
C33   H31   S    
C19   H2    S    
