data_mof_unit_6748.cif
_audit_creation_date              2012-12-10T16:49:30-0500
_audit_creation_method            fapswitch 2.2
_symmetry_space_group_name_H-M    P1
_symmetry_Int_Tables_number       1
_space_group_crystal_system       triclinic
_cell_length_a                    7.756666
_cell_length_b                    8.585096
_cell_length_c                    12.876534
_cell_angle_alpha                 90.372001
_cell_angle_beta                  87.762407
_cell_angle_gamma                 93.78747
_cell_volume                      854.938839618

loop_
_atom_site_label
_atom_site_type_symbol
_atom_type_description
_atom_site_fract_x
_atom_site_fract_y
_atom_site_fract_z
_atom_type_partial_charge
C1    C     C_R   0.454521 0.205203 0.497261 0.964539
C2    C     C_R   0.706546 0.446366 0.139910 -0.288255
C3    C     C_R   0.584826 0.467105 0.868164 -0.252554
C4    C     C_R   0.415173 0.532894 0.131836 -0.252556
C5    C     C_R   0.576014 0.475053 0.974919 -0.024634
C6    C     C_R   0.423985 0.524946 0.025081 -0.024635
C7    C     C_2   0.430724 0.041591 0.495712 -0.383799
C8    C     C_2   0.569276 0.958409 0.504288 -0.383800
C9    C     C_3   0.140877 0.773485 0.027027 0.080190
C10   C     C_3   0.982141 0.820257 0.089698 -0.810217
C11   C     C_3   0.859121 0.226511 0.972977 0.080182
C12   C     C_R   0.545479 0.794797 0.502739 0.964539
C13   C     C_3   0.017849 0.179734 0.910303 -0.810260
C14   C     C_R   0.465544 0.502754 0.699778 0.910145
C15   C     C_R   0.534456 0.497246 0.300222 0.910144
C16   C     C_R   0.554837 0.493546 0.189024 -0.150013
C17   C     C_R   0.445163 0.506454 0.810975 -0.150016
C18   C     C_R   0.283369 0.566355 0.967619 0.522477
C19   C     C_R   0.716630 0.433643 0.032381 0.522479
C20   C     C_R   0.293453 0.553633 0.860090 -0.288247
H1    H     H_    0.298458 0.570150 0.170773 0.211684
H2    H     H_    0.257671 0.816812 0.069069 0.125140
H3    H     H_    0.971581 0.757627 0.165146 0.255023
H4    H     H_    0.993472 0.947577 0.105378 0.199342
H5    H     H_    0.863657 0.790958 0.045893 0.256281
H6    H     H_    0.742323 0.183179 0.930944 0.125146
H7    H     H_    0.856723 0.170159 0.050618 0.136640
H8    H     H_    0.136335 0.209035 0.954100 0.256289
H9    H     H_    0.006520 0.052414 0.894628 0.199349
H10   H     H_    0.028399 0.242355 0.834855 0.255032
H11   H     H_    0.701541 0.429849 0.829227 0.211686
H12   H     H_    0.815350 0.416621 0.184424 0.184723
H13   H     H_    0.184649 0.583377 0.815576 0.184724
H14   H     H_    0.998653 0.615057 0.421934 0.190190
H15   H     H_    0.001347 0.384943 0.578066 0.190191
H16   H     H_    0.299993 0.990118 0.487538 0.180052
H17   H     H_    0.700006 0.009882 0.512462 0.180052
H18   H     H_    0.143286 0.829844 0.949386 0.136630
N1    N     N_2   0.054030 0.541640 0.471970 -0.176383
N2    N     N_2   0.945970 0.458360 0.528030 -0.176383
O1    O     O_R   0.609680 0.261530 0.506880 -0.613836
O2    O     O_3   0.867894 0.390320 0.983550 -0.568100
O3    O     O_R   0.390320 0.738470 0.493120 -0.613837
O4    O     O_R   0.323330 0.288220 0.488910 -0.629977
O5    O     O_R   0.676670 0.711780 0.511090 -0.629977
O6    O     O_R   0.619510 0.488830 0.661140 -0.624452
O7    O     O_R   0.380490 0.511170 0.338860 -0.624453
O8    O     O_R   0.333160 0.515520 0.643180 -0.631945
O9    O     O_R   0.666840 0.484480 0.356820 -0.631946
O10   O     O_3   0.132104 0.609675 0.016449 -0.568100
Zn1   Zn    Zn3+2 0.691200 0.482180 0.511990 0.937754
Zn2   Zn    Zn3+2 0.308800 0.517820 0.488010 0.937754

loop_
_geom_bond_atom_site_label_1
_geom_bond_atom_site_label_2
_ccdc_geom_bond_type
C4    C16   A    
C13   H8    S    
O7    Zn2   S    
C5    C19   A    
C15   O7    A    
C10   H3    S    
N2    Zn1   S    
C2    C16   A    
C9    C10   S    
C1    O4    A    
C19   O2    S    
C11   H7    S    
C8    C12   S    
O4    Zn2   S    
H15   N2    S    
C7    C8    D    
C14   O6    A    
C3    H11   S    
C4    H1    S    
C11   C13   S    
C14   C17   S    
C20   H13   S    
C10   H5    S    
C1    O1    A    
C9    H18   S    
C3    C17   A    
C12   O3    A    
C18   C20   A    
C15   O9    A    
C5    C6    A    
C6    C18   A    
O3    Zn2   S    
C4    C6    A    
C8    H17   S    
O5    Zn1   S    
C15   C16   S    
C3    C5    A    
C13   H10   S    
O8    Zn2   S    
C17   C20   A    
C18   O10   S    
C11   O2    S    
C2    H12   S    
C9    H2    S    
C7    H16   S    
C13   H9    S    
N1    N2    D    
C14   O8    A    
C11   H6    S    
C10   H4    S    
C2    C19   A    
C1    C7    S    
O6    Zn1   S    
O1    Zn1   S    
C9    O10   S    
H14   N1    S    
N1    Zn2   S    
C12   O5    A    
O9    Zn1   S    
