data_mof_unit_33319.cif
_audit_creation_date              2012-12-10T16:57:50-0500
_audit_creation_method            fapswitch 2.2
_symmetry_space_group_name_H-M    P1
_symmetry_Int_Tables_number       1
_space_group_crystal_system       triclinic
_cell_length_a                    13.037134
_cell_length_b                    13.17067
_cell_length_c                    15.205753
_cell_angle_alpha                 87.069487
_cell_angle_beta                  99.235372
_cell_angle_gamma                 91.035762
_cell_volume                      2573.60231384

loop_
_atom_site_label
_atom_site_type_symbol
_atom_type_description
_atom_site_fract_x
_atom_site_fract_y
_atom_site_fract_z
_atom_type_partial_charge
Br1   Br    Br    0.073752 0.630171 0.346549 -0.518130
Br2   Br    Br    0.070988 0.375365 0.577115 -0.618871
Br3   Br    Br    0.683231 0.685853 0.830502 -0.544568
Br4   Br    Br    0.473374 0.252612 0.214317 -0.592993
Br5   Br    Br    0.297167 0.895462 0.493030 -0.550228
C1    C     C_R   0.465169 0.772482 0.466375 0.532817
C2    C     C_2   0.475972 0.061707 0.480407 -0.018499
C3    C     C_2   0.436213 0.878437 0.468251 0.154426
C4    C     C_R   0.535439 0.227797 0.532846 0.502954
C5    C     C_2   0.505926 0.956003 0.467219 -0.048481
C6    C     C_2   0.111739 0.467469 0.484910 0.142620
C7    C     C_2   0.042531 0.533728 0.438712 0.126276
C8    C     C_2   0.888132 0.560139 0.514367 -0.001466
C9    C     C_2   0.931422 0.522812 0.445412 0.001153
C10   C     C_R   0.777150 0.538338 0.521900 0.488098
C11   C     C_R   0.223054 0.467210 0.477458 0.554165
C12   C     C_R   0.480528 0.369734 0.133328 0.121386
C13   C     C_R   0.516637 0.515617 0.742134 0.527946
C14   C     C_R   0.485694 0.479573 0.259814 0.543015
C15   C     C_R   0.531133 0.516441 0.841081 0.008415
C16   C     C_R   0.484813 0.468142 0.164996 0.029975
C17   C     C_R   0.484197 0.355894 0.043284 -0.009692
C18   C     C_R   0.420456 0.356108 0.847619 0.060532
C19   C     C_R   0.462033 0.276276 0.806534 -0.026998
C20   C     C_R   0.396207 0.203315 0.762798 -0.074080
C21   C     C_R   0.288814 0.209091 0.759861 -0.085886
C22   C     C_R   0.246975 0.287764 0.800790 -0.086507
C23   C     C_R   0.507005 0.552271 0.110311 -0.069427
C24   C     C_R   0.312390 0.361096 0.844491 -0.081241
C25   C     C_R   0.611580 0.070901 0.616157 0.005512
C26   C     C_R   0.716215 0.102008 0.634034 -0.089845
C27   C     C_R   0.781631 0.061003 0.708870 -0.119772
C28   C     C_R   0.742716 0.990238 0.767160 -0.096455
C29   C     C_R   0.638419 0.960017 0.750522 -0.097177
C30   C     C_R   0.573137 0.999639 0.675144 -0.113108
C31   C     C_R   0.872973 0.462759 0.373009 0.086968
C32   C     C_R   0.811734 0.511941 0.299557 -0.065790
C33   C     C_R   0.756228 0.454824 0.232297 -0.093293
C34   C     C_R   0.529625 0.535986 0.024153 -0.041262
C35   C     C_R   0.762182 0.348942 0.237126 -0.064992
C36   C     C_R   0.823756 0.299486 0.309590 -0.100194
C37   C     C_R   0.879122 0.355958 0.377201 -0.065173
C38   C     C_R   0.950547 0.620654 0.584381 0.033577
C39   C     C_R   0.006926 0.707419 0.561598 -0.095232
C40   C     C_R   0.064872 0.763660 0.628145 -0.100465
C41   C     C_R   0.066678 0.734183 0.717929 -0.102016
C42   C     C_R   0.010145 0.648655 0.741318 -0.086018
C43   C     C_R   0.952074 0.592230 0.674960 -0.028855
C44   C     C_R   0.488135 0.250120 0.014926 0.077296
C45   C     C_R   0.500661 0.441653 0.985946 -0.036326
C46   C     C_R   0.581537 0.211839 0.995777 -0.092546
C47   C     C_R   0.584440 0.113655 0.965460 -0.127202
C48   C     C_R   0.494933 0.052522 0.956054 -0.109446
C49   C     C_R   0.402696 0.088855 0.977988 -0.106239
C50   C     C_R   0.399064 0.187379 0.007330 -0.050050
C51   C     C_R   0.654637 0.685465 0.023968 0.077922
C52   C     C_R   0.752591 0.657065 0.070451 -0.082081
C53   C     C_R   0.817955 0.728927 0.116190 -0.109712
C54   C     C_R   0.787013 0.830130 0.113970 -0.103258
C55   C     C_R   0.691732 0.859888 0.064390 -0.108326
C56   C     C_R   0.488926 0.436765 0.892023 -0.060181
C57   C     C_R   0.626353 0.788199 0.018234 -0.050339
C58   C     C_R   0.499420 0.656452 0.141401 0.050052
C59   C     C_R   0.420764 0.721506 0.098337 -0.081890
C60   C     C_R   0.414430 0.820441 0.126152 -0.103600
C61   C     C_R   0.485927 0.854438 0.197350 -0.087352
C62   C     C_R   0.562870 0.789216 0.241608 -0.101913
C63   C     C_R   0.569809 0.690785 0.213792 -0.067473
C64   C     C_R   0.614019 0.942068 0.448991 -0.001584
C65   C     C_R   0.645769 0.993510 0.374357 -0.105337
C66   C     C_R   0.748199 0.986597 0.358811 -0.117758
C67   C     C_R   0.589957 0.595396 0.886480 0.133866
C68   C     C_R   0.820850 0.931105 0.419118 -0.113082
C69   C     C_R   0.791423 0.883843 0.495636 -0.114079
C70   C     C_R   0.688992 0.889798 0.510947 -0.061619
C71   C     C_R   0.380530 0.105567 0.423778 0.067495
C72   C     C_R   0.356190 0.084464 0.333076 -0.016344
C73   C     C_R   0.263869 0.119475 0.281509 -0.057165
C74   C     C_R   0.193838 0.174678 0.320196 -0.094717
C75   C     C_R   0.214947 0.192942 0.410932 -0.096756
C76   C     C_R   0.306823 0.157394 0.462756 -0.041325
C77   C     C_R   0.585168 0.607993 0.976767 -0.008973
C78   C     C_2   0.540210 0.117624 0.539338 0.004354
H1    H     H_    0.545052 0.271820 0.807355 0.102477
H2    H     H_    0.492235 0.976172 0.663556 0.136008
H3    H     H_    0.806869 0.594047 0.294889 0.102760
H4    H     H_    0.707006 0.492142 0.177012 0.100148
H5    H     H_    0.718649 0.305315 0.184960 0.132094
H6    H     H_    0.828272 0.217383 0.313637 0.105522
H7    H     H_    0.925355 0.315882 0.433000 0.149371
H8    H     H_    0.004131 0.733054 0.492576 0.158691
H9    H     H_    0.107719 0.830591 0.610089 0.159017
H10   H     H_    0.111469 0.777884 0.769370 0.111080
H11   H     H_    0.011311 0.626039 0.810902 0.121939
H12   H     H_    0.428417 0.142464 0.731001 0.110745
H13   H     H_    0.909062 0.525837 0.694173 0.134021
H14   H     H_    0.651045 0.258947 0.002163 0.098940
H15   H     H_    0.655759 0.085388 0.948304 0.105995
H16   H     H_    0.496796 0.977306 0.931169 0.098590
H17   H     H_    0.333622 0.041246 0.970946 0.096495
H18   H     H_    0.326723 0.215562 0.022603 0.119621
H19   H     H_    0.778859 0.579690 0.070066 0.112062
H20   H     H_    0.892705 0.706203 0.153051 0.150750
H21   H     H_    0.837246 0.885662 0.149933 0.113844
H22   H     H_    0.668274 0.938249 0.062691 0.113088
H23   H     H_    0.238002 0.152638 0.725802 0.121395
H24   H     H_    0.552771 0.811702 0.979862 0.103970
H25   H     H_    0.365522 0.695994 0.042659 0.108427
H26   H     H_    0.354776 0.871000 0.092038 0.106601
H27   H     H_    0.482131 0.931406 0.217600 0.109684
H28   H     H_    0.618139 0.814527 0.296888 0.118614
H29   H     H_    0.630443 0.641727 0.248035 0.082674
H30   H     H_    0.591354 0.038741 0.327894 0.137023
H31   H     H_    0.771330 0.024816 0.300276 0.108712
H32   H     H_    0.900336 0.926351 0.407467 0.130911
H33   H     H_    0.848287 0.844302 0.544255 0.129992
H34   H     H_    0.163750 0.292128 0.798394 0.136917
H35   H     H_    0.669979 0.857513 0.573161 0.174976
H36   H     H_    0.408543 0.041002 0.302017 0.112313
H37   H     H_    0.246717 0.103694 0.211475 0.118003
H38   H     H_    0.122404 0.201744 0.280252 0.111231
H39   H     H_    0.159124 0.232931 0.441514 0.144931
H40   H     H_    0.317981 0.166618 0.533915 0.149511
H41   H     H_    0.279005 0.422072 0.875450 0.108925
H42   H     H_    0.747214 0.157294 0.589777 0.133839
H43   H     H_    0.862360 0.084613 0.721996 0.118458
H44   H     H_    0.793202 0.959225 0.825469 0.133008
H45   H     H_    0.607899 0.906404 0.796328 0.152841
O1    O     O_3   0.500000 0.500000 0.500000 -0.461865
O2    O     O_R   0.563230 0.581310 0.697440 -0.480571
O3    O     O_R   0.421030 0.536630 0.288090 -0.523711
O4    O     O_R   0.459330 0.447650 0.700640 -0.541660
O5    O     O_R   0.556410 0.434400 0.313840 -0.510027
O6    O     O_R   0.733070 0.467190 0.476550 -0.540167
O7    O     O_R   0.261010 0.525210 0.419080 -0.484592
O8    O     O_R   0.532760 0.736590 0.530220 -0.559586
O9    O     O_R   0.473150 0.271000 0.574150 -0.566304
O10   O     O_R   0.407210 0.713280 0.414580 -0.489625
O11   O     O_R   0.586880 0.279120 0.481060 -0.516616
O12   O     O_R   0.723250 0.592730 0.566440 -0.532441
O13   O     O_R   0.282660 0.414860 0.537920 -0.514339
Zn1   Zn    Zn3+2 0.592480 0.421540 0.443840 0.962003
Zn2   Zn    Zn3+2 0.578450 0.600910 0.572270 0.965484
Zn3   Zn    Zn3+2 0.430000 0.409940 0.576840 0.956255
Zn4   Zn    Zn3+2 0.399070 0.567610 0.407050 1.014109

loop_
_geom_bond_atom_site_label_1
_geom_bond_atom_site_label_2
_ccdc_geom_bond_type
C46   H14   S    
C2    C5    S    
C36   H6    S    
O4    Zn3   S    
C22   C24   A    
C30   H2    S    
C68   C69   A    
C49   C50   A    
C31   C37   A    
O12   Zn2   S    
C21   H23   S    
C52   C53   A    
C10   O6    A    
C75   H39   S    
C48   C49   A    
C48   H16   S    
C52   H19   S    
C74   H38   S    
O5    Zn1   S    
C25   C30   A    
C76   H40   S    
C54   H21   S    
C18   C24   A    
C31   C32   A    
C14   C16   S    
O8    Zn2   S    
C9    C31   S    
C25   C26   A    
O11   Zn1   S    
O10   Zn4   S    
C24   H41   S    
C28   H44   S    
C51   C52   A    
C55   C57   A    
C29   C30   A    
C36   C37   A    
C27   H43   S    
C25   C78   S    
C40   H9    S    
C1    O8    A    
C41   C42   A    
C4    O9    A    
C42   C43   A    
O7    Zn4   S    
C13   O4    A    
C18   C19   A    
O3    Zn4   S    
C65   C66   A    
C38   C43   A    
O1    Zn4   S    
C72   C73   A    
C17   C45   A    
C61   C62   A    
C11   O13   A    
C54   C55   A    
C8    C9    D    
C49   H17   S    
Br1   C7    S    
Br2   C6    S    
C59   H25   S    
C22   H34   S    
C65   H30   S    
C14   O3    A    
C69   C70   A    
C58   C59   A    
C62   C63   A    
C32   H3    S    
C19   C20   A    
O13   Zn3   S    
O1    Zn3   S    
C73   C74   A    
C1    C3    S    
O1    Zn1   S    
C23   C34   A    
C44   C46   A    
C53   C54   A    
C44   C50   A    
C12   C16   A    
C46   C47   A    
C66   H31   S    
C37   H7    S    
C1    O10   A    
C73   H37   S    
C38   C39   A    
C23   C58   S    
C32   C33   A    
O6    Zn1   S    
C6    C11   S    
C26   C27   A    
C69   H33   S    
C28   C29   A    
C21   C22   A    
C71   C72   A    
O2    Zn2   S    
C60   H26   S    
C39   H8    S    
C4    C78   S    
C17   C44   S    
O1    Zn2   S    
Br4   C12   S    
C62   H28   S    
C35   C36   A    
O9    Zn3   S    
C7    C9    S    
C20   H12   S    
C8    C10   S    
C70   H35   S    
C51   C57   A    
C13   O2    A    
C26   H42   S    
C8    C38   S    
C47   C48   A    
C66   C68   A    
C10   O12   A    
C50   H18   S    
C58   C63   A    
C43   H13   S    
C16   C23   A    
C3    C5    D    
C39   C40   A    
C34   C77   A    
C75   C76   A    
C72   H36   S    
C71   C76   A    
Br5   C3    S    
C6    C7    D    
C51   C77   S    
C2    C71   S    
C57   H24   S    
C14   O5    A    
C15   C56   A    
C12   C17   A    
C68   H32   S    
C33   H4    S    
C59   C60   A    
C35   H5    S    
Br3   C67   S    
C20   C21   A    
C27   C28   A    
C33   C35   A    
C4    O11   A    
C2    C78   D    
C41   H10   S    
C47   H15   S    
C42   H11   S    
C64   C70   A    
C13   C15   S    
C19   H1    S    
C64   C65   A    
C67   C77   A    
C74   C75   A    
C5    C64   S    
C40   C41   A    
C18   C56   S    
C34   C45   A    
C61   H27   S    
C29   H45   S    
C60   C61   A    
C45   C56   A    
C15   C67   A    
C53   H20   S    
C11   O7    A    
C63   H29   S    
C55   H22   S    
