data_mof_unit_60705.cif
_audit_creation_date              2012-10-26T17:30:52-0400
_audit_creation_method            fapswitch 2.2
_symmetry_space_group_name_H-M    P1
_symmetry_Int_Tables_number       1
_space_group_crystal_system       triclinic
_cell_length_a                    27.833941
_cell_length_b                    27.82098
_cell_length_c                    27.949181
_cell_angle_alpha                 109.372907
_cell_angle_beta                  109.708966
_cell_angle_gamma                 109.193649
_cell_volume                      16688.8234167

loop_
_atom_site_label
_atom_site_type_symbol
_atom_type_description
_atom_site_fract_x
_atom_site_fract_y
_atom_site_fract_z
_atom_type_partial_charge
C1    C     C_R   0.920389 0.920374 0.499943 0.554173
C2    C     C_R   0.706106 0.704680 0.497932 0.035820
C3    C     C_R   0.690948 0.719172 0.453294 0.291112
C4    C     C_R   0.920096 0.000021 0.420104 0.553354
C5    C     C_R   0.734629 0.763986 0.454746 -0.082834
C6    C     C_R   0.793407 0.792701 0.498905 -0.007855
C7    C     C_R   0.808450 0.777261 0.542435 -0.123952
C8    C     C_1   0.661568 0.660500 0.498822 -0.027843
C9    C     C_1   0.838242 0.837931 0.499472 -0.055208
C10   C     C_1   0.875747 0.875645 0.499777 -0.021631
C11   C     C_1   0.624193 0.623546 0.499393 -0.019544
C12   C     C_3   0.792254 0.999913 0.292314 0.007538
C13   C     C_R   0.280712 0.970235 0.736169 -0.106326
C14   C     C_R   0.295090 0.999688 0.794768 0.038988
C15   C     C_R   0.265500 0.029129 0.809436 -0.105583
C16   C     C_R   0.079601 0.079625 0.500038 0.553662
C17   C     C_R   0.221866 0.029140 0.765838 -0.105848
C18   C     C_R   0.207485 0.999705 0.707238 0.037436
C19   C     C_R   0.237062 0.970236 0.692557 -0.105946
C20   C     C_1   0.340119 0.999754 0.839778 -0.059298
C21   C     C_1   0.162501 0.999790 0.662314 -0.058653
C22   C     C_1   0.124856 0.999892 0.624763 -0.024569
C23   C     C_3   0.773732 0.048605 0.250277 0.313075
C24   C     C_1   0.377783 0.999874 0.877519 -0.026199
C25   C     C_R   0.237620 0.255717 0.449949 -0.106166
C26   C     C_R   0.293518 0.293684 0.500049 0.037625
C27   C     C_R   0.305697 0.287973 0.550175 -0.105273
C28   C     C_R   0.080009 0.999972 0.579991 0.554834
C29   C     C_R   0.262267 0.244563 0.550199 -0.105117
C30   C     C_R   0.206374 0.206586 0.500094 0.038120
C31   C     C_R   0.194187 0.212308 0.449973 -0.106737
C32   C     C_1   0.338293 0.338405 0.500020 -0.058521
C33   C     C_1   0.161632 0.161806 0.500096 -0.059264
C34   C     C_3   0.709835 0.999384 0.210041 0.068133
C35   C     C_1   0.124190 0.124306 0.500082 -0.025525
C36   C     C_1   0.375773 0.375837 0.500003 -0.024192
C37   C     C_R   0.502267 0.079734 0.081769 0.554277
C38   C     C_R   0.582524 0.000082 0.082479 0.553381
C39   C     C_R   0.502982 0.920475 0.923395 0.550241
C40   C     C_3   0.707178 0.995467 0.262862 -0.135724
C41   C     C_R   0.422625 0.000029 0.922508 0.552322
C42   C     C_R   0.500278 0.420364 0.420798 0.549446
C43   C     C_R   0.579594 0.579443 0.499883 0.551409
C44   C     C_R   0.499575 0.579521 0.579232 0.555374
C45   C     C_3   0.795056 0.003638 0.239343 -0.098837
C46   C     C_R   0.420400 0.420421 0.499987 0.553823
C47   C     C_R   0.551658 0.306539 0.288899 0.279177
C48   C     C_R   0.501109 0.293947 0.294423 0.040355
C49   C     C_R   0.450970 0.238297 0.255936 -0.157883
C50   C     C_R   0.451229 0.195061 0.212641 -0.123874
C51   C     C_R   0.501696 0.207036 0.207571 -0.007051
C52   C     C_3   0.728103 0.949590 0.252364 -0.114228
C53   C     C_R   0.551919 0.262671 0.245903 -0.087859
C54   C     C_1   0.500416 0.338135 0.339123 -0.025356
C55   C     C_1   0.501980 0.162135 0.163236 -0.054591
C56   C     C_3   0.730083 0.953523 0.198870 -0.134698
C57   C     C_1   0.502105 0.124491 0.126076 -0.020787
C58   C     C_1   0.500283 0.375576 0.376437 -0.019461
C59   C     C_R   0.516594 0.710443 0.761480 -0.123524
C60   C     C_R   0.499202 0.705888 0.706209 -0.006353
C61   C     C_R   0.482309 0.745005 0.695086 -0.088589
C62   C     C_R   0.482185 0.788287 0.738854 0.279839
C63   C     C_R   0.500664 0.793278 0.794642 0.041788
C64   C     C_1   0.875418 0.000012 0.375478 -0.026285
C65   C     C_R   0.517414 0.753998 0.805521 -0.158268
C66   C     C_1   0.499135 0.661350 0.661147 -0.053316
C67   C     C_1   0.837869 0.999958 0.337943 -0.060239
C68   C     C_1   0.501987 0.838233 0.840573 -0.022705
C69   C     C_1   0.502626 0.875790 0.878545 -0.017470
C70   C     C_1   0.499260 0.624024 0.623659 -0.019707
C71   C     C_1   0.627129 0.999984 0.127075 -0.014069
C72   C     C_3   0.771993 0.045905 0.303833 -0.097654
C73   C     C_3   0.601110 0.398424 0.304807 0.004484
C74   C     C_3   0.652159 0.460320 0.351322 -0.242608
C75   C     C_3   0.652258 0.503986 0.329699 -0.497222
C76   C     C_3   0.406123 0.803949 0.702928 0.003986
C77   C     C_3   0.390187 0.849750 0.696004 -0.246549
C78   C     C_1   0.664497 0.999767 0.164523 -0.019142
C79   C     C_3   0.324155 0.826580 0.669618 -0.486830
C80   C     C_3   0.854236 0.139860 0.290072 0.006240
C81   C     C_3   0.858456 0.194028 0.333674 -0.258428
C82   C     C_3   0.922087 0.239361 0.381398 -0.483160
C83   C     C_3   0.618550 0.639208 0.363577 0.008920
C84   C     C_3   0.620991 0.648591 0.313286 -0.266894
C85   C     C_3   0.601561 0.591379 0.260798 -0.485683
C86   C     C_R   0.764957 0.733622 0.542086 -0.158340
Cu1   Cu    Cu3+1 0.999750 0.040980 0.540800 0.950756
Cu2   Cu    Cu3+1 0.000250 0.959020 0.459200 0.947549
Cu3   Cu    Cu3+1 0.461600 0.959120 0.002610 0.945913
Cu4   Cu    Cu3+1 0.543650 0.041070 0.002550 0.966072
Cu5   Cu    Cu3+1 0.458780 0.500040 0.458810 0.949395
Cu6   Cu    Cu3+1 0.541220 0.499960 0.541190 0.955889
H1    H     H_    0.722660 0.776170 0.421305 0.117555
H2    H     H_    0.411707 0.228274 0.259512 0.119110
H3    H     H_    0.412156 0.152215 0.183279 0.125269
H4    H     H_    0.531290 0.757160 0.848143 0.118023
H5    H     H_    0.529790 0.680490 0.770619 0.125024
H6    H     H_    0.469269 0.742068 0.652593 0.123070
H7    H     H_    0.831794 0.007792 0.230493 0.104242
H8    H     H_    0.789905 0.083783 0.347276 0.101307
H9    H     H_    0.853750 0.799187 0.576832 0.125286
H10   H     H_    0.777201 0.722579 0.576395 0.121693
H11   H     H_    0.709804 0.908495 0.253873 0.120025
H12   H     H_    0.226409 0.947308 0.647460 0.111210
H13   H     H_    0.303244 0.947339 0.724230 0.104819
H14   H     H_    0.199379 0.052086 0.777815 0.112537
H15   H     H_    0.559312 0.399932 0.292689 0.129050
H16   H     H_    0.606076 0.383728 0.265379 0.128136
H17   H     H_    0.648446 0.474557 0.391461 0.179024
H18   H     H_    0.694397 0.460139 0.362804 0.175602
H19   H     H_    0.656527 0.491036 0.289881 0.147808
H20   H     H_    0.689979 0.548358 0.364344 0.145213
H21   H     H_    0.610951 0.505885 0.319390 0.140447
H22   H     H_    0.390899 0.791751 0.731488 0.131058
H23   H     H_    0.276161 0.052067 0.854535 0.110919
H24   H     H_    0.383131 0.764374 0.658911 0.127247
H25   H     H_    0.413604 0.889768 0.739603 0.178915
H26   H     H_    0.404461 0.861955 0.667100 0.177525
H27   H     H_    0.299793 0.786726 0.625794 0.150184
H28   H     H_    0.314068 0.860626 0.664576 0.143271
H29   H     H_    0.309236 0.815767 0.698742 0.151118
H30   H     H_    0.712103 0.915518 0.155465 0.113493
H31   H     H_    0.878960 0.153516 0.268643 0.152365
H32   H     H_    0.876331 0.121462 0.314096 0.113710
H33   H     H_    0.839524 0.214215 0.310033 0.181186
H34   H     H_    0.151177 0.183243 0.410966 0.108916
H35   H     H_    0.832690 0.180868 0.354417 0.161612
H36   H     H_    0.941492 0.220481 0.406470 0.150560
H37   H     H_    0.923628 0.278129 0.412099 0.152446
H38   H     H_    0.948567 0.253907 0.361743 0.148985
H39   H     H_    0.572825 0.606311 0.347467 0.159332
H40   H     H_    0.646560 0.619869 0.376899 0.112827
H41   H     H_    0.591803 0.666410 0.299453 0.179693
H42   H     H_    0.666598 0.680817 0.328356 0.154455
H43   H     H_    0.631952 0.574349 0.272973 0.148991
H44   H     H_    0.602249 0.599430 0.224632 0.151041
H45   H     H_    0.227631 0.259656 0.410922 0.111209
H46   H     H_    0.556196 0.557968 0.245031 0.147603
H47   H     H_    0.348710 0.317032 0.589179 0.112708
H48   H     H_    0.272260 0.240615 0.589221 0.112060
H49   H     H_    0.591272 0.272135 0.242535 0.122931
H50   H     H_    0.670471 0.991692 0.271674 0.115869
O1    O     O_R   0.939930 0.974760 0.534440 -0.500204
O2    O     O_R   0.535120 0.440180 0.475200 -0.496391
O3    O     O_R   0.525050 0.559880 0.465230 -0.498180
O4    O     O_R   0.940350 0.905550 0.465530 -0.503479
O5    O     O_R   0.594670 0.559820 0.534800 -0.504255
O6    O     O_R   0.464880 0.559830 0.524810 -0.501061
O7    O     O_R   0.534500 0.559760 0.594380 -0.502144
O8    O     O_R   0.405330 0.440190 0.465210 -0.503373
O9    O     O_R   0.474950 0.440120 0.534770 -0.501852
O10   O     O_R   0.939640 0.034610 0.474300 -0.503074
O11   O     O_R   0.940060 0.965400 0.405390 -0.503478
O12   O     O_R   0.536970 0.094550 0.062100 -0.502431
O13   O     O_R   0.059650 0.094450 0.534470 -0.502764
O14   O     O_R   0.060070 0.025240 0.465560 -0.501935
O15   O     O_R   0.059940 0.034600 0.594610 -0.502149
O16   O     O_R   0.060360 0.965390 0.525700 -0.502243
O17   O     O_R   0.467680 0.025340 0.062150 -0.502224
O18   O     O_3   0.602176 0.360432 0.327864 -0.565381
O19   O     O_3   0.467585 0.828010 0.728124 -0.563525
O20   O     O_3   0.794769 0.099675 0.245957 -0.562946
O21   O     O_3   0.633017 0.692167 0.410017 -0.564273
O22   O     O_R   0.528130 0.965490 0.062760 -0.506716
O23   O     O_R   0.597420 0.034690 0.062700 -0.494725
O24   O     O_R   0.468280 0.905650 0.943070 -0.507722
O25   O     O_R   0.537570 0.974850 0.943010 -0.495888
O26   O     O_R   0.407830 0.965500 0.942460 -0.503108
O27   O     O_R   0.477120 0.034710 0.942410 -0.501526
O28   O     O_R   0.465500 0.440250 0.405630 -0.508667

loop_
_geom_bond_atom_site_label_1
_geom_bond_atom_site_label_2
_ccdc_geom_bond_type
C25   C31   A    
C38   O23   A    
Cu1   Cu2   S    
C63   C65   A    
C52   H11   S    
C34   C56   S    
C23   C45   S    
C40   H50   S    
Cu4   O25   S    
C27   C29   A    
C18   C21   S    
C73   C74   S    
C25   H45   S    
C61   H6    S    
C42   C58   S    
C74   H17   S    
C81   C82   S    
C76   O19   S    
C66   C70   T    
C76   H24   S    
C26   C32   S    
C79   H29   S    
C73   O18   S    
C84   H42   S    
C26   C27   A    
C29   C30   A    
C83   C84   S    
C34   C40   S    
Cu2   O14   S    
C77   H25   S    
C16   C35   S    
C72   H8    S    
C30   C31   A    
C50   H3    S    
C73   H15   S    
C62   O19   S    
C41   O26   A    
C15   H23   S    
C18   C19   A    
Cu6   O9    S    
C42   O28   A    
C44   O6    A    
C63   C68   S    
C65   H4    S    
C20   C24   T    
C45   C56   S    
C68   C69   T    
C79   H27   S    
C16   O14   A    
C76   H22   S    
C44   C70   S    
C75   H21   S    
Cu2   O16   S    
C49   H2    S    
C82   H38   S    
C9    C10   T    
Cu3   O22   S    
C51   C55   S    
C30   C33   S    
C3    O21   S    
C47   C53   A    
C23   O20   S    
C38   O22   A    
C4    O11   A    
C12   C72   S    
C60   C66   S    
C59   C60   A    
C22   C28   S    
C13   C14   A    
C81   H35   S    
Cu6   O5    S    
C24   C41   S    
C1    O4    A    
C6    C9    S    
C23   C72   S    
Cu5   O6    S    
C12   C52   S    
Cu3   O17   S    
C47   O18   S    
C77   C79   S    
C4    O10   A    
C12   C67   S    
C84   H41   S    
C74   C75   S    
C13   C19   A    
C64   C67   T    
C14   C20   S    
C46   O9    A    
C76   C77   S    
C13   H13   S    
C77   H26   S    
C45   H7    S    
Cu5   Cu6   S    
C80   C81   S    
C73   H16   S    
C50   C51   A    
C25   C26   A    
C40   C52   S    
C41   O27   A    
C27   H47   S    
Cu1   O15   S    
C60   C61   A    
C51   C53   A    
C56   H30   S    
C48   C54   S    
Cu3   O26   S    
C83   H39   S    
C62   C63   A    
C1    O1    A    
C19   H12   S    
C47   C48   A    
C23   C34   S    
C80   O20   S    
C79   H28   S    
C16   O13   A    
C28   O16   A    
C17   C18   A    
C39   C69   S    
C84   C85   S    
C82   H37   S    
C11   C43   S    
C82   H36   S    
C85   H43   S    
C75   H20   S    
C48   C49   A    
C46   O8    A    
Cu1   O10   S    
C55   C57   T    
Cu4   O23   S    
C42   O2    A    
C59   H5    S    
Cu1   O13   S    
Cu4   O12   S    
C86   H10   S    
C32   C36   T    
Cu5   O3    S    
C80   H32   S    
C15   C17   A    
C29   H48   S    
C83   O21   S    
C38   C71   S    
C40   C72   S    
Cu5   O28   S    
C81   H33   S    
C37   O12   A    
C2    C8    S    
C1    C10   S    
C12   C45   S    
C3    C5    A    
C74   H18   S    
Cu5   O8    S    
C5    H1    S    
C6    C7    A    
C4    C64   S    
C75   H19   S    
C44   O7    A    
Cu2   O11   S    
C37   O17   A    
C39   O24   A    
C2    C3    A    
C83   H40   S    
C17   H14   S    
C59   C65   A    
C36   C46   S    
C5    C6    A    
C8    C11   T    
Cu4   O27   S    
C28   O15   A    
C33   C35   T    
C2    C86   A    
C53   H49   S    
C39   O25   A    
C61   C62   A    
Cu6   O2    S    
C37   C57   S    
Cu3   O24   S    
C43   O3    A    
C43   O5    A    
C85   H44   S    
C7    C86   A    
C54   C58   T    
C49   C50   A    
C7    H9    S    
Cu6   O7    S    
Cu2   O4    S    
C14   C15   A    
C31   H34   S    
Cu1   O1    S    
Cu3   Cu4   S    
C21   C22   T    
C85   H46   S    
C71   C78   T    
C34   C78   S    
C52   C56   S    
C80   H31   S    
