data_mof_unit_49393.cif
_audit_creation_date              2012-12-11T15:31:59-0500
_audit_creation_method            fapswitch 2.2
_symmetry_space_group_name_H-M    P1
_symmetry_Int_Tables_number       1
_space_group_crystal_system       triclinic
_cell_length_a                    13.582624
_cell_length_b                    13.585505
_cell_length_c                    27.710494
_cell_angle_alpha                 90.635261
_cell_angle_beta                  89.782684
_cell_angle_gamma                 119.964154
_cell_volume                      4429.59017271

loop_
_atom_site_label
_atom_site_type_symbol
_atom_type_description
_atom_site_fract_x
_atom_site_fract_y
_atom_site_fract_z
_atom_type_partial_charge
C1    C     C_R   0.619679 0.898381 0.431271 0.548257
C2    C     C_R   0.677196 0.428303 0.222339 -0.099562
C3    C     C_R   0.668762 0.411574 0.272246 -0.101717
C4    C     C_R   0.672257 0.318624 0.291627 0.032415
C5    C     C_R   0.688452 0.351893 0.191489 0.032954
C6    C     C_1   0.695057 0.369782 0.140136 -0.059169
C7    C     C_1   0.653969 0.294902 0.342464 -0.050314
C8    C     C_1   0.702039 0.393358 0.097942 -0.006377
C9    C     C_1   0.229113 0.860620 0.383492 -0.002233
C10   C     C_R   0.136128 0.905411 0.268729 -0.113947
C11   C     C_R   0.117667 0.897943 0.218582 0.210211
C12   C     C_R   0.599913 0.218461 0.431283 0.551376
C13   C     C_R   0.165777 0.747397 0.213879 0.231612
C14   C     C_R   0.185574 0.757457 0.263759 -0.108739
C15   C     C_R   0.170453 0.835702 0.291245 -0.050064
C16   C     C_R   0.135751 0.820471 0.190733 0.029552
C17   C     C_1   0.116014 0.808690 0.139129 0.063795
C18   C     C_1   0.197921 0.848621 0.342010 -0.044601
C19   C     C_1   0.091906 0.791940 0.096793 0.047236
C20   C     C_1   0.635742 0.866003 0.383708 -0.006917
C21   C     C_R   0.605090 0.723183 0.269500 0.289103
C22   C     C_R   0.613183 0.712959 0.219167 -0.095024
C23   C     C_R   0.279440 0.878676 0.430625 0.557057
C24   C     C_R   0.706673 0.917535 0.211326 -0.099395
C25   C     C_R   0.702291 0.928657 0.261329 -0.167820
C26   C     C_R   0.652829 0.832191 0.290588 0.047343
C27   C     C_R   0.662089 0.809724 0.190109 0.014087
C28   C     C_1   0.675423 0.798652 0.139111 -0.012602
C29   C     C_1   0.645046 0.847042 0.341813 -0.015147
C30   C     C_1   0.692758 0.787570 0.097242 0.023980
C31   C     C_R   0.634420 0.276270 0.615731 0.036813
C32   C     C_R   0.715369 0.263716 0.641840 -0.077718
C33   C     C_R   0.721033 0.277584 0.691307 -0.039812
C34   C     C_R   0.620513 0.901003 0.568725 0.576556
C35   C     C_R   0.653583 0.314588 0.714557 0.069883
C36   C     C_R   0.578567 0.335693 0.688315 -0.097816
C37   C     C_R   0.568235 0.315543 0.638931 -0.115245
C38   C     C_R   0.572892 0.285995 0.796300 -0.164592
C39   C     C_R   0.585796 0.309626 0.845466 -0.150651
C40   C     C_R   0.791465 0.413496 0.835104 0.258173
C41   C     C_R   0.777020 0.407982 0.785218 0.243193
C42   C     C_R   0.667881 0.337438 0.766009 -0.033858
C43   C     C_R   0.694746 0.376358 0.864915 -0.014410
C44   C     C_R   0.229312 0.867403 0.616616 0.015808
C45   C     C_R   0.600971 0.222836 0.568439 0.542397
C46   C     C_R   0.263457 0.966506 0.644682 -0.168990
C47   C     C_R   0.244552 0.959796 0.694035 -0.127688
C48   C     C_R   0.192678 0.854205 0.716240 0.028402
C49   C     C_R   0.151603 0.754667 0.688390 -0.016739
C50   C     C_R   0.166427 0.759754 0.638411 0.250391
C51   C     C_R   0.219436 0.796207 0.798791 0.289871
C52   C     C_R   0.178425 0.767927 0.846039 -0.064070
C53   C     C_R   0.064113 0.857294 0.834507 -0.114309
C54   C     C_R   0.100580 0.881234 0.787131 -0.133067
C55   C     C_R   0.174421 0.846902 0.768399 0.040303
C56   C     C_R   0.279781 0.881755 0.568436 0.594519
C57   C     C_R   0.099001 0.796300 0.863641 0.003820
C58   C     C_R   0.635275 0.872393 0.617474 0.053154
C59   C     C_R   0.591248 0.759580 0.632463 0.267569
C60   C     C_R   0.598977 0.738660 0.681437 -0.096089
C61   C     C_R   0.642601 0.828750 0.715059 0.021829
C62   C     C_R   0.679541 0.939450 0.699636 -0.098888
C63   C     C_R   0.678765 0.961169 0.651374 -0.161553
C64   C     C_R   0.750087 0.892282 0.791088 -0.133719
C65   C     C_R   0.762000 0.880566 0.839513 -0.167081
C66   C     C_R   0.580357 0.703211 0.840023 0.280064
C67   C     C_1   0.633014 0.266412 0.384050 -0.003573
C68   C     C_R   0.570041 0.716448 0.790578 -0.026967
C69   C     C_R   0.654502 0.810639 0.766141 0.012162
C70   C     C_R   0.680988 0.784233 0.864482 0.012072
C71   C     C_R   0.048214 0.760679 0.048523 0.544461
C72   C     C_R   0.714365 0.436375 0.049889 0.536315
C73   C     C_R   0.723571 0.770755 0.049580 0.551553
C74   C     C_R   0.043510 0.755834 0.910344 0.564455
C75   C     C_R   0.708638 0.428628 0.912472 0.556598
C76   C     C_R   0.717156 0.765270 0.911808 0.563330
C77   C     C_R   0.685227 0.243142 0.260838 -0.103059
C78   C     C_R   0.693445 0.259752 0.210892 -0.108878
Cr1   Cr    Cr6+3 0.417720 0.831920 0.499820 1.070322
Cr2   Cr    Cr6+3 0.668190 0.085770 0.500360 1.038120
Cr3   Cr    Cr6+3 0.414060 0.082260 0.499840 1.032138
Cr4   Cr    Cr6+3 0.908000 0.821090 0.979770 1.052029
Cr5   Cr    Cr6+3 0.912420 0.571130 0.979880 1.039683
Cr6   Cr    Cr6+3 0.657970 0.566940 0.980940 1.125539
H1    H     H_    0.686966 0.170363 0.275399 0.107228
H2    H     H_    0.582708 0.629819 0.202870 0.105185
H3    H     H_    0.746498 0.993074 0.189325 0.138773
H4    H     H_    0.737707 0.012777 0.277264 0.114574
H5    H     H_    0.768606 0.235339 0.624632 0.136639
H6    H     H_    0.488579 0.232016 0.781550 0.136070
H7    H     H_    0.511051 0.278705 0.868042 0.166624
H8    H     H_    0.778269 0.259752 0.711581 0.141666
H9    H     H_    0.527202 0.365723 0.706121 0.111165
H10   H     H_    0.702597 0.200400 0.187493 0.111155
H11   H     H_    0.504672 0.324867 0.619371 0.121352
H12   H     H_    0.311165 0.050283 0.629097 0.144794
H13   H     H_    0.207505 0.723309 0.868887 0.168279
H14   H     H_    0.274334 0.037098 0.715204 0.118348
H15   H     H_    0.066289 0.921164 0.764268 0.124218
H16   H     H_    0.002556 0.880074 0.847273 0.138546
H17   H     H_    0.108482 0.673033 0.705712 0.230022
H18   H     H_    0.673758 0.500187 0.207742 0.120207
H19   H     H_    0.817881 0.964797 0.772908 0.113285
H20   H     H_    0.839368 0.945416 0.856567 0.139657
H21   H     H_    0.571878 0.653031 0.692995 0.108668
H22   H     H_    0.494672 0.654937 0.771318 0.168099
H23   H     H_    0.709179 0.009956 0.724949 0.125230
H24   H     H_    0.707630 0.047599 0.640782 0.124448
H25   H     H_    0.657736 0.469906 0.295552 0.153168
H26   H     H_    0.124943 0.966114 0.290253 0.159829
H27   H     H_    0.213125 0.704118 0.280935 0.126806
O1    O     O_R   0.302900 0.805360 0.446400 -0.504119
O2    O     O_R   0.657980 0.180990 0.549630 -0.504761
O3    O     O_R   0.503420 0.197810 0.553190 -0.526369
O4    O     O_R   0.320350 0.978840 0.548910 -0.518276
O5    O     O_3   0.499990 0.999990 0.500010 -0.267451
O6    O     O_R   0.819150 0.845650 0.033320 -0.486108
O7    O     O_R   0.006060 0.815720 0.028680 -0.474861
O8    O     O_R   0.028100 0.664460 0.032550 -0.517342
O9    O     O_R   0.811290 0.477490 0.029660 -0.511634
O10   O     O_R   0.638120 0.455970 0.034270 -0.499491
O11   O     O_R   0.667540 0.672320 0.030160 -0.492773
O12   O     O_R   0.522090 0.841370 0.450730 -0.498716
O13   O     O_R   0.814460 0.840990 0.926980 -0.543363
O14   O     O_R   0.001710 0.811400 0.930110 -0.512863
O15   O     O_R   0.023410 0.659800 0.926210 -0.473596
O16   O     O_R   0.806940 0.473170 0.931090 -0.467915
O17   O     O_R   0.633420 0.451310 0.927930 -0.466642
O18   O     O_R   0.663190 0.668000 0.931580 -0.420212
O19   O     O_3   0.826130 0.653050 0.980200 -0.272494
O20   O     O_R   0.693280 0.995650 0.447220 -0.502652
O21   O     O_R   0.657260 0.178740 0.451050 -0.493287
O22   O     O_R   0.502640 0.195380 0.446850 -0.500778
O23   O     O_R   0.319630 0.976590 0.450330 -0.491006
O24   O     O_R   0.303680 0.807790 0.552740 -0.440892
O25   O     O_R   0.522820 0.843620 0.549310 -0.481030
O26   O     O_R   0.694060 0.998080 0.553560 -0.525459
S1    S     S_3+6 0.892490 0.504624 0.748795 0.012030
O27   O     O_2   0.850127 0.537635 0.705319 -0.222367
O28   O     O_2   0.966486 0.610390 0.777640 -0.296722
O29   O     O_3   0.969382 0.445019 0.730574 -0.531249
H28   H     H_    0.038025 0.479368 0.751290 0.370074
O30   O     O_3   0.900312 0.471918 0.854271 -0.499304
C79   C     C_3   0.951037 0.402725 0.851868 0.029004
H29   H     H_    0.044213 0.459838 0.848016 0.178887
H30   H     H_    0.923122 0.343999 0.819967 0.122287
C80   C     C_3   0.928724 0.334897 0.898367 -0.268625
H31   H     H_    0.962368 0.394439 0.929707 0.188927
H32   H     H_    0.835739 0.278489 0.903236 0.155809
C81   C     C_3   0.985427 0.262197 0.896927 -0.476792
H33   H     H_    0.951237 0.200284 0.866424 0.147047
H34   H     H_    0.968054 0.214452 0.931114 0.162465
H35   H     H_    0.078849 0.316752 0.892770 0.158090
S2    S     S_3+6 0.328471 0.770232 0.779605 -0.010553
O31   O     O_2   0.402177 0.855793 0.742576 -0.323901
O32   O     O_2   0.400102 0.779649 0.822449 -0.247556
O33   O     O_3   0.269927 0.638433 0.755792 -0.525221
H36   H     H_    0.322020 0.643329 0.729621 0.353944
S3    S     S_3+6 0.103647 0.630781 0.604818 0.031057
O34   O     O_2   0.188154 0.590750 0.599571 -0.331745
O35   O     O_2   0.000377 0.541408 0.630436 -0.203045
O36   O     O_3   0.065105 0.650983 0.549831 -0.514112
H37   H     H_    0.038849 0.578064 0.532344 0.363959
O37   O     O_3   0.548059 0.671936 0.598751 -0.565548
C82   C     C_3   0.430585 0.597355 0.606725 0.040703
H38   H     H_    0.384476 0.595527 0.573394 0.194603
H39   H     H_    0.393330 0.623446 0.636924 0.147172
C83   C     C_3   0.409570 0.477635 0.615780 -0.284259
H40   H     H_    0.439060 0.448757 0.584025 0.181753
H41   H     H_    0.458701 0.478753 0.647925 0.158454
C84   C     C_3   0.283848 0.393870 0.624267 -0.451617
H42   H     H_    0.271740 0.307931 0.630585 0.139821
H43   H     H_    0.232943 0.389761 0.592236 0.185589
H44   H     H_    0.253064 0.420027 0.656442 0.185849
S4    S     S_3+6 0.463682 0.587815 0.868870 0.035264
O38   O     O_2   0.487411 0.491682 0.873746 -0.285502
O39   O     O_2   0.445337 0.624057 0.917967 -0.274728
O40   O     O_3   0.344742 0.542042 0.835837 -0.486893
H45   H     H_    0.283255 0.482835 0.855649 0.353974
S5    S     S_3+6 0.070889 0.985007 0.191664 0.003452
O41   O     O_2   0.161754 0.066937 0.158328 -0.234706
O42   O     O_2   0.964804 0.912588 0.162766 -0.300224
O43   O     O_3   0.044038 0.058802 0.233692 -0.521836
H46   H     H_    0.971128 0.002606 0.248550 0.339914
O44   O     O_3   0.179906 0.668376 0.187484 -0.566759
C85   C     C_3   0.079379 0.561900 0.191184 0.000546
H47   H     H_    0.005720 0.566119 0.175900 0.140980
H48   H     H_    0.061317 0.534585 0.229547 0.127802
C86   C     C_3   0.094063 0.473146 0.162739 -0.244628
H49   H     H_    0.113505 0.499669 0.124460 0.189383
H50   H     H_    0.166440 0.467162 0.178022 0.179834
C87   C     C_3   0.986823 0.356552 0.164694 -0.464628
H51   H     H_    0.965404 0.328250 0.202664 0.158629
H52   H     H_    0.000928 0.293628 0.144499 0.182989
H53   H     H_    0.914393 0.359810 0.147927 0.150353
O45   O     O_3   0.560843 0.628459 0.298758 -0.580686
C88   C     C_3   0.442691 0.558255 0.290526 0.004238
H54   H     H_    0.418772 0.471336 0.302486 0.166882
H55   H     H_    0.418397 0.550133 0.251711 0.127290
C89   C     C_3   0.374955 0.599973 0.320279 -0.261022
H56   H     H_    0.399854 0.607394 0.358892 0.187831
H57   H     H_    0.394478 0.685199 0.307643 0.161581
C90   C     C_3   0.247330 0.518404 0.315612 -0.474516
H58   H     H_    0.220250 0.511425 0.277352 0.156379
H59   H     H_    0.200650 0.550619 0.337597 0.151764
H60   H     H_    0.225168 0.432870 0.328807 0.164090

loop_
_geom_bond_atom_site_label_1
_geom_bond_atom_site_label_2
_ccdc_geom_bond_type
Cr6   O17   S    
C64   H19   S    
C66   C68   A    
C21   C26   A    
C51   S2    S    
C40   C41   A    
C82   H38   S    
Cr2   O21   S    
C72   O10   A    
C48   C55   S    
C41   C42   A    
Cr6   O18   S    
C15   C18   S    
C19   C71   S    
C35   C36   A    
C24   C27   A    
C90   H58   S    
O40   H45   S    
C40   O30   S    
Cr3   O23   S    
S4    O39   D    
C66   C70   A    
C77   C78   A    
C88   C89   S    
C23   O1    A    
C84   H43   S    
O33   H36   S    
C47   H14   S    
Cr1   O1    S    
C21   C22   A    
O37   C82   S    
C80   H32   S    
C78   H10   S    
C38   C42   A    
C10   C15   A    
C4    C7    S    
C49   H17   S    
C5    C6    S    
C74   O14   A    
C2    H18   S    
Cr6   O11   S    
O30   C79   S    
C52   H13   S    
C37   H11   S    
C88   H55   S    
C75   O17   A    
C11   C16   A    
Cr5   O8    S    
C86   H50   S    
C35   C42   S    
C59   O37   S    
C80   H31   S    
C17   C19   T    
C68   C69   A    
C45   O3    A    
C40   C43   A    
C47   C48   A    
S5    O42   D    
C89   H56   S    
C81   H35   S    
Cr3   O3    S    
S3    O35   D    
Cr4   O19   S    
S2    O32   D    
C23   O23   A    
S5    O43   S    
C83   H41   S    
C77   H1    S    
C59   C60   A    
C82   H39   S    
Cr2   O20   S    
Cr1   O5    S    
Cr5   O9    S    
Cr3   O4    S    
C52   C57   A    
C61   C62   A    
C68   H22   S    
C79   C80   S    
C36   H9    S    
Cr4   O13   S    
C84   H44   S    
C44   C46   A    
S4    O40   S    
C20   C29   T    
C83   C84   S    
C53   H16   S    
C43   C75   S    
C38   C39   A    
C12   C67   S    
C8    C72   S    
C13   O44   S    
C51   C52   A    
C76   O13   A    
C87   H53   S    
Cr2   O5    S    
C90   H60   S    
C80   C81   S    
C73   O6    A    
C24   C25   A    
S2    O33   S    
C79   H30   S    
C10   C11   A    
C33   H8    S    
C30   C73   S    
C53   C57   A    
C16   C17   S    
C6    C8    T    
C62   H23   S    
Cr6   O10   S    
C53   C54   A    
Cr3   O5    S    
Cr1   O12   S    
C25   H4    S    
C31   C37   A    
C60   C61   A    
C87   H52   S    
C57   C74   S    
C65   C70   A    
C86   C87   S    
O43   H46   S    
C1    O12   A    
Cr4   O14   S    
C62   C63   A    
Cr1   O25   S    
C90   H59   S    
C76   O18   A    
C44   C56   S    
S3    O34   D    
C34   O25   A    
C72   O9    A    
S2    O31   D    
S3    O36   S    
C86   H49   S    
C64   C69   A    
C14   H27   S    
C84   H42   S    
C41   S1    S    
S1    O28   D    
Cr5   O19   S    
C83   H40   S    
C49   C50   A    
C82   C83   S    
C22   C27   A    
C63   H24   S    
C32   H5    S    
C70   C76   S    
C81   H34   S    
C66   S4    S    
C58   C59   A    
C2    C5    A    
Cr4   O7    S    
Cr5   O15   S    
C85   H48   S    
C3    C4    A    
C56   O24   A    
S5    O41   D    
O36   H37   S    
C44   C50   A    
C58   C63   A    
C46   C47   A    
C36   C37   A    
C1    C20   S    
C12   O21   A    
C71   O7    A    
C14   C15   A    
C39   H7    S    
C31   C32   A    
C9    C23   S    
Cr5   O16   S    
O45   C88   S    
C1    O20   A    
S1    O29   S    
C54   C55   A    
C39   C43   A    
Cr3   O22   S    
C50   S3    S    
Cr1   O24   S    
C38   H6    S    
C34   O26   A    
Cr4   O6    S    
C71   O8    A    
C79   H29   S    
C61   C69   S    
C32   C33   A    
C85   C86   S    
C28   C30   T    
C2    C3    A    
C25   C26   A    
C4    C77   A    
S4    O38   D    
O29   H28   S    
C87   H51   S    
O44   C85   S    
C74   O15   A    
C3    H25   S    
C89   C90   S    
C48   C49   A    
C64   C65   A    
Cr6   O19   S    
C33   C35   A    
C56   O4    A    
C10   H26   S    
C51   C55   A    
C22   H2    S    
C21   O45   S    
C88   H54   S    
C54   H15   S    
C24   H3    S    
S1    O27   D    
C60   H21   S    
C7    C67   T    
C5    C78   A    
C45   O2    A    
C9    C18   T    
C46   H12   S    
Cr2   O2    S    
C26   C29   S    
C89   H57   S    
C73   O11   A    
C31   C45   S    
C13   C16   A    
C27   C28   S    
C34   C58   S    
C81   H33   S    
C11   S5    S    
C65   H20   S    
C85   H47   S    
C13   C14   A    
C12   O22   A    
Cr2   O26   S    
C75   O16   A    
