data_mof_unit_16626.cif
_audit_creation_date              2012-12-11T15:57:02-0500
_audit_creation_method            fapswitch 2.2
_symmetry_space_group_name_H-M    P1
_symmetry_Int_Tables_number       1
_space_group_crystal_system       triclinic
_cell_length_a                    17.430645
_cell_length_b                    24.57571
_cell_length_c                    15.063386
_cell_angle_alpha                 89.815752
_cell_angle_beta                  125.923446
_cell_angle_gamma                 90.155497
_cell_volume                      5225.3851589

loop_
_atom_site_label
_atom_site_type_symbol
_atom_type_description
_atom_site_fract_x
_atom_site_fract_y
_atom_site_fract_z
_atom_type_partial_charge
C1    C     C_R   0.305657 0.116958 0.908695 0.112678
C2    C     C_R   0.546663 0.153770 0.908425 0.901502
C3    C     C_R   0.807178 0.367430 0.998702 0.101397
C4    C     C_R   0.589267 0.000695 0.378516 -0.048127
C5    C     C_R   0.087333 0.500827 0.378655 -0.063100
C6    C     C_R   0.204078 0.000727 0.625791 0.077808
C7    C     C_R   0.702219 0.500310 0.626631 0.065830
C8    C     C_R   0.526265 0.045661 0.760046 0.752896
C9    C     C_R   0.527959 0.955500 0.761083 0.786178
C10   C     C_R   0.027627 0.545414 0.761980 0.743176
C11   C     C_R   0.029117 0.455204 0.763210 0.781255
C12   C     C_R   0.768433 0.953831 0.245600 0.038661
C13   C     C_R   0.049261 0.346286 0.910116 0.882142
C14   C     C_R   0.769239 0.045320 0.244440 -0.043919
C15   C     C_R   0.267858 0.453568 0.242813 0.034783
C16   C     C_R   0.268439 0.544811 0.238539 0.013505
C17   C     C_2   0.960208 0.890722 0.405287 1.174125
C18   C     C_2   0.998987 0.037996 0.244211 1.129908
C19   C     C_2   0.476070 0.389291 0.360704 1.123017
C20   C     C_2   0.499377 0.564865 0.266745 1.180829
C21   C     C_2   0.297406 0.826498 0.206265 1.173682
C22   C     C_2   0.302753 0.166968 0.209496 1.232276
C23   C     C_2   0.798409 0.325391 0.206939 1.178203
C24   C     C_R   0.046150 0.653896 0.908517 0.903781
C25   C     C_2   0.798746 0.667169 0.208980 1.179561
C26   C     C_2   0.178774 0.887809 0.071905 1.060671
C27   C     C_2   0.174855 0.112879 0.065932 1.096688
C28   C     C_2   0.680106 0.387567 0.074687 1.078683
C29   C     C_2   0.675088 0.612009 0.063661 0.997958
C30   C     C_2   0.140096 0.807729 0.766193 1.083403
C31   C     C_2   0.153602 0.198787 0.776242 1.091777
C32   C     C_2   0.637752 0.309606 0.765063 1.095840
C33   C     C_2   0.657435 0.700997 0.778166 1.073170
C34   C     C_2   0.082846 0.865812 0.845653 1.028395
C35   C     C_R   0.561082 0.001065 0.737245 -0.285892
C36   C     C_2   0.084876 0.134096 0.840639 0.992855
C37   C     C_2   0.582372 0.366099 0.848019 1.022123
C38   C     C_2   0.586905 0.636475 0.841501 1.032464
C39   C     C_2   0.845817 0.255038 0.961041 1.132997
C40   C     C_2   0.872706 0.748699 0.996642 1.140127
C41   C     C_2   0.350161 0.754691 0.966285 1.123971
C42   C     C_2   0.368144 0.247257 0.987744 1.111783
C43   C     C_2   0.769518 0.166089 0.011606 1.066809
C44   C     C_2   0.768352 0.833394 0.005925 1.103195
C45   C     C_2   0.263989 0.665561 0.006362 1.064094
C46   C     C_R   0.062634 0.500580 0.739913 -0.282056
C47   C     C_2   0.258907 0.332347 0.985441 1.146567
C48   C     C_2   0.716532 0.073935 0.763392 1.205524
C49   C     C_2   0.739114 0.950661 0.775074 1.208677
C50   C     C_2   0.216945 0.573242 0.765180 1.224671
C51   C     C_2   0.240214 0.449896 0.777812 1.219040
C52   C     C_2   0.734523 0.072401 0.588370 1.194438
C53   C     C_2   0.744290 0.936179 0.583014 1.180782
C54   C     C_2   0.232413 0.572268 0.589207 1.071749
C55   C     C_2   0.244261 0.434245 0.586419 1.183194
C56   C     C_2   0.610732 0.099487 0.340950 1.013749
C57   C     C_R   0.824785 0.999186 0.271226 0.080240
C58   C     C_2   0.609349 0.900904 0.345202 0.941298
C59   C     C_2   0.102026 0.601643 0.337943 0.996511
C60   C     C_2   0.109496 0.401286 0.346208 0.945292
C61   C     C_2   0.409408 0.034215 0.353688 1.223125
C62   C     C_2   0.444735 0.936428 0.390356 1.039220
C63   C     C_2   0.907348 0.530253 0.355251 1.186027
C64   C     C_2   0.946218 0.433883 0.395003 1.130615
C65   C     C_2   0.239447 0.898830 0.651026 1.065892
C66   C     C_2   0.265030 0.095714 0.645593 1.194698
C67   C     C_2   0.744580 0.400041 0.647574 1.118771
C68   C     C_R   0.324020 0.498421 0.264091 0.076632
C69   C     C_2   0.758031 0.596637 0.643614 1.196728
C70   C     C_2   0.920214 0.067091 0.488625 1.133466
C71   C     C_2   0.412744 0.535308 0.506657 1.249756
C72   C     C_R   0.603558 0.187064 0.996748 -0.092838
C73   C     C_R   0.606732 0.813409 0.999682 -0.045078
C74   C     C_R   0.102181 0.687380 0.996682 -0.116407
C75   C     C_R   0.305348 0.884049 0.909576 0.049969
C76   C     C_R   0.107225 0.313421 0.999696 -0.043589
C77   C     C_3   0.029636 0.982135 0.523841 0.738408
C78   C     C_3   0.050202 0.052033 0.451244 0.744034
C79   C     C_3   0.530534 0.466950 0.510848 0.735802
C80   C     C_3   0.541761 0.549858 0.469104 0.703754
C81   C     C_3   0.970560 0.031548 0.457533 -0.432063
C82   C     C_3   0.465044 0.516032 0.462406 -0.439640
C83   C     C_3   0.928260 0.998812 0.350888 -0.169342
C84   C     C_3   0.428021 0.497218 0.345566 -0.173142
C85   C     C_3   0.989035 0.949310 0.418932 -0.170122
C86   C     C_R   0.806056 0.618010 0.908389 0.113920
C87   C     C_3   0.008494 0.019362 0.344783 -0.188553
C88   C     C_3   0.495335 0.447699 0.395994 -0.172836
C89   C     C_3   0.506636 0.530919 0.353709 -0.228505
C90   C     C_3   0.070382 0.969361 0.412988 -0.220951
C91   C     C_3   0.575210 0.481235 0.404353 -0.193116
C92   C     C_R   0.398997 0.877791 0.090620 -0.038907
C93   C     C_R   0.398788 0.121451 0.090393 -0.145939
C94   C     C_R   0.898820 0.378204 0.090626 -0.049104
C95   C     C_R   0.898987 0.621699 0.090344 -0.143761
C96   C     C_3   0.110548 0.002409 0.519023 -0.259116
C97   C     C_R   0.805131 0.384514 0.909631 0.057129
C98   C     C_3   0.608777 0.500733 0.519471 -0.207607
C99   C     C_3   0.219428 0.830881 0.082130 -0.530497
C100  C     C_3   0.222479 0.168517 0.084700 -0.595531
C101  C     C_3   0.720016 0.330661 0.083041 -0.542154
C102  C     C_3   0.721030 0.668187 0.083377 -0.536631
C103  C     C_3   0.645757 0.284904 0.058770 0.588885
C104  C     C_3   0.651058 0.715467 0.064960 0.635242
C105  C     C_3   0.145557 0.785111 0.058802 0.591804
C106  C     C_3   0.155823 0.216814 0.070093 0.635867
C107  C     C_3   0.805146 0.268265 0.025157 -0.366510
C108  C     C_R   0.640714 0.154141 0.089005 -0.204032
C109  C     C_3   0.812269 0.732592 0.036885 -0.344141
C110  C     C_3   0.305008 0.767660 0.025791 -0.361344
C111  C     C_3   0.309647 0.232217 0.030938 -0.305710
C112  C     C_3   0.144190 0.814793 0.871171 -0.600792
C113  C     C_3   0.146759 0.186144 0.873233 -0.591589
C114  C     C_3   0.643755 0.315391 0.871533 -0.601841
C115  C     C_3   0.649559 0.688253 0.874012 -0.605437
C116  C     C_3   0.244905 0.821952 0.993177 -0.042167
C117  C     C_3   0.247222 0.178262 0.995266 -0.022338
C118  C     C_3   0.744844 0.322398 0.993332 -0.041957
C119  C     C_R   0.642001 0.846300 0.090725 -0.163747
C120  C     C_3   0.748620 0.679129 0.996628 -0.026947
C121  C     C_3   0.649529 0.237767 0.993098 -0.130164
C122  C     C_3   0.653694 0.762813 0.998216 -0.172486
C123  C     C_3   0.148644 0.737872 0.992917 -0.132163
C124  C     C_3   0.153531 0.262647 0.997335 -0.123670
C125  C     C_3   0.755175 0.221996 0.042471 -0.419020
C126  C     C_3   0.758846 0.779238 0.047168 -0.447089
C127  C     C_3   0.253744 0.721414 0.041273 -0.415794
C128  C     C_3   0.256314 0.279903 0.038582 -0.568537
C129  C     C_3   0.599112 0.260475 0.874524 0.510196
C130  C     C_R   0.139721 0.654351 0.088840 -0.173784
C131  C     C_3   0.601631 0.740765 0.879786 0.536673
C132  C     C_3   0.098187 0.760513 0.874390 0.507935
C133  C     C_3   0.097405 0.238200 0.880001 0.539582
C134  C     C_3   0.627826 0.056470 0.651320 -0.402378
C135  C     C_3   0.644679 0.952911 0.662309 -0.358632
C136  C     C_3   0.127933 0.555512 0.653435 -0.399784
C137  C     C_3   0.145441 0.452031 0.664976 -0.382845
C138  C     C_R   0.564378 0.045647 0.309148 -0.040082
C139  C     C_R   0.563959 0.955042 0.310101 -0.044109
C140  C     C_R   0.061721 0.545971 0.308450 -0.036012
C141  C     C_R   0.142956 0.346496 0.090734 -0.217864
C142  C     C_R   0.063495 0.455205 0.310285 -0.039776
C143  C     C_3   0.636024 0.055431 0.552941 -0.430703
C144  C     C_3   0.650367 0.951924 0.561856 -0.401804
C145  C     C_3   0.134723 0.554600 0.554388 -0.364547
C146  C     C_3   0.150605 0.450975 0.564110 -0.376458
C147  C     C_3   0.478657 0.000008 0.541250 1.197597
C148  C     C_3   0.979157 0.498778 0.543872 1.230275
C149  C     C_3   0.580557 0.001959 0.651887 -0.029203
C150  C     C_3   0.081275 0.501022 0.654323 -0.067574
C151  C     C_3   0.591550 0.001020 0.481789 0.022341
C152  C     C_R   0.549506 0.846476 0.910051 0.880773
C153  C     C_3   0.091198 0.500127 0.483352 -0.025706
C154  C     C_3   0.482246 0.993392 0.440942 -0.649490
C155  C     C_3   0.982538 0.491378 0.443606 -0.600730
C156  C     C_R   0.247193 0.954966 0.690591 -0.068344
C157  C     C_R   0.251166 0.045746 0.689592 -0.207680
C158  C     C_R   0.747803 0.454817 0.690330 -0.100142
C159  C     C_R   0.749392 0.545552 0.689761 -0.158568
C160  C     C_R   0.308108 0.133435 0.998478 0.117289
C161  C     C_R   0.307537 0.866780 0.998602 0.102866
C162  C     C_R   0.808920 0.634463 0.998518 0.129688
F1    F     F_    0.039347 0.963132 0.616553 -0.621252
F2    F     F_    0.004272 0.229435 0.842704 -0.619545
F3    F     F_    0.502647 0.266248 0.822924 -0.633491
F4    F     F_    0.506170 0.733319 0.833436 -0.616620
F5    F     F_    0.431856 0.047954 0.532481 -0.675728
F6    F     F_    0.423646 0.959306 0.542349 -0.661177
F7    F     F_    0.932521 0.546938 0.534479 -0.676594
F8    F     F_    0.923900 0.458423 0.545439 -0.641082
F9    F     F_    0.531908 0.098320 0.739256 -0.628571
F10   F     F_    0.533749 0.903431 0.737494 -0.609696
F11   F     F_    0.034397 0.598095 0.742447 -0.634129
F12   F     F_    0.075759 0.106211 0.462662 -0.590490
F13   F     F_    0.034433 0.403041 0.739586 -0.614343
F14   F     F_    0.484086 0.830272 0.805953 -0.584537
F15   F     F_    0.477427 0.169739 0.805108 -0.609225
F16   F     F_    0.982245 0.329407 0.806914 -0.597241
F17   F     F_    0.977457 0.669789 0.804964 -0.602298
F18   F     F_    0.540975 0.434022 0.592023 -0.639631
F19   F     F_    0.559073 0.603502 0.502589 -0.631762
F20   F     F_    0.656834 0.265214 0.152272 -0.654991
F21   F     F_    0.669338 0.734937 0.162196 -0.655167
F22   F     F_    0.157469 0.765524 0.152854 -0.657411
F23   F     F_    0.181123 0.237745 0.169544 -0.659102
F24   F     F_    0.001901 0.766891 0.823438 -0.631326
H1    H     H_    0.246043 0.114729 0.825174 0.132286
H2    H     H_    0.576911 0.700533 0.018066 0.179763
H3    H     H_    0.872466 0.273739 0.106496 0.212970
H4    H     H_    0.873253 0.724735 0.120856 0.185986
H5    H     H_    0.370961 0.773162 0.108131 0.210834
H6    H     H_    0.371257 0.225389 0.115075 0.183602
H7    H     H_    0.791369 0.218648 0.132591 0.217778
H8    H     H_    0.794466 0.785488 0.136638 0.210794
H9    H     H_    0.290267 0.717166 0.131370 0.218725
H10   H     H_    0.294810 0.288916 0.127602 0.200214
H11   H     H_    0.426745 0.870736 0.174271 0.195209
H12   H     H_    0.243825 0.890364 0.827986 0.129861
H13   H     H_    0.425334 0.126408 0.174014 0.197055
H14   H     H_    0.926665 0.371263 0.174306 0.197659
H15   H     H_    0.925192 0.626259 0.173807 0.193892
H16   H     H_    0.606523 0.228574 0.827717 0.171622
H17   H     H_    0.602886 0.774025 0.830833 0.171227
H18   H     H_    0.104070 0.728374 0.826904 0.174239
H19   H     H_    0.092014 0.270326 0.825156 0.172922
H20   H     H_    0.578912 0.090726 0.630636 0.261432
H21   H     H_    0.608881 0.914371 0.656286 0.261856
H22   H     H_    0.079102 0.589718 0.633176 0.259043
H23   H     H_    0.746838 0.617001 0.824333 0.147710
H24   H     H_    0.109957 0.413437 0.659272 0.263651
H25   H     H_    0.589993 0.088998 0.499673 0.225354
H26   H     H_    0.613449 0.914659 0.518889 0.166306
H27   H     H_    0.087217 0.587527 0.501339 0.230221
H28   H     H_    0.113697 0.413723 0.521127 0.154885
H29   H     H_    0.788057 0.911672 0.254549 0.115900
H30   H     H_    0.792115 0.087236 0.255719 0.151204
H31   H     H_    0.288356 0.411477 0.255230 0.111298
H32   H     H_    0.291999 0.586603 0.250242 0.141347
H33   H     H_    0.686309 0.166858 0.173670 0.222205
H34   H     H_    0.743508 0.391292 0.828101 0.139452
H35   H     H_    0.686592 0.833823 0.175680 0.219086
H36   H     H_    0.185771 0.667043 0.173427 0.225495
H37   H     H_    0.188304 0.334377 0.175796 0.236246
H38   H     H_    0.935099 0.820601 0.323362 0.348965
H39   H     H_    0.955947 0.020018 0.090826 0.321055
H40   H     H_    0.490096 0.328490 0.281658 0.355097
H41   H     H_    0.477943 0.566443 0.119996 0.345583
H42   H     H_    0.316692 0.825364 0.353061 0.364257
H43   H     H_    0.334726 0.149881 0.359623 0.391578
H44   H     H_    0.818476 0.322279 0.354035 0.363593
H45   H     H_    0.111885 0.944651 0.393409 0.236345
H46   H     H_    0.826501 0.652002 0.357688 0.389507
H47   H     H_    0.080250 0.934075 0.066222 0.340660
H48   H     H_    0.062644 0.069077 0.033085 0.338624
H49   H     H_    0.581718 0.433656 0.069594 0.349034
H50   H     H_    0.567065 0.566528 0.037641 0.341439
H51   H     H_    0.995772 0.809897 0.664305 0.348336
H52   H     H_    0.083136 0.130982 0.679837 0.300500
H53   H     H_    0.493313 0.313094 0.664764 0.344639
H54   H     H_    0.553985 0.648535 0.663098 0.342892
H55   H     H_    0.972403 0.901780 0.831956 0.360896
H56   H     H_    0.621774 0.467431 0.381068 0.245964
H57   H     H_    0.076319 0.052210 0.822623 0.380936
H58   H     H_    0.471234 0.400974 0.834360 0.359766
H59   H     H_    0.575223 0.555146 0.815816 0.393508
H60   H     H_    0.833600 0.217861 0.834785 0.401450
H61   H     H_    0.916708 0.735179 0.901538 0.393988
H62   H     H_    0.344591 0.717627 0.843894 0.396720
H63   H     H_    0.406100 0.233852 0.886735 0.400249
H64   H     H_    0.841718 0.095761 0.062510 0.342468
H65   H     H_    0.821263 0.910008 0.046019 0.383677
H66   H     H_    0.315281 0.589771 0.053531 0.349641
H67   H     H_    0.072490 0.801647 0.009260 0.195814
H68   H     H_    0.325933 0.375851 0.126293 0.272341
H69   H     H_    0.831343 0.122041 0.847046 0.360344
H70   H     H_    0.880112 0.964614 0.873058 0.331837
H71   H     H_    0.331329 0.621709 0.847700 0.359966
H72   H     H_    0.380987 0.464646 0.875163 0.342988
H73   H     H_    0.817061 0.133965 0.600441 0.363667
H74   H     H_    0.844914 0.878417 0.640297 0.366014
H75   H     H_    0.313255 0.633001 0.594173 0.369387
H76   H     H_    0.343068 0.375343 0.643648 0.362657
H77   H     H_    0.717199 0.146148 0.366726 0.348739
H78   H     H_    0.081925 0.202717 0.029722 0.181380
H79   H     H_    0.717943 0.853241 0.380316 0.361393
H80   H     H_    0.194579 0.655034 0.347281 0.360799
H81   H     H_    0.218894 0.354074 0.382405 0.363526
H82   H     H_    0.295247 0.993518 0.326184 0.333702
H83   H     H_    0.459848 0.855481 0.421780 0.374865
H84   H     H_    0.766780 0.546713 0.253594 0.362817
H85   H     H_    0.961847 0.353187 0.428642 0.369400
H86   H     H_    0.301339 0.825766 0.678088 0.409333
H87   H     H_    0.292581 0.176168 0.661611 0.410072
H88   H     H_    0.801732 0.325338 0.678226 0.408135
H89   H     H_    0.572739 0.301462 0.008815 0.200361
H90   H     H_    0.793383 0.676064 0.664778 0.408807
H91   H     H_    0.890804 0.143454 0.508912 0.331699
H92   H     H_    0.286617 0.550443 0.474592 0.338479
N1    N     N_R   0.392450 0.103580 0.942190 -0.057220
N2    N     N_R   0.525490 0.971610 0.207550 -0.069879
N3    N     N_R   0.025490 0.528390 0.207550 -0.071521
N4    N     N_R   0.025490 0.471610 0.207550 -0.072000
N5    N     N_R   0.317450 0.971190 0.792000 -0.079879
N6    N     N_R   0.317450 0.028810 0.792000 -0.084387
N7    N     N_R   0.817450 0.471190 0.792000 -0.083812
N8    N     N_R   0.817450 0.528810 0.792000 -0.087788
N9    N     N_R   0.473900 0.028390 0.792280 -0.180637
N10   N     N_R   0.473900 0.971610 0.792280 -0.164578
N11   N     N_R   0.973900 0.528390 0.792280 -0.176725
N12   N     N_R   0.392450 0.896420 0.942190 -0.046573
N13   N     N_R   0.973900 0.471610 0.792280 -0.167663
N14   N     N_R   0.682310 0.971180 0.208170 -0.048602
N15   N     N_R   0.682310 0.028820 0.208170 -0.042231
N16   N     N_R   0.182310 0.471180 0.208170 -0.038066
N17   N     N_R   0.182310 0.528820 0.208170 -0.026082
N18   N     N_R   0.606470 0.103570 0.057210 -0.110394
N19   N     N_R   0.606470 0.896430 0.057210 -0.117826
N20   N     N_R   0.106470 0.603570 0.057210 -0.111136
N21   N     N_R   0.106470 0.396430 0.057210 -0.115096
N22   N     N_R   0.549740 0.896000 0.943240 -0.143547
N23   N     N_R   0.892450 0.603580 0.942190 -0.054943
N24   N     N_R   0.549740 0.104000 0.943240 -0.141854
N25   N     N_R   0.049740 0.396000 0.943240 -0.137501
N26   N     N_R   0.049740 0.604000 0.943240 -0.143041
N27   N     N_R   0.892450 0.396420 0.942190 -0.042610
N28   N     N_R   0.450490 0.896000 0.057360 -0.061952
N29   N     N_R   0.450490 0.104000 0.057360 -0.067674
N30   N     N_R   0.950490 0.396000 0.057360 -0.061748
N31   N     N_R   0.950490 0.604000 0.057360 -0.064219
N32   N     N_R   0.525490 0.028390 0.207550 -0.075903
Ni1   Ni    Ni4+2 0.433780 0.065390 0.868430 0.303789
Ni2   Ni    Ni4+2 0.433780 0.934610 0.868430 0.325252
Ni3   Ni    Ni4+2 0.933780 0.565390 0.868430 0.305551
Ni4   Ni    Ni4+2 0.933780 0.434610 0.868430 0.324354
Ni5   Ni    Ni4+2 0.565800 0.934190 0.131570 0.272782
Ni6   Ni    Ni4+2 0.565800 0.065810 0.131570 0.253060
Ni7   Ni    Ni4+2 0.065800 0.434190 0.131570 0.276166
Ni8   Ni    Ni4+2 0.065800 0.565810 0.131570 0.259541
O1    O     O_2   0.940193 0.870722 0.463648 -0.557948
O2    O     O_R   0.273495 0.841609 0.277053 -0.686685
O3    O     O_R   0.315159 0.529776 0.443576 -0.754539
O4    O     O_2   0.378699 0.189907 0.251764 -0.604175
O5    O     O_R   0.281665 0.144875 0.278953 -0.660444
O6    O     O_2   0.876107 0.305860 0.245162 -0.646206
O7    O     O_R   0.774881 0.339126 0.278675 -0.667416
O8    O     O_2   0.877937 0.685943 0.253026 -0.605853
O9    O     O_R   0.773335 0.648597 0.276653 -0.706797
O10   O     O_2   0.219797 0.928211 0.071642 -0.559493
O11   O     O_R   0.098535 0.894471 0.071009 -0.717009
O12   O     O_2   0.218248 0.071404 0.076432 -0.550212
O13   O     O_R   0.955573 0.859455 0.324997 -0.726175
O14   O     O_R   0.084457 0.108255 0.042167 -0.755276
O15   O     O_2   0.721919 0.428044 0.076307 -0.560191
O16   O     O_R   0.599515 0.394053 0.073131 -0.707828
O17   O     O_2   0.716177 0.571445 0.064677 -0.596662
O18   O     O_R   0.588847 0.605830 0.049918 -0.761054
O19   O     O_2   0.210367 0.800837 0.769038 -0.580283
O20   O     O_R   0.052751 0.806219 0.662695 -0.658962
O21   O     O_2   0.189779 0.241183 0.775853 -0.493514
O22   O     O_R   0.111441 0.166977 0.680952 -0.687234
O23   O     O_2   0.707047 0.302356 0.766148 -0.581976
O24   O     O_2   0.029469 0.082555 0.242670 -0.502004
O25   O     O_R   0.549738 0.309744 0.662036 -0.647952
O26   O     O_2   0.701630 0.740818 0.783230 -0.501626
O27   O     O_R   0.607327 0.672662 0.678343 -0.679649
O28   O     O_2   0.105114 0.909016 0.825975 -0.576675
O29   O     O_R   0.002680 0.864656 0.845782 -0.704919
O30   O     O_2   0.000812 0.136171 0.802731 -0.519319
O31   O     O_R   0.123745 0.083001 0.848387 -0.807274
O32   O     O_2   0.604709 0.409804 0.830063 -0.588008
O33   O     O_R   0.501830 0.364024 0.847319 -0.707492
O34   O     O_2   0.508965 0.637531 0.823972 -0.518156
O35   O     O_R   0.957226 0.003536 0.153471 -0.786892
O36   O     O_R   0.619842 0.586429 0.832461 -0.784964
O37   O     O_2   0.922517 0.274236 0.991497 -0.607727
O38   O     O_R   0.799756 0.220187 0.871085 -0.717764
O39   O     O_2   0.928631 0.786585 0.041724 -0.553362
O40   O     O_R   0.873144 0.719017 0.918387 -0.755172
O41   O     O_2   0.427875 0.773944 0.001003 -0.613862
O42   O     O_R   0.307306 0.720154 0.875999 -0.709734
O43   O     O_2   0.425810 0.284377 0.032484 -0.564567
O44   O     O_R   0.363049 0.218429 0.905031 -0.752749
O45   O     O_2   0.716341 0.149624 0.917652 -0.590031
O46   O     O_2   0.436649 0.359791 0.388002 -0.576351
O47   O     O_R   0.841613 0.132554 0.092547 -0.761567
O48   O     O_2   0.735336 0.839355 0.909238 -0.561393
O49   O     O_R   0.816616 0.875964 0.080467 -0.750758
O50   O     O_2   0.214813 0.652620 0.909911 -0.582825
O51   O     O_R   0.322804 0.627078 0.086142 -0.801378
O52   O     O_2   0.223339 0.333425 0.887591 -0.521392
O53   O     O_R   0.301256 0.379708 0.046865 -0.699876
O54   O     O_2   0.738715 0.051521 0.847911 -0.649396
O55   O     O_R   0.769642 0.118630 0.771122 -0.717257
O56   O     O_2   0.739363 0.938318 0.853615 -0.605497
O57   O     O_R   0.506383 0.368431 0.299926 -0.715636
O58   O     O_R   0.824237 0.966412 0.792901 -0.773714
O59   O     O_2   0.239998 0.550803 0.850009 -0.648856
O60   O     O_R   0.269166 0.618298 0.772227 -0.702917
O61   O     O_2   0.241239 0.436870 0.856676 -0.537271
O62   O     O_R   0.324835 0.466413 0.795144 -0.773478
O63   O     O_2   0.803937 0.044723 0.652285 -0.546233
O64   O     O_R   0.747891 0.124948 0.563876 -0.732514
O65   O     O_2   0.775913 0.960981 0.540611 -0.538034
O66   O     O_R   0.788436 0.888032 0.640370 -0.731861
O67   O     O_2   0.302379 0.544992 0.653504 -0.556758
O68   O     O_2   0.514892 0.613748 0.280551 -0.505269
O69   O     O_R   0.244549 0.624317 0.561308 -0.734689
O70   O     O_2   0.278080 0.458938 0.546774 -0.574706
O71   O     O_R   0.286282 0.385536 0.642698 -0.733881
O72   O     O_2   0.572959 0.138347 0.351176 -0.548656
O73   O     O_R   0.695324 0.106848 0.352088 -0.802170
O74   O     O_2   0.571451 0.863467 0.359430 -0.608787
O75   O     O_R   0.694170 0.891951 0.357503 -0.772258
O76   O     O_2   0.066261 0.637060 0.359382 -0.533251
O77   O     O_R   0.174728 0.615511 0.328655 -0.814064
O78   O     O_2   0.071747 0.363692 0.360281 -0.611418
O79   O     O_R   0.478320 0.539801 0.171726 -0.778671
O80   O     O_R   0.194702 0.392691 0.359208 -0.757573
O81   O     O_2   0.434527 0.076867 0.337546 -0.632761
O82   O     O_R   0.311822 0.026099 0.299170 -0.666890
O83   O     O_2   0.397701 0.930203 0.291094 -0.649673
O84   O     O_R   0.464669 0.891167 0.457573 -0.697409
O85   O     O_2   0.928083 0.574576 0.338934 -0.651808
O86   O     O_R   0.811662 0.516810 0.302466 -0.694480
O87   O     O_2   0.900694 0.426721 0.296134 -0.640107
O88   O     O_R   0.965967 0.389153 0.463365 -0.705977
O89   O     O_2   0.168091 0.883369 0.564769 -0.610868
O90   O     O_2   0.374632 0.806036 0.245514 -0.648987
O91   O     O_R   0.314486 0.862868 0.713662 -0.709924
O92   O     O_2   0.260663 0.093470 0.561600 -0.502692
O93   O     O_R   0.286922 0.144916 0.701550 -0.728996
O94   O     O_2   0.685765 0.389038 0.551117 -0.595997
O95   O     O_R   0.811184 0.361050 0.717062 -0.718929
O96   O     O_2   0.736132 0.597238 0.550159 -0.536404
O97   O     O_R   0.793728 0.643726 0.706979 -0.733300
O98   O     O_2   0.873340 0.046464 0.516065 -0.536874
O99   O     O_R   0.926000 0.123612 0.484143 -0.726055
O100  O     O_2   0.455817 0.555322 0.598055 -0.611568

loop_
_geom_bond_atom_site_label_1
_geom_bond_atom_site_label_2
_ccdc_geom_bond_type
C65   O89   D    
C73   C119  A    
C39   O37   D    
C105  H67   S    
N14   Ni5   S    
H73   O64   S    
C47   C128  S    
C43   O45   D    
C124  C133  S    
C17   C85   S    
N4    Ni7   S    
C144  C151  S    
H64   O47   S    
C7    C159  A    
C27   O14   S    
C70   O99   S    
H84   O86   S    
C105  C123  S    
C134  C143  S    
H79   O75   S    
C20   O79   S    
C131  F4    S    
C78   C96   S    
H90   O97   S    
C57   C83   S    
C48   O55   S    
C2    F15   S    
C59   O77   S    
C41   O42   S    
C64   O87   D    
C71   C82   S    
H58   O33   S    
C143  C151  S    
C74   C123  S    
C93   N29   A    
C101  C103  S    
C113  C133  S    
H83   O84   S    
C42   O43   D    
C22   C100  S    
C16   N17   A    
C44   O49   S    
C45   O51   S    
C137  C146  S    
N19   Ni5   S    
C62   O84   S    
C99   C116  S    
N5    Ni2   S    
N32   Ni6   S    
C37   C114  S    
N27   Ni4   S    
H82   O82   S    
C8    C35   A    
H77   O73   S    
C3    C118  S    
C127  H9    S    
N22   Ni2   S    
N1    N29   A    
C125  H7    S    
H50   O18   S    
H86   O91   S    
C106  H78   S    
C45   O50   D    
C2    N24   A    
C47   O53   S    
C146  H28   S    
C147  F5    S    
C54   C145  S    
C82   C84   S    
H80   O77   S    
C103  C121  S    
C110  C116  S    
C37   O33   S    
C75   H12   S    
C14   C57   A    
C93   H13   S    
C84   C88   S    
C156  N5    A    
C85   C90   S    
C65   C156  S    
C27   O12   D    
C28   O16   S    
C100  C106  S    
C137  H24   S    
C142  N4    A    
N25   Ni4   S    
C23   C101  S    
C59   C140  S    
C29   C102  S    
H65   O49   S    
C91   C98   S    
N15   Ni6   S    
C104  F21   S    
H63   O44   S    
C106  C124  S    
C66   O92   D    
C11   C46   A    
C100  C117  S    
C58   O74   D    
C109  C120  S    
C92   C161  A    
C34   O28   D    
C123  C132  S    
C34   C112  S    
C110  H5    S    
C29   O17   D    
C86   H23   S    
C43   C125  S    
C69   O96   D    
N18   N24   A    
C130  N20   A    
C101  C118  S    
C58   O75   S    
C48   C134  S    
C148  C150  S    
C1    N1    A    
C21   C99   S    
C25   C102  S    
C104  C122  S    
C13   F16   S    
C119  H35   S    
C26   O10   D    
H46   O9    S    
C108  H33   S    
C123  C127  S    
C72   C108  A    
N24   Ni1   S    
C52   O63   D    
C16   H32   S    
C148  C155  S    
C89   C91   S    
C107  C118  S    
C8    F9    S    
C120  C162  S    
C26   C99   S    
N27   N30   A    
C30   O19   D    
C49   C135  S    
C77   C85   S    
C105  F22   S    
C14   N15   A    
C32   O23   D    
C81   C83   S    
N6    Ni1   S    
C1    H1    S    
C104  H2    S    
N12   N28   A    
C40   O40   S    
C76   C124  S    
C116  C161  S    
C107  C125  S    
C80   C82   S    
C38   O34   D    
H60   O38   S    
H66   O51   S    
C134  C149  S    
C4    C138  A    
C30   C112  S    
C44   O48   D    
C121  C125  S    
C71   O100  D    
C51   O61   D    
N31   Ni8   S    
C23   O7    S    
H47   O11   S    
C88   C91   S    
C109  H4    S    
C148  F7    S    
C97   H34   S    
C14   H30   S    
C114  C118  S    
C54   O69   S    
C141  H37   S    
C113  C117  S    
C12   C57   A    
C33   O26   D    
C73   C152  A    
C137  C150  S    
C15   H31   S    
C122  C131  S    
C112  C116  S    
C31   O21   D    
C135  H21   S    
C22   O4    D    
N11   Ni3   S    
H61   O40   S    
C83   C87   S    
C79   C82   S    
N1    Ni1   S    
H69   O55   S    
C12   N14   A    
C20   C89   S    
C77   C96   S    
C97   N27   A    
C59   O76   D    
C111  C117  S    
C53   C144  S    
C19   O46   D    
N16   Ni7   S    
C103  H89   S    
C4    C139  A    
C38   C115  S    
C5    C142  A    
C50   O59   D    
C92   N28   A    
C25   O8    D    
C69   C159  S    
H81   O80   S    
H70   O58   S    
C109  C126  S    
C141  N21   A    
N7    Ni4   S    
C111  C128  S    
C94   N30   A    
C32   O25   S    
C31   C113  S    
C66   C157  S    
C6    C156  A    
C41   O41   D    
C64   O88   S    
C67   O94   D    
C23   O6    D    
C78   C87   S    
C158  N7    A    
H39   O35   S    
C15   N16   A    
N12   Ni2   S    
N18   Ni6   S    
C53   O66   S    
C72   C121  S    
C61   O82   S    
C49   O56   D    
C61   C154  S    
C6    C157  A    
N26   Ni3   S    
C42   O44   S    
C64   C155  S    
N23   Ni3   S    
C5    C140  A    
N28   Ni5   S    
C147  C149  S    
N30   Ni7   S    
N16   N17   A    
C134  H20   S    
N2    N32   A    
C63   O86   S    
C56   O73   S    
C80   C89   S    
N17   Ni8   S    
C54   O67   D    
H71   O60   S    
C95   N31   A    
C60   C142  S    
C28   C101  S    
H57   O31   S    
C20   O68   D    
C153  C155  S    
C131  H17   S    
C124  C128  S    
C76   C141  A    
C10   F11   S    
C11   N13   A    
C111  H6    S    
C17   O1    D    
C117  C160  S    
C39   O38   S    
H42   O2    S    
C119  N19   A    
C75   N12   A    
C2    C72   A    
C79   C88   S    
C37   O32   D    
H59   O36   S    
C27   C100  S    
C33   C115  S    
C159  N8    A    
C132  H18   S    
C77   F1    S    
C52   C143  S    
C139  N2    A    
C130  H36   S    
H91   O99   S    
C19   C88   S    
C136  H22   S    
C55   C146  S    
C68   C84   S    
C93   C160  A    
H92   O3    S    
N7    N8    A    
C3    C97   A    
N9    N10   A    
C91   H56   S    
C77   C81   S    
C107  H3    S    
C112  C132  S    
C90   C96   S    
C157  N6    A    
C145  H27   S    
C51   C137  S    
C83   C85   S    
H53   O25   S    
C66   O93   S    
C114  C129  S    
C49   O58   S    
C95   H15   S    
H87   O93   S    
C133  F2    S    
C144  H26   S    
C102  C120  S    
N21   Ni7   S    
C21   O90   D    
C34   O29   S    
H49   O16   S    
C80   C98   S    
C36   O31   S    
C1    C160  A    
H52   O22   S    
C106  F23   S    
C121  C129  S    
C62   O83   D    
C40   C109  S    
C25   O9    S    
C11   F13   S    
C129  F3    S    
H88   O95   S    
C78   C81   S    
C146  C153  S    
C94   H14   S    
N3    Ni8   S    
C152  N22   A    
C147  F6    S    
H48   O14   S    
C24   N26   A    
C73   C122  S    
C87   C90   S    
C9    C35   A    
C52   O64   S    
C79   F18   S    
C9    F10   S    
C35   C149  S    
C12   H29   S    
C55   O71   S    
N21   N25   A    
C58   C139  S    
C30   O20   S    
C7    C98   S    
C33   O27   S    
C103  F20   S    
C79   C98   S    
C140  N3    A    
C108  N18   A    
C67   O95   S    
C7    C158  A    
C115  C131  S    
C39   C107  S    
C28   O15   D    
C44   C126  S    
C60   O78   D    
N13   Ni4   S    
N14   N15   A    
H76   O71   S    
C138  N32   A    
C75   C161  A    
C133  H19   S    
N8    Ni3   S    
C151  C154  S    
C147  C154  S    
C70   C81   S    
C126  H8    S    
C8    N9    A    
C10   C46   A    
C148  F8    S    
H54   O27   S    
C16   C68   A    
C67   C158  S    
N20   Ni8   S    
C136  C145  S    
C110  C127  S    
C145  C153  S    
N23   N31   A    
H40   O57   S    
C29   O18   S    
C36   C113  S    
C69   O97   S    
C10   N11   A    
C70   O98   D    
C99   C105  S    
C22   O5    S    
H74   O66   S    
C63   C155  S    
C55   O70   D    
C95   C162  A    
C132  F24   S    
C17   O13   S    
C143  H25   S    
C43   O47   S    
N3    N4    A    
C135  C149  S    
H41   O79   S    
C62   C154  S    
C122  C126  S    
C47   O52   D    
C42   C111  S    
C56   C138  S    
C56   O72   D    
C50   O60   S    
C13   C76   A    
C38   O36   S    
C86   N23   A    
H62   O42   S    
C24   F17   S    
C71   O3    S    
N20   N26   A    
C80   F19   S    
C102  C104  S    
C18   O24   D    
C86   C162  A    
C129  H16   S    
C135  C144  S    
C46   C150  S    
C6    C96   S    
C41   C110  S    
C74   C130  A    
N19   N22   A    
C90   H45   S    
C84   C89   S    
C92   H11   S    
H51   O20   S    
N5    N6    A    
C26   O11   S    
H38   O13   S    
C78   F12   S    
C4    C151  S    
C21   O2    S    
C65   O91   S    
C53   O65   D    
C9    N10   A    
C60   O80   S    
C40   O39   D    
C61   O81   D    
C128  H10   S    
C136  C150  S    
C18   O35   S    
H72   O62   S    
C18   C87   S    
C48   O54   D    
C32   C114  S    
C36   O30   D    
C19   O57   S    
C50   C136  S    
C51   O62   S    
C24   C74   A    
C45   C127  S    
N2    Ni5   S    
C5    C153  S    
C15   C68   A    
C63   O85   D    
N11   N13   A    
N10   Ni2   S    
C3    C94   A    
C152  F14   S    
H75   O69   S    
C115  C120  S    
H44   O7    S    
H68   O53   S    
C13   N25   A    
N29   Ni6   S    
N9    Ni1   S    
H55   O29   S    
H85   O88   S    
C31   O22   S    
H43   O5    S    
