data_mof_unit_37454.cif
_audit_creation_date              2012-12-11T17:14:07-0500
_audit_creation_method            fapswitch 2.2
_symmetry_space_group_name_H-M    P1
_symmetry_Int_Tables_number       1
_space_group_crystal_system       triclinic
_cell_length_a                    18.216892
_cell_length_b                    7.091285
_cell_length_c                    12.980712
_cell_angle_alpha                 90.000076
_cell_angle_beta                  72.056873
_cell_angle_gamma                 90.000113
_cell_volume                      1595.30562596

loop_
_atom_site_label
_atom_site_type_symbol
_atom_type_description
_atom_site_fract_x
_atom_site_fract_y
_atom_site_fract_z
_atom_type_partial_charge
O1    O     O_R   0.453880 0.506200 0.150010 -0.535967
O2    O     O_R   0.546120 0.006200 0.849990 -0.535967
O3    O     O_R   0.604080 0.177770 0.007280 -0.539327
O4    O     O_R   0.395920 0.677770 0.992720 -0.539326
C1    C     C_R   0.635983 0.344510 0.001774 0.732306
C2    C     C_R   0.364017 0.844509 0.998226 0.732305
O5    O     O_R   0.458010 0.176640 0.159130 -0.539020
O6    O     O_R   0.541990 0.676640 0.840870 -0.539017
O7    O     O_R   0.399010 0.004010 0.002930 -0.533915
O8    O     O_R   0.600990 0.504010 0.997070 -0.533914
C3    C     C_R   0.443878 0.345225 0.202025 0.721656
C4    C     C_R   0.556122 0.845225 0.797974 0.721656
O9    O     O_3   0.480810 0.338440 0.948570 -0.373371
O10   O     O_3   0.519190 0.838440 0.051430 -0.373372
V1    V     V_3+5 0.503560 0.064490 0.009540 1.520185
V2    V     V_3+5 0.496440 0.564490 0.990460 1.520195
C5    C     C_R   0.581157 0.798779 0.499719 0.647759
C6    C     C_R   0.418845 0.298872 0.500283 0.647773
H1    H     H_    0.661454 0.803365 0.290913 0.204774
H2    H     H_    0.338550 0.303502 0.709089 0.204784
C7    C     C_R   0.589528 0.850856 0.679911 -0.161903
C8    C     C_R   0.410471 0.350863 0.320087 -0.161908
C9    C     C_R   0.953950 0.854193 0.386195 -0.092619
C10   C     C_R   0.046048 0.354188 0.613805 -0.092617
C11   C     C_R   0.922037 0.837193 0.498706 -0.053618
C12   C     C_R   0.077961 0.337192 0.501294 -0.053619
C13   C     C_R   0.841505 0.820956 0.546157 -0.051215
C14   C     C_R   0.158493 0.320957 0.453844 -0.051214
C15   C     C_R   0.790721 0.842010 0.481562 0.001560
C16   C     C_R   0.209279 0.342025 0.518438 0.001562
C17   C     C_R   0.824161 0.849036 0.366318 -0.057452
C18   C     C_R   0.175839 0.349067 0.633681 -0.057456
C19   C     C_R   0.707899 0.846374 0.525898 -0.000159
C20   C     C_R   0.292100 0.346396 0.474100 -0.000160
C21   C     C_R   0.661761 0.819693 0.456625 -0.079180
C22   C     C_R   0.338240 0.319764 0.543375 -0.079194
C23   C     C_R   0.696151 0.817625 0.344955 -0.152324
C24   C     C_R   0.303851 0.317724 0.655046 -0.152311
C25   C     C_R   0.775103 0.840206 0.300004 0.541207
C26   C     C_R   0.224898 0.340281 0.699995 0.541204
C27   C     C_R   0.668766 0.882202 0.636169 -0.172554
C28   C     C_R   0.331232 0.382193 0.363825 -0.172560
C29   C     C_R   0.545405 0.806503 0.611566 -0.127318
C30   C     C_R   0.454597 0.306564 0.388435 -0.127300
C31   C     C_R   0.905724 0.858568 0.319967 -0.113990
C32   C     C_R   0.094274 0.358573 0.680033 -0.113989
H3    H     H_    0.698256 0.936712 0.690132 0.138309
H4    H     H_    0.301742 0.436682 0.309857 0.138310
C33   C     C_1   0.216294 0.858782 0.000363 -0.074122
C34   C     C_1   0.783706 0.358781 0.999637 -0.074121
C35   C     C_1   0.283591 0.852590 0.999156 -0.115055
C36   C     C_1   0.716408 0.352591 0.000844 -0.115053
O11   O     O_R   0.899030 0.205490 0.002790 -0.530441
O12   O     O_R   0.100970 0.705490 0.997210 -0.530427
O13   O     O_R   0.042000 0.536370 0.840840 -0.537160
O14   O     O_R   0.958000 0.036370 0.159160 -0.537172
C37   C     C_R   0.058083 0.368185 0.798143 0.817616
C38   C     C_R   0.941916 0.868184 0.201857 0.817617
O15   O     O_R   0.895930 0.535070 0.992690 -0.523606
O16   O     O_R   0.104070 0.035070 0.007310 -0.523620
O17   O     O_R   0.953870 0.707520 0.150040 -0.532434
O18   O     O_R   0.046130 0.207520 0.849960 -0.532448
C39   C     C_R   0.864137 0.366754 0.998664 0.736363
C40   C     C_R   0.135863 0.866754 0.001337 0.736359
O19   O     O_3   0.019200 0.374340 0.051340 -0.373105
O20   O     O_3   0.980800 0.874340 0.948660 -0.373108
V3    V     V_3+5 0.996440 0.648350 0.990470 1.615763
V4    V     V_3+5 0.003560 0.148350 0.009530 1.615730
C41   C     C_1   0.463172 0.775072 0.654642 0.445099
N1    N     N_1   0.397337 0.750018 0.689120 -0.348496
C42   C     C_1   0.536832 0.275158 0.345360 0.445099
N2    N     N_1   0.602668 0.250126 0.310884 -0.348493
F1    F     F_    0.537548 0.766983 0.433127 -0.698779
F2    F     F_    0.462456 0.267125 0.566878 -0.698769
C43   C     C_1   0.037232 0.852818 0.337530 0.285532
N3    N     N_1   0.103540 0.849983 0.298693 -0.345272
C44   C     C_1   0.962766 0.352804 0.662469 0.285529
N4    N     N_1   0.896458 0.349964 0.701305 -0.345276
C45   C     C_1   0.814566 0.755282 0.657467 0.319193
N5    N     N_1   0.793517 0.702868 0.746245 -0.333603
C46   C     C_1   0.185432 0.255272 0.342535 0.319193
N6    N     N_1   0.206482 0.202852 0.253758 -0.333603
C47   C     C_1   0.972801 0.832511 0.565986 0.310238
N7    N     N_1   0.013232 0.829493 0.619460 -0.344463
C48   C     C_1   0.027198 0.332522 0.434012 0.310236
N8    N     N_1   0.986769 0.329513 0.380535 -0.344461
F3    F     F_    0.802339 0.846539 0.190247 -0.697084
F4    F     F_    0.197663 0.346642 0.809752 -0.697083

loop_
_geom_bond_atom_site_label_1
_geom_bond_atom_site_label_2
_ccdc_geom_bond_type
O20   V4    S    
C9    C31   A    
C13   C15   A    
O1    C3    A    
C25   F3    S    
O2    C4    A    
C2    O7    A    
C46   N6    T    
C37   O18   A    
C44   N4    T    
O5    C3    A    
C21   C23   A    
C10   C12   A    
C13   C45   S    
C48   N8    T    
C15   C19   A    
C30   C42   S    
O11   V4    S    
H1    C23   S    
O15   V3    S    
C7    C29   A    
C8    C30   A    
C17   C25   A    
C33   C35   T    
C20   C28   A    
C34   C36   T    
C1    C36   S    
C2    C35   S    
C16   C18   A    
C38   O17   A    
O5    V1    S    
O20   V3    S    
O6    V2    S    
C33   C40   S    
C5    F1    S    
C34   C39   S    
C18   C32   A    
C23   C25   A    
C31   C38   S    
C16   C20   A    
O4    C2    A    
O12   V3    S    
O19   V3    S    
O14   V4    S    
C4    C7    S    
O4    V2    S    
C43   N3    T    
C5    C29   A    
C6    C30   A    
H2    C24   S    
O17   V3    S    
C47   N7    T    
O6    C4    A    
O19   V4    S    
C27   H3    S    
O1    V2    S    
C28   H4    S    
O2    V1    S    
C7    C27   A    
O13   C37   A    
C32   C37   S    
O3    V1    S    
C14   C46   S    
O15   C39   A    
C9    C43   S    
O3    C1    A    
O13   V3    S    
C11   C13   A    
C3    C8    S    
C12   C14   A    
O18   V4    S    
O16   C40   A    
C19   C27   A    
C26   F4    S    
C22   C24   A    
O7    V1    S    
C10   C32   A    
C42   N2    T    
C15   C17   A    
O8    V2    S    
C24   C26   A    
O11   C39   A    
C8    C28   A    
O12   C40   A    
C12   C48   S    
C14   C16   A    
C19   C21   A    
O14   C38   A    
C20   C22   A    
C18   C26   A    
C41   N1    T    
C45   N5    T    
C10   C44   S    
C1    O8    A    
C9    C11   A    
O16   V4    S    
C6    F2    S    
C17   C31   A    
O9    V2    S    
C11   C47   S    
O10   V1    S    
C5    C21   A    
C29   C41   S    
C6    C22   A    
