data_mof_unit_29003.cif
_audit_creation_date              2012-12-10T16:39:33-0500
_audit_creation_method            fapswitch 2.2
_symmetry_space_group_name_H-M    P1
_symmetry_Int_Tables_number       1
_space_group_crystal_system       triclinic
_cell_length_a                    16.965637
_cell_length_b                    16.786436
_cell_length_c                    16.856056
_cell_angle_alpha                 66.916869
_cell_angle_beta                  66.643994
_cell_angle_gamma                 66.760576
_cell_volume                      3888.34992754

loop_
_atom_site_label
_atom_site_type_symbol
_atom_type_description
_atom_site_fract_x
_atom_site_fract_y
_atom_site_fract_z
_atom_type_partial_charge
C1    C     C_R   0.327724 0.959017 0.445678 0.003181
C2    C     C_R   0.318250 0.447845 0.983329 0.024824
C3    C     C_R   0.556724 0.431902 0.939913 0.027990
C4    C     C_R   0.090496 0.429788 0.561899 0.029992
C5    C     C_R   0.079578 0.513767 0.384638 0.028998
C6    C     C_3   0.235710 0.052523 0.244430 -0.838897
C7    C     C_3   0.761150 0.930985 0.751859 -0.865837
C8    C     C_3   0.037334 0.230827 0.228597 -0.810201
C9    C     C_3   0.932379 0.735545 0.738989 -0.859118
C10   C     C_3   0.258816 0.248587 0.073198 -0.859985
C11   C     C_3   0.765244 0.767676 0.959934 -0.801634
C12   C     C_R   0.077304 0.666415 0.536020 0.008477
C13   C     C_R   0.058090 0.287335 0.420515 0.007818
C14   C     C_R   0.451881 0.997159 0.449228 -0.037325
C15   C     C_R   0.545120 0.011648 0.546841 -0.037892
C16   C     C_R   0.076086 0.423797 0.425180 -0.039266
C17   C     C_R   0.087529 0.521479 0.523178 -0.038314
C18   C     C_R   0.462697 0.461964 0.965911 -0.038053
C19   C     C_R   0.561561 0.552217 0.983950 -0.038874
C20   C     C_R   0.007746 0.160942 0.424537 0.935652
C21   C     C_R   0.671346 0.046235 0.550877 0.004228
C22   C     C_R   0.033743 0.820575 0.563401 0.917115
C23   C     C_R   0.177019 0.432558 0.977362 0.879253
C24   C     C_R   0.837558 0.574630 0.994456 0.943785
C25   C     C_R   0.428125 0.992894 0.170339 0.932018
C26   C     C_R   0.570688 0.012374 0.826930 0.925758
C27   C     C_R   0.567809 0.822007 0.026466 0.918500
C28   C     C_R   0.436762 0.179039 0.965609 0.911840
C29   C     C_R   0.036795 0.561771 0.820666 0.893393
C30   C     C_R   0.004873 0.424850 0.163399 0.935402
C31   C     C_R   0.821266 0.031761 0.564756 0.944928
C32   C     C_R   0.052814 0.421800 0.290812 0.013621
C33   C     C_R   0.178739 0.969017 0.434553 0.873598
C34   C     C_R   0.404575 0.990907 0.400450 0.069269
C35   C     C_R   0.592746 0.017151 0.595720 0.070680
C36   C     C_R   0.062632 0.377387 0.378603 0.077637
C37   C     C_R   0.081905 0.573537 0.575361 0.074620
C38   C     C_R   0.412588 0.414974 0.960724 0.065809
C39   C     C_R   0.610323 0.599068 0.991448 0.075437
C40   C     C_R   0.271950 0.970965 0.394196 -0.117443
C41   C     C_R   0.727844 0.030939 0.603340 -0.136748
C42   C     C_R   0.031998 0.376959 0.247482 -0.153360
C43   C     C_R   0.078633 0.533531 0.667454 0.008218
C44   C     C_R   0.051444 0.592178 0.722769 -0.118303
C45   C     C_R   0.401494 0.275587 0.957902 -0.135210
C46   C     C_R   0.613433 0.730915 0.017253 -0.127684
C47   C     C_R   0.609604 0.003312 0.736339 -0.136540
C48   C     C_R   0.387791 0.004530 0.259665 -0.139651
C49   C     C_R   0.750409 0.617952 0.977243 -0.152736
C50   C     C_R   0.270456 0.397977 0.977904 -0.120255
C51   C     C_R   0.049888 0.721855 0.594306 -0.139914
C52   C     C_R   0.036085 0.244478 0.376191 -0.142720
C53   C     C_R   0.492427 0.950830 0.734920 -0.226784
C54   C     C_R   0.455878 0.332263 0.937941 0.004239
C55   C     C_R   0.504442 0.057751 0.261073 -0.225833
C56   C     C_R   0.093052 0.700609 0.441368 -0.241609
C57   C     C_R   0.078671 0.242482 0.504189 -0.231884
C58   C     C_R   0.749034 0.496222 0.927849 -0.230711
C59   C     C_R   0.275601 0.522363 0.019708 -0.232591
C60   C     C_R   0.307011 0.922214 0.540112 -0.240394
C61   C     C_R   0.692951 0.082368 0.456246 -0.231321
C62   C     C_R   0.550687 0.306547 0.905336 -0.237684
C63   C     C_R   0.471315 0.692318 0.066429 -0.235195
C64   C     C_R   0.067426 0.508575 0.248438 -0.238272
C65   C     C_R   0.564687 0.673954 0.026972 -0.005275
C66   C     C_R   0.096354 0.438020 0.700583 -0.247021
C67   C     C_R   0.300712 0.002290 0.300443 0.095620
C68   C     C_R   0.698647 0.997936 0.696532 0.108335
C69   C     C_R   0.036274 0.284625 0.285312 0.091553
C70   C     C_R   0.020184 0.684355 0.686469 0.113114
C71   C     C_R   0.308907 0.307231 0.991169 0.110954
C72   C     C_R   0.707729 0.705378 0.984568 0.095765
C73   C     C_R   0.643986 0.079672 0.407139 0.116072
C74   C     C_R   0.354629 0.926979 0.589042 0.116143
C75   C     C_R   0.098814 0.386986 0.649691 0.111984
C76   C     C_R   0.562872 0.991979 0.690171 0.015219
C77   C     C_R   0.076284 0.555707 0.295505 0.118911
C78   C     C_R   0.422490 0.650112 0.054558 0.114469
C79   C     C_R   0.601026 0.355774 0.906503 0.113101
C80   C     C_R   0.550147 0.066258 0.309210 0.110127
C81   C     C_R   0.446956 0.942292 0.686790 0.108239
C82   C     C_R   0.324600 0.566400 0.028545 0.105042
C83   C     C_R   0.700534 0.449862 0.919442 0.112965
C84   C     C_R   0.088871 0.289123 0.551406 0.111251
C85   C     C_R   0.091400 0.651467 0.391505 0.117043
C86   C     C_R   0.667624 0.112327 0.312913 -0.202854
C87   C     C_R   0.433762 0.016875 0.305969 0.013673
C88   C     C_R   0.331191 0.893962 0.683186 -0.209861
C89   C     C_R   0.106620 0.294105 0.686075 -0.210334
C90   C     C_R   0.080933 0.645075 0.254678 -0.208460
C91   C     C_R   0.328880 0.678555 0.082285 -0.202664
C92   C     C_R   0.695129 0.328638 0.877707 -0.208531
C93   C     C_R   0.620980 0.105862 0.264373 -0.203993
C94   C     C_R   0.377002 0.901541 0.731692 -0.206804
C95   C     C_R   0.280457 0.638286 0.067336 -0.205864
C96   C     C_R   0.744358 0.375515 0.883617 -0.205210
C97   C     C_R   0.101953 0.245633 0.637343 -0.202149
C98   C     C_R   0.704438 0.570404 0.965234 0.018430
C99   C     C_R   0.090371 0.691901 0.301495 -0.203332
C100  C     C_R   0.524684 0.034754 0.403660 0.027485
C101  C     C_R   0.472216 0.974217 0.592382 0.027866
C102  C     C_R   0.085078 0.380892 0.512818 0.027845
C103  C     C_R   0.086270 0.562151 0.433134 0.028395
C104  C     C_R   0.418414 0.536834 0.001091 0.028185
C105  C     C_R   0.606356 0.478100 0.947555 0.025796
C106  C     C_R   0.571424 0.041838 0.452559 0.027753
C107  C     C_R   0.425923 0.966562 0.543529 0.028423
C108  C     C_R   0.467590 0.580212 0.012374 0.025885
H1    H     H_    0.357305 0.876047 0.804430 0.143285
H2    H     H_    0.293178 0.733316 0.113460 0.139526
H3    H     H_    0.074291 0.679849 0.187393 0.124057
H4    H     H_    0.114128 0.259322 0.753166 0.138795
H5    H     H_    0.475707 0.919735 0.806766 0.173071
H6    H     H_    0.521839 0.087339 0.188925 0.169745
H7    H     H_    0.103399 0.766281 0.404911 0.176389
H8    H     H_    0.089375 0.170547 0.533141 0.174865
H9    H     H_    0.821328 0.475947 0.902291 0.163219
H10   H     H_    0.204684 0.542559 0.050600 0.167099
H11   H     H_    0.254351 0.889289 0.576517 0.168366
H12   H     H_    0.640992 0.130946 0.191616 0.143888
H13   H     H_    0.747558 0.112639 0.419870 0.169802
H14   H     H_    0.586144 0.248035 0.879913 0.170809
H15   H     H_    0.435146 0.740204 0.105767 0.171277
H16   H     H_    0.075700 0.540601 0.177693 0.161633
H17   H     H_    0.105855 0.401945 0.766428 0.179690
H18   H     H_    0.264522 0.086872 0.174950 0.234075
H19   H     H_    0.206567 0.007109 0.238576 0.263298
H20   H     H_    0.187308 0.106727 0.274987 0.228994
H21   H     H_    0.828298 0.903640 0.711537 0.254383
H22   H     H_    0.767542 0.960778 0.796439 0.260786
H23   H     H_    0.093070 0.761041 0.268435 0.132823
H24   H     H_    0.736233 0.870687 0.788803 0.218550
H25   H     H_    0.079426 0.249000 0.158508 0.226369
H26   H     H_    0.066440 0.157652 0.248918 0.230674
H27   H     H_    0.967884 0.241502 0.230067 0.270243
H28   H     H_    0.887652 0.772378 0.694864 0.226326
H29   H     H_    0.895474 0.689704 0.795902 0.214023
H30   H     H_    0.943222 0.781181 0.764266 0.259737
H31   H     H_    0.202647 0.288812 0.116805 0.215049
H32   H     H_    0.232892 0.209898 0.053663 0.258104
H33   H     H_    0.304489 0.204899 0.115582 0.222452
H34   H     H_    0.106281 0.174533 0.667922 0.139115
H35   H     H_    0.739482 0.836038 0.920304 0.240164
H36   H     H_    0.770480 0.771588 0.021892 0.265808
H37   H     H_    0.833123 0.746246 0.915350 0.220937
H38   H     H_    0.816816 0.352775 0.861298 0.143720
H39   H     H_    0.208473 0.663412 0.085808 0.131127
H40   H     H_    0.276864 0.863058 0.719397 0.142607
H41   H     H_    0.722843 0.141962 0.276640 0.144023
H42   H     H_    0.730763 0.270529 0.851457 0.144244
O1    O     O_R   0.982940 0.138950 0.510160 -0.631872
O2    O     O_R   0.982940 0.510160 0.138950 -0.626665
O3    O     O_R   0.861050 0.017060 0.489840 -0.628981
O4    O     O_R   0.138950 0.982940 0.510160 -0.663655
O5    O     O_R   0.867700 0.025880 0.612340 -0.609953
O6    O     O_R   0.132300 0.974120 0.387660 -0.648141
O7    O     O_R   0.025880 0.612340 0.867700 -0.626438
O8    O     O_R   0.974120 0.387660 0.132300 -0.607965
O9    O     O_R   0.612340 0.867700 0.025880 -0.624192
O10   O     O_R   0.387660 0.132300 0.974120 -0.620090
O11   O     O_R   0.387660 0.974120 0.132300 -0.621486
O12   O     O_R   0.017060 0.861050 0.489840 -0.638424
O13   O     O_R   0.612340 0.025880 0.867700 -0.631954
O14   O     O_R   0.132300 0.387660 0.974120 -0.634927
O15   O     O_R   0.867700 0.612340 0.025880 -0.600577
O16   O     O_R   0.974120 0.132300 0.387660 -0.625477
O17   O     O_R   0.025880 0.867700 0.612340 -0.623877
O18   O     O_R   0.138950 0.510160 0.982940 -0.670786
O19   O     O_R   0.861050 0.489840 0.017060 -0.616753
O20   O     O_R   0.510160 0.982940 0.138950 -0.634123
O21   O     O_R   0.489840 0.017060 0.861050 -0.642887
O22   O     O_R   0.489840 0.861050 0.017060 -0.646331
O23   O     O_R   0.510160 0.138950 0.982940 -0.651477
O24   O     O_R   0.017060 0.489840 0.861050 -0.670443
Zn1   Zn    Zn3+2 0.004880 0.004880 0.583590 0.918704
Zn2   Zn    Zn3+2 0.995120 0.995120 0.416410 0.909819
Zn3   Zn    Zn3+2 0.004880 0.583590 0.004880 0.912322
Zn4   Zn    Zn3+2 0.995120 0.416410 0.995120 0.910130
Zn5   Zn    Zn3+2 0.583590 0.004880 0.004880 0.915423
Zn6   Zn    Zn3+2 0.416410 0.995120 0.995120 0.916602

loop_
_geom_bond_atom_site_label_1
_geom_bond_atom_site_label_2
_ccdc_geom_bond_type
C25   O20   A    
C101  C107  A    
C63   C65   A    
C55   C80   A    
C45   C71   A    
C84   C102  A    
C64   C77   A    
C90   C99   A    
C58   C98   A    
C59   C82   A    
C92   C96   A    
C29   O24   A    
C50   C71   A    
C3    C79   A    
C31   O5    A    
C5    C103  A    
C56   C85   A    
C33   O6    A    
C28   C45   S    
C81   C101  A    
C3    C105  A    
C89   H4    S    
C8    C69   S    
O4    Zn1   S    
C3    C18   A    
C84   C97   A    
C32   C36   A    
C15   C106  A    
C78   C108  A    
C47   C76   A    
C22   O12   A    
C28   O23   A    
C13   C57   A    
O23   Zn5   S    
C27   O9    A    
O18   Zn3   S    
C26   O13   A    
C28   O10   A    
O15   Zn3   S    
C60   H11   S    
C61   H13   S    
O2    Zn3   S    
O10   Zn6   S    
C5    C16   A    
C52   C69   A    
C2    C50   A    
C1    C40   A    
C7    C68   S    
C9    H29   S    
C25   O11   A    
C4    C75   A    
C49   C72   A    
C4    C102  A    
C66   C75   A    
C44   C70   A    
C51   C70   A    
C41   C68   A    
C62   H14   S    
C11   H36   S    
O24   Zn4   S    
C21   C61   A    
C85   C103  A    
C19   C108  A    
O22   Zn6   S    
C100  C106  A    
C49   C98   A    
C80   C100  A    
C8    H27   S    
C55   C87   A    
C39   C65   A    
C10   H32   S    
C90   H3    S    
C15   C35   A    
C31   O3    A    
C53   H5    S    
C1    C34   A    
C57   H8    S    
C77   C90   A    
C88   C94   A    
C35   C76   A    
C48   C87   A    
C33   C40   S    
O1    Zn1   S    
C8    H26   S    
C62   C79   A    
C95   H39   S    
C9    C70   S    
C6    H18   S    
C13   C36   A    
C1    C60   A    
C33   O4    A    
C11   H37   S    
C23   C50   S    
C29   O7    A    
C54   C62   A    
C61   C73   A    
C64   H16   S    
C40   C67   A    
C58   H9    S    
C83   C105  A    
C89   C97   A    
C97   H34   S    
C10   H33   S    
C17   C103  A    
C37   C43   A    
C43   C44   A    
C14   C34   A    
C85   C99   A    
C86   C93   A    
C13   C52   A    
C9    H30   S    
C2    C38   A    
C30   O2    A    
C38   C54   A    
C88   H40   S    
C57   C84   A    
C18   C104  A    
C15   C101  A    
O11   Zn6   S    
C24   O19   A    
C25   C48   S    
C32   C64   A    
C7    H24   S    
C12   C56   A    
C19   C39   A    
C26   C47   S    
C46   C65   A    
C21   C41   A    
C22   O17   A    
C74   C107  A    
C27   C46   S    
C16   C102  A    
C14   C107  A    
C93   H12   S    
C26   O21   A    
C59   H10   S    
C7    H22   S    
C29   C44   S    
O13   Zn5   S    
O21   Zn6   S    
C86   H41   S    
C53   C76   A    
C10   H31   S    
C4    C17   A    
C5    C77   A    
C19   C105  A    
C47   C68   A    
C104  C108  A    
C12   C51   A    
O14   Zn4   S    
C91   H2    S    
C79   C92   A    
C23   O14   A    
O5    Zn1   S    
C24   C49   S    
C30   O8    A    
O6    Zn2   S    
C82   C104  A    
C82   C95   A    
C31   C41   S    
C8    H25   S    
C2    C59   A    
C46   C72   A    
C20   O16   A    
O12   Zn2   S    
O9    Zn5   S    
C39   C98   A    
C45   C54   A    
C6    H19   S    
C11   C72   S    
C63   H15   S    
C20   O1    A    
C14   C100  A    
C21   C35   A    
C55   H6    S    
C17   C37   A    
C78   C91   A    
C96   H38   S    
C94   H1    S    
O16   Zn2   S    
C66   H17   S    
C99   H23   S    
O20   Zn5   S    
C24   O15   A    
O8    Zn4   S    
C6    H20   S    
C20   C52   S    
C6    C67   S    
C58   C83   A    
C16   C36   A    
C92   H42   S    
C81   C94   A    
C73   C106  A    
C43   C66   A    
C83   C96   A    
C60   C74   A    
C56   H7    S    
O17   Zn1   S    
C34   C87   A    
C42   C69   A    
C48   C67   A    
C18   C38   A    
C53   C81   A    
O7    Zn3   S    
C73   C86   A    
C7    H21   S    
O19   Zn4   S    
C75   C89   A    
C10   C71   S    
C91   C95   A    
C23   O18   A    
C9    H28   S    
O3    Zn2   S    
C12   C37   A    
C32   C42   A    
C30   C42   S    
C74   C88   A    
C80   C93   A    
C11   H35   S    
C27   O22   A    
C22   C51   S    
C63   C78   A    
