data_mof_unit_43103.cif
_audit_creation_date              2012-12-11T16:31:26-0500
_audit_creation_method            fapswitch 2.2
_symmetry_space_group_name_H-M    P1
_symmetry_Int_Tables_number       1
_space_group_crystal_system       triclinic
_cell_length_a                    6.94693
_cell_length_b                    18.196628
_cell_length_c                    20.275385
_cell_angle_alpha                 68.349603
_cell_angle_beta                  90.376119
_cell_angle_gamma                 91.092087
_cell_volume                      2381.77711364

loop_
_atom_site_label
_atom_site_type_symbol
_atom_type_description
_atom_site_fract_x
_atom_site_fract_y
_atom_site_fract_z
_atom_type_partial_charge
O1    O     O_R   0.488990 0.443920 0.942160 -0.544814
O2    O     O_R   0.823840 0.406530 0.087600 -0.535272
O3    O     O_R   0.999650 0.556080 0.057840 -0.520930
C1    C     C_R   0.654238 0.384960 0.115876 0.791961
O4    O     O_R   0.818390 0.434590 0.944530 -0.536554
O5    O     O_R   0.994160 0.584350 0.913750 -0.544243
C2    C     C_R   0.648783 0.420554 0.924121 0.691337
O6    O     O_R   0.494480 0.415650 0.086250 -0.526113
O7    O     O_3   0.662600 0.549100 0.990070 -0.355606
V1    V     V_3+5 0.935320 0.490890 0.001840 1.509921
O8    O     O_R   0.324240 0.593470 0.912400 -0.536975
C3    C     C_R   0.155738 0.617792 0.885674 0.763161
O9    O     O_R   0.329690 0.565410 0.055470 -0.507667
C4    C     C_R   0.162328 0.578058 0.077203 0.800890
V2    V     V_3+5 0.435990 0.509110 0.998160 1.518297
O10   O     O_3   0.158840 0.450900 0.009930 -0.377151
C5    C     C_3   0.932786 0.707086 0.235867 -0.337323
C6    C     C_3   0.274418 0.671374 0.274083 -0.294478
C7    C     C_3   0.268128 0.720205 0.322937 -0.284759
H1    H     H_    0.882195 0.645050 0.263656 0.210629
H2    H     H_    0.425185 0.669990 0.256342 0.182325
H3    H     H_    0.228644 0.609179 0.304816 0.173398
H4    H     H_    0.227579 0.680727 0.377712 0.202363
H5    H     H_    0.414540 0.744488 0.326175 0.194906
C8    C     C_1   0.110678 0.874043 0.378945 -0.073783
C9    C     C_3   0.141261 0.707445 0.208672 0.197167
C10   C     C_3   0.922005 0.754612 0.285956 0.259381
C11   C     C_3   0.124374 0.789188 0.293834 0.174330
C12   C     C_3   0.194161 0.842700 0.218413 -0.405440
C13   C     C_3   0.205847 0.794734 0.168901 -0.358499
C14   C     C_1   0.116918 0.835823 0.340853 0.019837
C15   C     C_1   0.150282 0.661466 0.161220 -0.033945
C16   C     C_1   0.156305 0.623623 0.122806 -0.113803
H6    H     H_    0.112986 0.822440 0.121568 0.147075
H7    H     H_    0.356217 0.797063 0.149518 0.155462
H8    H     H_    0.093915 0.892695 0.195059 0.154932
H9    H     H_    0.834306 0.733707 0.190008 0.122011
H10   H     H_    0.821071 0.804330 0.262376 0.096543
H11   H     H_    0.338412 0.868873 0.221674 0.176351
H12   H     H_    0.019320 0.519881 0.697114 0.124385
C17   C     C_R   0.207679 0.786242 0.875101 0.196845
C18   C     C_R   0.232113 0.865286 0.868493 -0.158363
C19   C     C_R   0.219636 0.926092 0.803033 -0.147562
C20   C     C_R   0.182812 0.909301 0.742800 -0.147518
C21   C     C_R   0.158420 0.830450 0.746477 0.026613
C22   C     C_R   0.171827 0.766679 0.813794 0.067954
C23   C     C_R   0.117736 0.815535 0.683905 -0.145931
C24   C     C_R   0.089956 0.736865 0.687687 0.021637
C25   C     C_R   0.104822 0.672719 0.753985 0.045019
C26   C     C_R   0.146123 0.686965 0.817146 -0.166588
C27   C     C_R   0.049467 0.720678 0.625821 -0.130586
C28   C     C_R   0.023767 0.643221 0.628648 0.250039
C29   C     C_R   0.038575 0.580354 0.693834 -0.146947
C30   C     C_R   0.079110 0.594685 0.755449 -0.189519
H13   H     H_    0.259233 0.879599 0.915103 0.113097
H14   H     H_    0.236622 0.986878 0.798933 0.142044
H15   H     H_    0.172116 0.959370 0.693279 0.111504
H16   H     H_    0.037521 0.767902 0.574431 0.106697
H17   H     H_    0.090504 0.543569 0.804143 0.117607
C31   C     C_R   0.579696 0.228975 0.122422 -0.149143
C32   C     C_R   0.544994 0.154336 0.120726 0.208542
C33   C     C_R   0.545841 0.088911 0.183775 -0.168088
C34   C     C_R   0.577963 0.097037 0.248803 0.298754
C35   C     C_R   0.605058 0.174192 0.252523 -0.005478
C36   C     C_R   0.609174 0.240873 0.187061 -0.025816
C37   C     C_R   0.631744 0.187178 0.317586 -0.130331
C38   C     C_R   0.670209 0.265877 0.315990 -0.054926
C39   C     C_R   0.654509 0.332696 0.250505 -0.088410
C40   C     C_R   0.639046 0.318802 0.185822 -0.109174
C41   C     C_R   0.723881 0.281434 0.377899 0.307219
C42   C     C_R   0.717386 0.357146 0.378731 -0.199494
C43   C     C_R   0.678924 0.421304 0.317771 0.147020
C44   C     C_R   0.656180 0.411027 0.253054 0.353147
H18   H     H_    0.580461 0.277749 0.071743 0.114086
H19   H     H_    0.523836 0.030409 0.182263 0.143343
H20   H     H_    0.752031 0.367161 0.427005 0.221091
O11   O     O_R   0.770890 0.084490 0.414040 -0.496622
O12   O     O_R   0.445980 0.065450 0.555510 -0.548913
O13   O     O_R   0.270670 0.915620 0.586180 -0.548370
C45   C     C_R   0.615146 0.078512 0.576914 0.755182
O14   O     O_R   0.441480 0.093500 0.412450 -0.529664
O15   O     O_R   0.266140 0.943870 0.442100 -0.517564
C46   C     C_R   0.612842 0.119439 0.386914 0.874238
O16   O     O_R   0.775410 0.056240 0.558120 -0.518526
O17   O     O_3   0.602660 0.950990 0.510100 -0.363196
V3    V     V_3+5 0.329740 0.009100 0.498130 1.555152
O18   O     O_R   0.936120 0.934420 0.444240 -0.517653
C47   C     C_R   0.103889 0.920194 0.424007 0.742870
O19   O     O_R   0.940610 0.906370 0.587310 -0.550148
C48   C     C_R   0.108911 0.882765 0.614336 0.654056
V4    V     V_3+5 0.829110 0.990690 0.501470 1.587914
O20   O     O_3   0.106080 0.049010 0.489880 -0.347545
C49   C     C_3   0.842102 0.227971 0.724493 -0.357808
C50   C     C_3   0.523768 0.288353 0.671619 0.265519
C51   C     C_3   0.501338 0.331081 0.725845 -0.115512
H21   H     H_    0.888769 0.344945 0.726954 0.122541
H22   H     H_    0.927189 0.254818 0.674785 0.189226
H23   H     H_    0.376774 0.274956 0.656322 0.094632
H24   H     H_    0.349305 0.320823 0.744436 0.166126
C52   C     C_1   0.638582 0.375130 0.878679 -0.132019
C53   C     C_3   0.632264 0.208642 0.707391 0.051273
C54   C     C_3   0.841548 0.286060 0.764829 0.250850
C55   C     C_3   0.634104 0.291576 0.792505 0.070144
C56   C     C_3   0.548825 0.205901 0.832261 0.016680
C57   C     C_3   0.525762 0.161250 0.778807 -0.053271
C58   C     C_1   0.634542 0.337557 0.840115 0.103431
C59   C     C_1   0.630725 0.162625 0.659919 0.085543
C60   C     C_1   0.625485 0.124495 0.621858 -0.106147
H25   H     H_    0.369353 0.161306 0.766027 0.126900
H26   H     H_    0.917114 0.172821 0.756203 0.169792
H27   H     H_    0.401797 0.212572 0.850393 0.177306
Cl1   Cl    Cl    0.821624 0.693730 0.370287 -0.675309
N1    N     N_3   0.216048 0.727317 0.944967 -0.690070
H28   H     H_    0.350230 0.732176 0.966851 0.225755
H29   H     H_    0.110004 0.739498 0.975681 0.206440
N2    N     N_3   0.981172 0.629679 0.564642 -0.595630
H30   H     H_    0.961889 0.569173 0.575591 0.257703
H31   H     H_    0.101588 0.648109 0.531531 0.246510
N3    N     N_3   0.673123 0.498654 0.320992 -0.595571
H32   H     H_    0.563998 0.498549 0.356309 0.260904
H33   H     H_    0.803964 0.509479 0.341864 0.253822
N4    N     N_3   0.513166 0.146004 0.053799 -0.630680
H34   H     H_    0.492327 0.086440 0.061093 0.215962
H35   H     H_    0.384825 0.174376 0.032767 0.245296
Cl2   Cl    Cl    0.592261 0.004972 0.320016 -0.684969
Cl3   Cl    Cl    0.844733 0.215920 0.451645 -0.647708
Cl4   Cl    Cl    0.623514 0.500469 0.179631 -0.650585
Cl5   Cl    Cl    0.637370 0.349710 0.589587 -0.606195
N5    N     N_3   0.527280 0.417407 0.691969 -0.568596
H36   H     H_    0.465611 0.444238 0.724144 0.226596
H37   H     H_    0.672667 0.433817 0.686246 0.255201
N6    N     N_3   0.579308 0.077502 0.808006 -0.673337
H38   H     H_    0.726305 0.070672 0.818663 0.242290
H39   H     H_    0.502464 0.048115 0.854795 0.231001
N7    N     N_3   0.658494 0.162596 0.896732 -0.570094
H40   H     H_    0.783502 0.139373 0.884707 0.285225
H41   H     H_    0.574412 0.114982 0.929359 0.226895
Cl6   Cl    Cl    0.022487 0.262050 0.832586 -0.754969

loop_
_geom_bond_atom_site_label_1
_geom_bond_atom_site_label_2
_ccdc_geom_bond_type
C53   C59   S    
O18   C47   A    
C9    C15   S    
C56   N7    S    
H21   C54   S    
C6    H2    S    
C17   C18   A    
O2    C1    A    
C6    C9    S    
C1    O6    A    
C4    C16   S    
O17   V4    S    
N7    H40   S    
C21   C22   A    
C28   C29   A    
C12   H8    S    
C12   C13   S    
C13   H7    S    
C5    C9    S    
C11   C12   S    
N5    H36   S    
C28   N2    S    
O18   V4    S    
O5    C3    A    
C42   H20   S    
O12   C45   A    
C50   H23   S    
C10   H10   S    
V2    O10   S    
C5    H1    S    
N2    H30   S    
C6    C7    S    
C54   Cl6   S    
C56   C57   S    
O13   C48   A    
C37   C46   S    
O8    V2    S    
C24   C27   A    
C50   C53   S    
C39   C40   A    
C17   C22   A    
C41   C42   A    
O1    V2    S    
O16   V4    S    
O19   V4    S    
O7    V1    S    
O14   V3    S    
O15   C47   A    
C45   O16   A    
C49   H26   S    
O12   V3    S    
C21   C23   A    
C37   C38   A    
C6    H3    S    
O9    C4    A    
C50   C51   S    
C1    C40   S    
O14   C46   A    
C51   C55   S    
C57   N6    S    
C30   H17   S    
N3    H33   S    
C53   C57   S    
C2    C52   S    
C13   H6    S    
C27   C28   A    
C5    C10   S    
C49   C53   S    
V4    O20   S    
O4    C2    A    
N6    H38   S    
C39   C44   A    
C44   Cl4   S    
C8    C47   S    
C38   C39   A    
C31   C32   A    
C35   C37   A    
C7    H4    S    
C19   C20   A    
O5    V1    S    
C33   C34   A    
C18   H13   S    
C23   C24   A    
C20   H15   S    
C59   C60   T    
C12   H11   S    
C45   C60   S    
C27   H16   S    
C5    H9    S    
C7    C11   S    
O17   V3    S    
C34   Cl2   S    
O3    C4    A    
C24   C25   A    
C10   Cl1   S    
C9    C13   S    
O6    V2    S    
O9    V2    S    
C23   C48   S    
C33   H19   S    
C18   C19   A    
N4    H35   S    
O2    V1    S    
C49   H22   S    
C10   C11   S    
C20   C21   A    
N1    H28   S    
N7    H41   S    
C57   H25   S    
O11   V4    S    
O1    C2    A    
C8    C14   T    
C11   C14   S    
C17   N1    S    
C43   C44   A    
C49   C54   S    
C31   C36   A    
C56   H27   S    
C3    C26   S    
N3    H32   S    
H12   C29   S    
C29   C30   A    
C50   Cl5   S    
C22   C26   A    
C52   C58   T    
C38   C41   A    
C35   C36   A    
C32   C33   A    
C7    H5    S    
O7    V2    S    
O4    V1    S    
O3    V1    S    
V3    O20   S    
C15   C16   T    
O15   V3    S    
C41   Cl3   S    
C36   C40   A    
C43   N3    S    
C31   H18   S    
N2    H31   S    
C55   C58   S    
C51   H24   S    
C54   C55   S    
C34   C35   A    
C19   H14   S    
C42   C43   A    
N6    H39   S    
C25   C26   A    
C55   C56   S    
C51   N5    S    
O11   C46   A    
C32   N4    S    
V1    O10   S    
N1    H29   S    
N4    H34   S    
O19   C48   A    
O13   V3    S    
C25   C30   A    
O8    C3    A    
N5    H37   S    
