data_mof_unit_20479.cif
_audit_creation_date              2013-03-05T16:44:18-0500
_audit_creation_method            fapswitch 2.2
_symmetry_space_group_name_H-M    P1
_symmetry_Int_Tables_number       1
_space_group_crystal_system       triclinic
_cell_length_a                    23.353985
_cell_length_b                    10.679767
_cell_length_c                    9.839855
_cell_angle_alpha                 90.144064
_cell_angle_beta                  89.511746
_cell_angle_gamma                 89.765704
_cell_volume                      2454.09099583

loop_
_atom_site_label
_atom_site_type_symbol
_atom_site_description
_atom_site_fract_x
_atom_site_fract_y
_atom_site_fract_z
_atom_type_partial_charge
O1    O     O_R   0.500010 0.316790 0.614690 -0.611110
O2    O     O_R   0.500000 0.316760 0.385350 -0.584095
C1    C     C_R   0.503460 0.259894 0.499240 0.936272
O3    O     O_R   0.416160 0.499980 0.614700 -0.623583
O4    O     O_R   0.416150 0.499940 0.385360 -0.627741
C2    C     C_R   0.389278 0.501602 0.500813 0.881467
Zn1   Zn    Zn3+2 0.500000 0.500020 0.653130 0.988668
Zn2   Zn    Zn3+2 0.500000 0.499980 0.346870 1.010190
O5    O     O_R   0.500000 0.683240 0.614650 -0.617095
O6    O     O_R   0.499990 0.683210 0.385310 -0.641177
O7    O     O_R   0.583850 0.500060 0.614640 -0.600965
O8    O     O_R   0.583840 0.500020 0.385300 -0.587949
C3    C     C_R   0.501640 0.740072 0.500101 0.930280
C4    C     C_R   0.610476 0.501437 0.499536 0.955576
C5    C     C_R   0.880466 0.625238 0.418122 0.605006
N1    N     N_R   0.851220 0.555531 0.511371 -0.336596
C6    C     C_R   0.878086 0.492958 0.613854 0.609947
C7    C     C_R   0.938232 0.488584 0.618451 -0.146248
C8    C     C_R   0.969167 0.559836 0.521545 -0.041418
C9    C     C_R   0.940079 0.630229 0.422182 -0.010042
C10   C     C_R   0.968582 0.416524 0.715520 0.317356
C11   C     C_R   0.028331 0.418721 0.715731 -0.194442
C12   C     C_R   0.058909 0.488153 0.619160 -0.070894
C13   C     C_R   0.029416 0.559732 0.522440 -0.008083
C14   C     C_R   0.060169 0.629867 0.425163 -0.006624
C15   C     C_R   0.030619 0.701384 0.328957 -0.131463
C16   C     C_R   0.971105 0.701313 0.327266 -0.109013
C17   C     C_R   0.118704 0.484566 0.614221 0.539525
N2    N     N_R   0.147785 0.551705 0.517838 -0.358228
C18   C     C_R   0.119992 0.625048 0.425509 0.515946
O9    O     O_2   0.851782 0.687791 0.320812 -0.498460
O10   O     O_2   0.846170 0.436438 0.710492 -0.449725
H1    H     H_    0.050774 0.361990 0.789488 0.220663
O11   O     O_2   0.147646 0.412642 0.703228 -0.546344
O12   O     O_2   0.150253 0.692730 0.334403 -0.545499
H2    H     H_    0.053343 0.756277 0.253585 0.200297
H3    H     H_    0.949529 0.756207 0.250570 0.207877
C19   C     C_R   0.241374 0.582435 0.621463 -0.086899
H4    H     H_    0.220909 0.624639 0.709600 0.156327
C20   C     C_R   0.300375 0.567452 0.618272 -0.194402
H5    H     H_    0.325044 0.599680 0.704202 0.165310
C21   C     C_R   0.327203 0.513404 0.504101 -0.038368
C22   C     C_R   0.294484 0.474344 0.393244 -0.219607
H6    H     H_    0.314498 0.431762 0.304872 0.154418
C23   C     C_R   0.235279 0.487943 0.397375 -0.082225
H7    H     H_    0.209950 0.455493 0.312705 0.157443
C24   C     C_R   0.208687 0.542005 0.511512 0.293652
C25   C     C_R   0.767042 0.429739 0.454401 0.270406
C26   C     C_R   0.707273 0.415668 0.454801 0.154152
C27   C     C_R   0.672219 0.515965 0.499103 -0.317328
C28   C     C_R   0.696721 0.630850 0.541311 0.405494
C29   C     C_R   0.755829 0.642332 0.541263 -0.080816
H8    H     H_    0.775059 0.728737 0.575984 0.207641
C30   C     C_R   0.790735 0.543412 0.498983 0.040483
C31   C     C_R   0.513540 0.064313 0.620837 0.078807
C32   C     C_R   0.515274 0.128562 0.497657 -0.186590
C33   C     C_R   0.527422 0.061869 0.375497 0.338764
C34   C     C_R   0.525123 0.932099 0.378581 -0.264515
H9    H     H_    0.530953 0.880168 0.284664 0.199920
C35   C     C_R   0.511772 0.870880 0.500288 -0.136347
C36   C     C_R   0.511819 0.936759 0.622145 0.120020
C37   C     C_3   0.471531 0.933380 0.741130 0.247127
C38   C     C_3   0.473161 0.075514 0.739379 -0.494633
H10   H     H_    0.490499 0.889256 0.832888 0.124898
H11   H     H_    0.431742 0.120070 0.711684 0.210658
H12   H     H_    0.494220 0.116026 0.830241 0.221345
C39   C     C_R   0.473058 0.406797 0.071602 0.320480
N3    N     N_R   0.499610 0.499140 0.142800 -0.120249
C40   C     C_R   0.530826 0.585435 0.071666 -0.096054
H13   H     H_    0.554788 0.655834 0.125939 0.160465
C41   C     C_R   0.530803 0.585499 0.927499 -0.098676
H14   H     H_    0.554726 0.655974 0.872636 0.162878
N4    N     N_R   0.499610 0.499180 0.857150 -0.119970
C42   C     C_R   0.473073 0.406761 0.928821 0.234474
C43   C     C_3   0.410874 0.376422 0.924248 -0.514786
C44   C     C_3   0.410866 0.376646 0.078414 -0.525122
H15   H     H_    0.384750 0.453352 0.880334 0.222073
H16   H     H_    0.402896 0.282377 0.880117 0.211747
H17   H     H_    0.384899 0.454137 0.122959 0.213940
H18   H     H_    0.402947 0.282789 0.123220 0.226525
N5    N     N_R   0.940247 0.334592 0.809390 0.252449
O13   O     O_R   0.912907 0.237526 0.763561 -0.265677
O14   O     O_R   0.952745 0.339881 0.937871 -0.322745
N6    N     N_R   0.682347 0.299832 0.410981 0.257590
O15   O     O_R   0.646461 0.240895 0.489590 -0.358164
O16   O     O_R   0.698475 0.248648 0.296693 -0.248205
O17   O     O_3   0.665195 0.734177 0.582891 -0.711071
H19   H     H_    0.624084 0.721049 0.565387 0.320785
N7    N     N_R   0.537915 0.122219 0.247320 0.221157
O18   O     O_R   0.578929 0.203553 0.235504 -0.283415
O19   O     O_R   0.513468 0.080585 0.137858 -0.441895
O20   O     O_3   0.417717 0.886362 0.705590 -0.738907
H20   H     H_    0.394447 0.887922 0.790385 0.342614
N8    N     N_R   0.803864 0.327336 0.415409 0.250979
O21   O     O_R   0.847280 0.345845 0.334281 -0.319003
O22   O     O_R   0.795941 0.216474 0.466632 -0.251628

loop_
_geom_bond_atom_site_label_1
_geom_bond_atom_site_label_2
_geom_bond_distance
_ccdc_geom_bond_type
C31   C32   1.394686 A    
C38   H11   1.112529 S    
C7    C10   1.420461 A    
N4    C42   1.362598 A    
C8    C9    1.411884 A    
C44   H17   1.111000 S    
C22   H6    1.082018 S    
N5    O13   1.301393 A    
Zn1   N4    2.007513 S    
C3    C35   1.417848 S    
C4    C27   1.450869 S    
C23   H7    1.082946 S    
Zn1   O7    1.991351 S    
C15   C16   1.390152 A    
N2    C18   1.367359 A    
C33   N7    1.437466 S    
C18   O12   1.349894 S    
N2    C24   1.426463 S    
C26   N6    1.436203 S    
C17   N2    1.367948 A    
N6    O16   1.301294 A    
O4    C2    1.293210 A    
O7    C4    1.287564 A    
C34   C35   1.399329 A    
C5    N1    1.363641 A    
C32   C33   1.421601 A    
C7    C8    1.416559 A    
C40   C41   1.418595 A    
O5    C3    1.281877 A    
C37   H10   1.113889 S    
N1    C6    1.366701 A    
C31   C38   1.497920 S    
C12   C13   1.405376 A    
N7    O19   1.301515 A    
C36   C37   1.496339 S    
C20   C21   1.403426 A    
C38   H12   1.111633 S    
C17   O11   1.350242 S    
C10   C11   1.395699 A    
C40   H13   1.081735 S    
O3    Zn1   1.997342 S    
N5    O14   1.301062 A    
C29   C30   1.392351 A    
C27   C28   1.418650 A    
C23   C24   1.400821 A    
C5    C9    1.394350 A    
C42   C43   1.490626 S    
C28   C29   1.386334 A    
N6    O15   1.301000 A    
O3    C2    1.289277 A    
C28   O17   1.383174 S    
C41   N4    1.367689 A    
N3    C40   1.367771 A    
C14   C15   1.402227 A    
C39   N3    1.362660 A    
C37   O20   1.402023 S    
C35   C36   1.388723 A    
O1    C1    1.288717 A    
C25   C30   1.406898 A    
C43   C44   1.516969 S    
C37   C38   1.518733 S    
C22   C23   1.389928 A    
C1    C32   1.428388 S    
Zn2   O8    1.997340 S    
C6    C7    1.406351 A    
C39   C42   1.404942 A    
C12   C17   1.397229 A    
C13   C14   1.410449 A    
N8    O22   1.301276 A    
C43   H15   1.111811 S    
C19   C24   1.397895 A    
C25   N8    1.437815 S    
C15   H2    1.083220 S    
C20   H5    1.083403 S    
C10   N5    1.433555 S    
Zn2   N3    2.008115 S    
C21   C22   1.400829 A    
C29   H8    1.083673 S    
C14   C18   1.397869 A    
Zn1   O5    1.993980 S    
C11   H1    1.083803 S    
C25   C26   1.404503 A    
O1    Zn1   1.992139 S    
O2    Zn2   1.993978 S    
C44   H18   1.111609 S    
O8    C4    1.289429 A    
O6    C3    1.282018 A    
O4    Zn2   1.991351 S    
C5    O9    1.349957 S    
C9    C16   1.403621 A    
O2    C1    1.278989 A    
C34   H9    1.083892 S    
C41   H14   1.081849 S    
C19   C20   1.386603 A    
C33   C34   1.387563 A    
C19   H4    1.083026 S    
C16   H3    1.083253 S    
C31   C36   1.363091 A    
O20   H20   0.991928 S    
C8    C13   1.407160 A    
N8    O21   1.301156 A    
C43   H16   1.110303 S    
N1    C30   1.425250 S    
O17   H19   0.987384 S    
Zn2   O6    1.992140 S    
C26   C27   1.411378 A    
C2    C21   1.454730 S    
C6    O10   1.348561 S    
C11   C12   1.399673 A    
C39   C44   1.489972 S    
N7    O18   1.300345 A    
