data_mof_unit_66058.cif
_audit_creation_date              2012-12-10T18:40:33-0500
_audit_creation_method            fapswitch 2.2
_symmetry_space_group_name_H-M    P1
_symmetry_Int_Tables_number       1
_space_group_crystal_system       triclinic
_cell_length_a                    10.782587
_cell_length_b                    11.573289
_cell_length_c                    16.862812
_cell_angle_alpha                 89.949563
_cell_angle_beta                  84.071433
_cell_angle_gamma                 89.956072
_cell_volume                      2093.05391526

loop_
_atom_site_label
_atom_site_type_symbol
_atom_type_description
_atom_site_fract_x
_atom_site_fract_y
_atom_site_fract_z
_atom_type_partial_charge
C1    C     C_R   0.499960 0.718824 0.500042 0.919505
C2    C     C_R   0.518355 0.495549 0.346733 0.968150
C3    C     C_R   0.466119 0.520069 0.738790 -0.262478
C4    C     C_R   0.533904 0.479049 0.261274 -0.262538
C5    C     C_R   0.540560 0.599283 0.775865 0.324414
C6    C     C_R   0.459369 0.399531 0.224526 0.324191
C7    C     C_R   0.526652 0.608091 0.858829 0.338320
C8    C     C_R   0.473508 0.389761 0.141614 0.337994
C9    C     C_R   0.439756 0.536854 0.903601 -0.137596
C10   C     C_R   0.560749 0.460319 0.096553 -0.137172
C11   C     C_R   0.357642 0.466896 0.865794 0.437237
C12   C     C_R   0.500040 0.281176 0.499958 0.919415
C13   C     C_R   0.643024 0.530452 0.134095 0.437210
C14   C     C_R   0.371355 0.458812 0.783407 -0.285034
C15   C     C_R   0.629046 0.539536 0.216433 -0.284797
C16   C     C_2   0.448155 0.521014 0.988211 -0.022173
C17   C     C_2   0.552255 0.475683 0.011903 -0.021991
C18   C     C_1   0.499909 0.838947 0.500067 -0.122419
C19   C     C_1   0.500091 0.161053 0.499931 -0.122299
C20   C     C_1   0.499954 0.940840 0.500035 0.052044
C21   C     C_1   0.500045 0.059160 0.499962 0.052072
C22   C     C_1   0.930228 0.500002 0.500006 0.104704
C23   C     C_1   0.069772 0.499998 0.499994 0.104857
C24   C     C_R   0.481644 0.504356 0.653270 0.968316
Cl1   Cl    Cl    0.648348 0.690014 0.719312 -0.481507
Cl2   Cl    Cl    0.351184 0.309573 0.281422 -0.481763
Cl3   Cl    Cl    0.243263 0.381292 0.919940 -0.443303
Cl4   Cl    Cl    0.757946 0.615100 0.079635 -0.443352
Cl5   Cl    Cl    0.381581 0.289810 0.094132 -0.397384
Cl6   Cl    Cl    0.618358 0.707764 0.906714 -0.397474
H1    H     H_    0.689335 0.597419 0.245321 0.211948
H2    H     H_    0.311204 0.401077 0.754285 0.211827
H3    H     H_    0.633629 0.459103 0.969780 0.204201
H4    H     H_    0.366801 0.537693 0.030330 0.204151
N1    N     N_1   0.819370 0.500000 0.500010 -0.062181
N2    N     N_1   0.180630 0.500000 0.499990 -0.062095
O1    O     O_R   0.397470 0.665550 0.500010 -0.613378
O2    O     O_R   0.602530 0.334450 0.499990 -0.613461
O3    O     O_R   0.602530 0.665550 0.499990 -0.590843
O4    O     O_R   0.397470 0.334450 0.500010 -0.590684
O5    O     O_R   0.385350 0.500000 0.615800 -0.621821
O6    O     O_R   0.614650 0.500000 0.384200 -0.621851
O7    O     O_R   0.590410 0.500000 0.615800 -0.569624
O8    O     O_R   0.409590 0.500000 0.384200 -0.569436
Zn1   Zn    Zn3+2 0.363080 0.500000 0.500000 1.049133
Zn2   Zn    Zn3+2 0.636920 0.500000 0.500000 1.048966

loop_
_geom_bond_atom_site_label_1
_geom_bond_atom_site_label_2
_ccdc_geom_bond_type
C12   O4    A    
C2    C4    S    
C13   Cl4   S    
C15   H1    S    
C22   N1    T    
C11   Cl3   S    
C1    O1    A    
C4    C15   A    
C3    C24   S    
N2    Zn1   S    
C7    Cl6   S    
C20   C21   S    
C24   O5    A    
C9    C11   A    
C1    C18   S    
C6    Cl2   S    
C3    C14   A    
C17   H3    S    
C2    O6    A    
O3    Zn2   S    
C5    Cl1   S    
C8    Cl5   S    
C12   C19   S    
C4    C6    A    
C19   C21   T    
C9    C16   S    
C18   C20   T    
C13   C15   A    
C12   O2    A    
O4    Zn1   S    
O7    Zn2   S    
O2    Zn2   S    
C1    O3    A    
C10   C17   S    
O1    Zn1   S    
C7    C9    A    
O8    Zn1   S    
C8    C10   A    
C23   N2    T    
O6    Zn2   S    
C14   H2    S    
C11   C14   A    
C5    C7    A    
C24   O7    A    
O5    Zn1   S    
C22   C23   S    
C6    C8    A    
C16   H4    S    
N1    Zn2   S    
C2    O8    A    
C16   C17   D    
C3    C5    A    
C10   C13   A    
