data_mof_unit_20425.cif
_audit_creation_date              2012-12-11T14:50:45-0500
_audit_creation_method            fapswitch 2.2
_symmetry_space_group_name_H-M    P1
_symmetry_Int_Tables_number       1
_space_group_crystal_system       triclinic
_cell_length_a                    20.645737
_cell_length_b                    7.184016
_cell_length_c                    20.358643
_cell_angle_alpha                 89.998023
_cell_angle_beta                  101.84447
_cell_angle_gamma                 89.999559
_cell_volume                      2955.28801612

loop_
_atom_site_label
_atom_site_type_symbol
_atom_type_description
_atom_site_fract_x
_atom_site_fract_y
_atom_site_fract_z
_atom_type_partial_charge
O1    O     O_R   0.423690 0.494470 0.435930 -0.540223
O2    O     O_R   0.576310 0.994470 0.564070 -0.540239
O3    O     O_R   0.556070 0.822310 0.435760 -0.531656
O4    O     O_R   0.443930 0.322310 0.564240 -0.531653
C1    C     C_R   0.575687 0.655514 0.421143 0.723627
C2    C     C_R   0.424313 0.155513 0.578857 0.723679
O5    O     O_R   0.422940 0.824080 0.428040 -0.521713
O6    O     O_R   0.577060 0.324080 0.571960 -0.521738
O7    O     O_R   0.442240 0.995960 0.556300 -0.527349
O8    O     O_R   0.557760 0.495960 0.443700 -0.527366
C3    C     C_R   0.398776 0.655620 0.411038 0.714593
C4    C     C_R   0.601219 0.155613 0.588968 0.714584
O9    O     O_3   0.506490 0.661310 0.542090 -0.373990
O10   O     O_3   0.493510 0.161310 0.457910 -0.373984
V1    V     V_3+5 0.498800 0.935560 0.492190 1.547760
V2    V     V_3+5 0.501200 0.435560 0.507810 1.547754
C5    C     C_R   0.839793 0.087368 0.855540 -0.107797
C6    C     C_R   0.160205 0.587328 0.144466 -0.107776
C7    C     C_R   0.665101 0.146871 0.638252 -0.105720
C8    C     C_R   0.334893 0.646911 0.361751 -0.105792
C9    C     C_R   0.786739 0.130570 0.665212 -0.085760
C10   C     C_R   0.213242 0.631339 0.334766 -0.085759
C11   C     C_R   0.726106 0.147288 0.617100 -0.122012
C12   C     C_R   0.273880 0.647852 0.382885 -0.122052
C13   C     C_R   0.664585 0.122872 0.706210 -0.195345
C14   C     C_R   0.335410 0.622454 0.293813 -0.195322
C15   C     C_R   0.723760 0.107107 0.754405 0.107751
C16   C     C_R   0.276233 0.606809 0.245615 0.107749
C17   C     C_R   0.786317 0.118669 0.735460 0.008618
C18   C     C_R   0.213677 0.619025 0.264530 0.008633
C19   C     C_R   0.844882 0.118991 0.788107 0.321886
C20   C     C_R   0.155126 0.619514 0.211868 0.321913
C21   C     C_R   0.777603 0.065663 0.871396 -0.224292
C22   C     C_R   0.222383 0.564926 0.128648 -0.224199
C23   C     C_R   0.720329 0.079496 0.821814 -0.131765
C24   C     C_R   0.279659 0.578663 0.178232 -0.131789
H1    H     H_    0.773328 0.042386 0.922926 0.148941
H2    H     H_    0.226652 0.541197 0.077142 0.148880
H3    H     H_    0.672833 0.067407 0.836312 0.143055
H4    H     H_    0.327150 0.566058 0.163759 0.143051
H5    H     H_    0.617362 0.115674 0.721633 0.114580
H6    H     H_    0.382634 0.614811 0.278409 0.114600
C25   C     C_3   0.220628 0.325283 0.778598 -0.341956
C26   C     C_3   0.779373 0.825263 0.221398 -0.341975
C27   C     C_3   0.272331 0.026699 0.822787 0.201827
C28   C     C_3   0.727667 0.526692 0.177212 0.201838
C29   C     C_3   0.323694 0.030645 0.775590 -0.285408
C30   C     C_3   0.676303 0.530643 0.224407 -0.285421
H7    H     H_    0.247961 0.371324 0.828554 0.207252
H8    H     H_    0.752040 0.871314 0.171441 0.207252
H9    H     H_    0.291526 0.107227 0.869266 0.171852
H10   H     H_    0.708473 0.607226 0.130732 0.171854
H11   H     H_    0.332455 0.884021 0.762074 0.165231
H12   H     H_    0.667539 0.384019 0.237925 0.165234
C31   C     C_1   0.378690 0.147075 0.624183 -0.029646
C32   C     C_1   0.621310 0.647076 0.375816 -0.029494
C33   C     C_3   0.204211 0.116079 0.788908 -0.071893
C34   C     C_3   0.795788 0.616058 0.211090 -0.071861
C35   C     C_3   0.269673 0.343367 0.725942 -0.183942
C36   C     C_3   0.730330 0.843346 0.274054 -0.183931
C37   C     C_3   0.292647 0.137385 0.708592 -0.097364
C38   C     C_3   0.707352 0.637368 0.291406 -0.097401
C39   C     C_3   0.231711 0.012544 0.676600 0.187740
C40   C     C_3   0.768286 0.512510 0.323398 0.187798
C41   C     C_3   0.175584 0.036049 0.716276 -0.200496
C42   C     C_3   0.824414 0.536015 0.283722 -0.200530
C43   C     C_1   0.340242 0.141481 0.662018 0.145646
C44   C     C_1   0.659757 0.641473 0.337980 0.145707
C45   C     C_1   0.157266 0.099929 0.835947 0.127251
C46   C     C_1   0.842733 0.599910 0.164052 0.127238
C47   C     C_1   0.119808 0.089627 0.874653 -0.035349
C48   C     C_1   0.880192 0.589615 0.125346 -0.035397
H13   H     H_    0.142804 0.140183 0.687831 0.230147
H14   H     H_    0.857195 0.640140 0.312168 0.230109
H15   H     H_    0.247521 0.864885 0.680510 0.163765
H16   H     H_    0.752474 0.364855 0.319485 0.163769
O11   O     O_R   0.942280 0.741210 0.056360 -0.535729
O12   O     O_R   0.057720 0.241210 0.943640 -0.535791
O13   O     O_R   0.077070 0.409690 0.071960 -0.538313
O14   O     O_R   0.922930 0.909690 0.928040 -0.538261
C49   C     C_R   0.100814 0.578430 0.089403 0.761855
C50   C     C_R   0.899185 0.078436 0.910598 0.761872
O15   O     O_R   0.943940 0.411580 0.064250 -0.525851
O16   O     O_R   0.056060 0.911580 0.935750 -0.525812
O17   O     O_R   0.923670 0.239840 0.935920 -0.527690
O18   O     O_R   0.076330 0.739840 0.064080 -0.527584
C51   C     C_R   0.924659 0.580057 0.078936 0.735184
C52   C     C_R   0.075341 0.080060 0.921064 0.735237
O19   O     O_3   0.993540 0.572620 0.957940 -0.372167
O20   O     O_3   0.006460 0.072620 0.042060 -0.372096
V3    V     V_3+5 0.001200 0.298330 0.007800 1.562371
V4    V     V_3+5 0.998800 0.798330 0.992200 1.562521
Cl1   Cl    Cl    0.924830 0.176244 0.774879 -0.625329
Cl2   Cl    Cl    0.075228 0.677606 0.225034 -0.625408
C53   C     C_2   0.392884 0.093478 0.810219 0.839937
O21   O     O_2   0.404204 0.149805 0.868150 -0.521460
O22   O     O_R   0.445013 0.077700 0.776245 -0.665923
H17   H     H_    0.488785 0.121661 0.804119 0.301845
C54   C     C_2   0.607115 0.593492 0.189778 0.839929
O23   O     O_2   0.595795 0.649814 0.131845 -0.521452
O24   O     O_R   0.554986 0.577733 0.223753 -0.665939
H18   H     H_    0.511214 0.621703 0.195879 0.301854
C55   C     C_2   0.127865 0.875140 0.710307 0.899122
O25   O     O_2   0.132539 0.745697 0.672821 -0.527747
O26   O     O_R   0.072136 0.889106 0.739174 -0.626959
H19   H     H_    0.039115 0.785102 0.725250 0.321543
C56   C     C_2   0.872132 0.375101 0.289692 0.899051
O27   O     O_2   0.867454 0.245645 0.327175 -0.527726
O28   O     O_R   0.927864 0.389074 0.260830 -0.627083
H20   H     H_    0.960884 0.285063 0.274755 0.321571
Cl3   Cl    Cl    0.202275 0.041043 0.587540 -0.510690
Cl4   Cl    Cl    0.797718 0.540976 0.412458 -0.510655
C57   C     C_2   0.157934 0.446068 0.769488 0.883855
O29   O     O_2   0.153854 0.564835 0.811353 -0.520436
O30   O     O_R   0.101185 0.403969 0.721279 -0.612357
H21   H     H_    0.060596 0.474828 0.727771 0.333316
C58   C     C_2   0.842068 0.946041 0.230507 0.883885
O31   O     O_2   0.846148 0.064818 0.188642 -0.520418
O32   O     O_R   0.898817 0.903926 0.278715 -0.612392
H22   H     H_    0.939406 0.974784 0.272223 0.333383
C59   C     C_2   0.236545 0.444079 0.660523 0.900214
O33   O     O_2   0.267951 0.554469 0.633565 -0.536683
O34   O     O_R   0.171411 0.405641 0.628716 -0.589016
H23   H     H_    0.156836 0.476753 0.585147 0.385686
C60   C     C_2   0.763463 0.944039 0.339472 0.900251
O35   O     O_2   0.732062 0.054445 0.366427 -0.536800
O36   O     O_R   0.828593 0.905569 0.371282 -0.589029
H24   H     H_    0.843171 0.976671 0.414851 0.385666
C61   C     C_2   0.848781 0.112595 0.639985 0.968380
O37   O     O_2   0.867998 0.241991 0.609916 -0.490426
O38   O     O_R   0.884199 0.945471 0.649270 -0.615495
H25   H     H_    0.925504 0.949288 0.629622 0.343352
C62   C     C_2   0.151172 0.613980 0.359980 0.968355
O39   O     O_2   0.132069 0.743654 0.390001 -0.490449
O40   O     O_R   0.115598 0.447115 0.350741 -0.615435
H26   H     H_    0.074287 0.451355 0.370373 0.343408
C63   C     C_2   0.725764 0.157723 0.543949 0.841172
O41   O     O_2   0.756228 0.042831 0.517883 -0.509764
O42   O     O_R   0.689813 0.297881 0.504927 -0.642550
H27   H     H_    0.692395 0.289023 0.455858 0.342927
C64   C     C_2   0.274206 0.658484 0.456030 0.841269
O43   O     O_2   0.243651 0.543846 0.482106 -0.509691
O44   O     O_R   0.310242 0.798517 0.495036 -0.642589
H28   H     H_    0.307642 0.789767 0.544104 0.342809
C65   C     C_2   0.332886 0.454688 0.757689 0.779337
O45   O     O_2   0.373313 0.495755 0.723679 -0.540810
O46   O     O_R   0.347620 0.500453 0.825856 -0.615849
H29   H     H_    0.391106 0.569696 0.839588 0.340714
C66   C     C_2   0.667118 0.954685 0.242308 0.779346
O47   O     O_2   0.626696 0.995770 0.276320 -0.540829
O48   O     O_R   0.652379 0.000438 0.174139 -0.615846
H30   H     H_    0.608895 0.069691 0.160407 0.340714
Cl5   Cl    Cl    0.264419 0.799967 0.855004 -0.607590
Cl6   Cl    Cl    0.735579 0.299961 0.144998 -0.607619

loop_
_geom_bond_atom_site_label_1
_geom_bond_atom_site_label_2
_ccdc_geom_bond_type
C35   C59   S    
O15   C51   A    
C39   C41   S    
O11   V4    S    
O4    V2    S    
O24   H18   S    
C15   C17   A    
C1    C32   S    
C20   Cl2   S    
C53   O21   D    
O1    C3    A    
C2    C31   S    
O2    C4    A    
C2    O7    A    
C65   O45   D    
O17   V3    S    
O34   H23   S    
C30   H12   S    
C63   O42   S    
C27   C33   S    
C39   H15   S    
C36   C60   S    
C61   O37   D    
C58   O32   S    
C40   Cl4   S    
C27   H9    S    
C26   H8    S    
O44   H28   S    
C42   H14   S    
C28   H10   S    
C6    C49   S    
C41   H13   S    
C36   C38   S    
C5    C50   S    
C45   C47   T    
O5    C3    A    
C38   C40   S    
O46   H29   S    
C30   C38   S    
C34   C42   S    
C8    C12   A    
C26   C34   S    
O48   H30   S    
O19   V3    S    
C42   C56   S    
O13   V3    S    
C49   O18   A    
C25   C35   S    
C29   H11   S    
O5    V1    S    
O6    V2    S    
C28   C34   S    
C56   O28   S    
C64   O43   D    
C5    C21   A    
C65   O46   S    
O22   H17   S    
C27   C29   S    
C28   Cl6   S    
O11   C51   A    
C28   C30   S    
C3    C8    S    
C35   C37   S    
C46   C48   T    
C10   C62   S    
O40   H26   S    
O14   C50   A    
C13   H5    S    
O13   C49   A    
C7    C11   A    
C34   C46   S    
C15   C23   A    
C19   Cl1   S    
C9    C17   A    
C21   H1    S    
C57   O30   S    
C64   O44   S    
C40   C42   S    
O14   V4    S    
C23   H3    S    
C37   C43   S    
O20   V4    S    
C54   O23   D    
C24   H4    S    
C12   C64   S    
O6    C4    A    
C37   C39   S    
C40   H16   S    
C55   O26   S    
O1    V2    S    
O19   V4    S    
O2    V1    S    
C6    C22   A    
C9    C61   S    
C59   O33   D    
C35   C65   S    
O4    C2    A    
C54   O24   S    
C9    C11   A    
C60   O35   D    
C5    C19   A    
C10   C12   A    
C6    C20   A    
C41   C55   S    
C56   O27   D    
O38   H25   S    
C48   C51   S    
O3    V1    S    
C14   H6    S    
C60   O36   S    
C57   O29   D    
C63   O41   D    
O12   C52   A    
C30   C54   S    
C10   C18   A    
C22   H2    S    
C11   C63   S    
C25   H7    S    
O16   C52   A    
C33   C41   S    
O3    C1    A    
C29   C37   S    
C31   C43   T    
O42   H27   S    
C53   O22   S    
O36   H24   S    
O12   V3    S    
C13   C15   A    
C50   O17   A    
O15   V3    S    
O26   H19   S    
C14   C16   A    
C38   C44   S    
C32   C44   T    
C66   O48   S    
O7    V1    S    
C1    O8    A    
C17   C19   A    
O18   V4    S    
C58   O31   D    
C25   C57   S    
C18   C20   A    
O20   V3    S    
C62   O39   D    
C8    C14   A    
C26   C58   S    
C26   C36   S    
C4    C7    S    
C16   C18   A    
C21   C23   A    
C22   C24   A    
C36   C66   S    
C39   Cl3   S    
C7    C13   A    
C59   O34   S    
C25   C33   S    
C47   C52   S    
C27   Cl5   S    
C16   C24   A    
O32   H22   S    
O9    V2    S    
O28   H20   S    
C55   O25   D    
C62   O40   S    
C29   C53   S    
O10   V1    S    
O8    V2    S    
O16   V4    S    
C33   C45   S    
C66   O47   D    
O30   H21   S    
C61   O38   S    
