data_mof_unit_63256.cif
_audit_creation_date              2012-12-10T17:06:34-0500
_audit_creation_method            fapswitch 2.2
_symmetry_space_group_name_H-M    P1
_symmetry_Int_Tables_number       1
_space_group_crystal_system       triclinic
_cell_length_a                    14.153798
_cell_length_b                    10.737718
_cell_length_c                    10.057941
_cell_angle_alpha                 89.853693
_cell_angle_beta                  90.408538
_cell_angle_gamma                 90.073445
_cell_volume                      1528.55569711

loop_
_atom_site_label
_atom_site_type_symbol
_atom_type_description
_atom_site_fract_x
_atom_site_fract_y
_atom_site_fract_z
_atom_type_partial_charge
C1    C     C_R   0.505025 0.262817 0.500128 0.838051
C2    C     C_R   0.497392 0.737245 0.499651 0.917614
C3    C     C_R   0.670742 0.500082 0.500390 0.900536
C4    C     C_1   0.227757 0.499988 0.498867 -0.146378
C5    C     C_1   0.142502 0.500054 0.498976 0.024621
C6    C     C_1   0.042612 0.500118 0.499644 0.039721
C7    C     C_1   0.957366 0.500149 0.500352 0.042188
C8    C     C_1   0.857479 0.500154 0.501018 0.029559
C9    C     C_1   0.772228 0.500130 0.501127 -0.138673
C10   C     C_2   0.512544 0.933245 0.390528 -0.104893
C11   C     C_2   0.487615 0.868753 0.497922 -0.235082
C12   C     C_2   0.503832 0.066473 0.391950 -0.255099
C13   C     C_2   0.526564 0.133092 0.499950 0.233857
C14   C     C_2   0.559443 0.563132 0.926445 0.436532
C15   C     C_2   0.569114 0.539949 0.073230 -0.068341
C16   C     C_R   0.329255 0.499910 0.499607 0.868340
Cl1   Cl    Cl    0.595930 0.075760 0.634662 -0.546155
Cl2   Cl    Cl    0.635895 0.672617 0.854387 -0.525127
Cl3   Cl    Cl    0.385466 0.523247 0.092178 -0.515855
H1    H     H_    0.534911 0.888465 0.299243 0.194094
H2    H     H_    0.459143 0.913170 0.585898 0.196069
H3    H     H_    0.472678 0.109480 0.304080 0.177037
H4    H     H_    0.469759 0.424453 0.894636 0.193927
H5    H     H_    0.636895 0.559697 0.119572 0.144976
N1    N     N_2   0.500930 0.501330 0.852150 -0.184766
N2    N     N_2   0.500950 0.501360 0.147810 0.038529
O1    O     O_R   0.499990 0.319060 0.613040 -0.577835
O2    O     O_R   0.500010 0.319100 0.386900 -0.621112
O3    O     O_R   0.373700 0.499980 0.613090 -0.595232
O4    O     O_R   0.373730 0.500020 0.386960 -0.532479
O5    O     O_R   0.499990 0.680900 0.613100 -0.551883
O6    O     O_R   0.500010 0.680940 0.386960 -0.604646
O7    O     O_R   0.626270 0.499980 0.613040 -0.549603
O8    O     O_R   0.626300 0.500020 0.386910 -0.621351
Zn1   Zn    Zn3+2 0.499980 0.499970 0.650990 1.055855
Zn2   Zn    Zn3+2 0.500020 0.500030 0.349010 1.043004

loop_
_geom_bond_atom_site_label_1
_geom_bond_atom_site_label_2
_ccdc_geom_bond_type
C4    C16   S    
C1    O2    A    
C2    O5    A    
C6    C7    T    
C3    C9    S    
C13   Cl1   S    
O3    Zn1   S    
O4    Zn2   S    
C7    C8    S    
C10   C12   S    
N1    Zn1   S    
C2    C11   S    
O6    Zn2   S    
N2    Zn2   S    
C15   H5    S    
O7    Zn1   S    
O8    Zn2   S    
H4    N1    S    
C14   N1    D    
C5    C6    S    
O5    Zn1   S    
C1    C13   S    
C10   C11   D    
C3    O7    A    
C16   O4    A    
C12   H3    S    
C12   C13   D    
O2    Zn2   S    
C2    O6    A    
C1    O1    A    
Cl3   N2    S    
C14   Cl2   S    
C14   C15   S    
C8    C9    T    
C15   N2    D    
C3    O8    A    
O1    Zn1   S    
C16   O3    A    
C11   H2    S    
C10   H1    S    
C4    C5    T    
