data_mof_unit_61348.cif
_audit_creation_date              2012-12-10T20:11:15-0500
_audit_creation_method            fapswitch 2.2
_symmetry_space_group_name_H-M    P1
_symmetry_Int_Tables_number       1
_space_group_crystal_system       triclinic
_cell_length_a                    19.315876
_cell_length_b                    18.417779
_cell_length_c                    14.167783
_cell_angle_alpha                 89.999159
_cell_angle_beta                  89.882919
_cell_angle_gamma                 89.999438
_cell_volume                      5040.25670196

loop_
_atom_site_label
_atom_site_type_symbol
_atom_type_description
_atom_site_fract_x
_atom_site_fract_y
_atom_site_fract_z
_atom_type_partial_charge
C1    C     C_R   0.365537 0.500000 0.500109 0.861885
C2    C     C_R   0.634463 0.500000 0.499891 0.861887
C3    C     C_R   0.962939 0.500105 0.586758 0.151955
C4    C     C_R   0.037061 0.499894 0.413239 0.151955
C5    C     C_R   0.035759 0.500102 0.587818 0.167243
C6    C     C_R   0.964241 0.499893 0.412178 0.167245
C7    C     C_R   0.071789 0.499998 0.500879 -0.045526
C8    C     C_R   0.928210 0.500000 0.499117 -0.045527
C9    C     C_R   0.547029 0.726100 0.446252 0.014554
C10   C     C_R   0.452971 0.273900 0.553748 0.014552
C11   C     C_R   0.452920 0.726113 0.553650 0.014490
C12   C     C_R   0.547080 0.273886 0.446350 0.014488
C13   C     C_R   0.547862 0.802313 0.445148 -0.283050
C14   C     C_R   0.452137 0.197686 0.554852 -0.283050
C15   C     C_R   0.451984 0.802328 0.554553 -0.283632
C16   C     C_R   0.548016 0.197672 0.445448 -0.283632
C17   C     C_R   0.499939 0.841250 0.499866 0.172607
C18   C     C_R   0.500061 0.158750 0.500134 0.172607
C19   C     C_R   0.458694 0.961675 0.433673 0.162117
C20   C     C_R   0.541306 0.038325 0.566327 0.162118
C21   C     C_R   0.540946 0.960917 0.565678 0.148064
C22   C     C_R   0.459054 0.039083 0.434322 0.148065
C23   C     C_R   0.500273 0.077319 0.500493 -0.015916
C24   C     C_R   0.499727 0.922681 0.499507 -0.015916
C25   C     C_R   0.500030 0.500000 0.328877 0.902542
C26   C     C_R   0.499970 0.500000 0.671123 0.902541
C27   C     C_1   0.500033 0.500001 0.227507 -0.213651
C28   C     C_1   0.499967 0.499999 0.772493 -0.213652
C29   C     C_1   0.500027 0.500001 0.142350 -0.012837
C30   C     C_1   0.499973 0.499999 0.857650 -0.012838
C31   C     C_1   0.500009 0.500000 0.042577 0.004035
C32   C     C_1   0.499991 0.500000 0.957423 0.004035
C33   C     C_R   0.745868 0.433918 0.499439 -0.206379
C34   C     C_R   0.254132 0.566081 0.500588 -0.206379
C35   C     C_R   0.254134 0.433919 0.500792 -0.206339
C36   C     C_R   0.745867 0.566080 0.499177 -0.206339
C37   C     C_R   0.817586 0.433997 0.499232 -0.176747
C38   C     C_R   0.182413 0.566001 0.500794 -0.176747
C39   C     C_R   0.182416 0.433997 0.501002 -0.176847
C40   C     C_R   0.817585 0.566001 0.498966 -0.176848
C41   C     C_R   0.853068 0.500000 0.499218 0.175286
C42   C     C_R   0.146932 0.499998 0.500778 0.175286
C43   C     C_R   0.709669 0.499999 0.499534 -0.033394
C44   C     C_R   0.290331 0.500000 0.500465 -0.033394
H1    H     H_    0.718919 0.382346 0.499555 0.156100
H2    H     H_    0.281081 0.617653 0.500497 0.156096
H3    H     H_    0.281084 0.382347 0.500865 0.155874
H4    H     H_    0.718916 0.617652 0.499081 0.155870
H5    H     H_    0.845521 0.382984 0.499205 0.137418
H6    H     H_    0.154478 0.617015 0.500843 0.137420
H7    H     H_    0.154482 0.382983 0.501213 0.137285
H8    H     H_    0.845519 0.617015 0.498732 0.137287
H9    H     H_    0.583982 0.696139 0.404027 0.124091
H10   H     H_    0.416017 0.303861 0.595972 0.124095
H11   H     H_    0.415957 0.696164 0.595872 0.124138
H12   H     H_    0.584044 0.303836 0.404129 0.124142
H13   H     H_    0.585479 0.830717 0.402055 0.143605
H14   H     H_    0.414521 0.169283 0.597944 0.143605
H15   H     H_    0.414254 0.830744 0.597445 0.143809
H16   H     H_    0.585747 0.169256 0.402555 0.143809
N1    N     N_R   0.500000 0.689440 0.500000 -0.083610
N2    N     N_R   0.500000 0.310560 0.500000 -0.083611
O1    O     O_R   0.398180 0.560840 0.499980 -0.623076
O2    O     O_R   0.601820 0.439160 0.500020 -0.623078
O3    O     O_R   0.601820 0.560840 0.500020 -0.622852
O4    O     O_R   0.398180 0.439160 0.499980 -0.622853
O5    O     O_R   0.500000 0.560830 0.373710 -0.598756
O6    O     O_R   0.500000 0.439170 0.626290 -0.598756
O7    O     O_R   0.500000 0.560830 0.626290 -0.598491
O8    O     O_R   0.500000 0.439170 0.373710 -0.598492
Zn1   Zn    Zn3+2 0.500000 0.581210 0.500000 0.938259
Zn2   Zn    Zn3+2 0.500000 0.418790 0.500000 0.938258
C45   C     C_3   0.920618 0.500218 0.677550 -0.881926
H17   H     H_    0.951531 0.500301 0.743097 0.244151
H18   H     H_    0.887275 0.549286 0.679778 0.240643
H19   H     H_    0.887275 0.451157 0.679986 0.240650
C46   C     C_3   0.079381 0.499785 0.322447 -0.881931
H20   H     H_    0.048469 0.499714 0.256900 0.244152
H21   H     H_    0.112729 0.548843 0.320020 0.240653
H22   H     H_    0.112720 0.450715 0.320211 0.240641
C47   C     C_3   0.074325 0.500208 0.681272 -0.901706
H23   H     H_    0.060459 0.450917 0.722281 0.241315
H24   H     H_    0.131411 0.500190 0.674426 0.247587
H25   H     H_    0.060472 0.549600 0.722081 0.241320
C48   C     C_3   0.925675 0.499779 0.318724 -0.901711
H26   H     H_    0.939532 0.549071 0.277714 0.241313
H27   H     H_    0.939537 0.450389 0.277917 0.241324
H28   H     H_    0.868589 0.499784 0.325570 0.247587
C49   C     C_3   0.414432 0.921274 0.362507 -0.898163
H29   H     H_    0.417776 0.861427 0.367723 0.247603
H30   H     H_    0.359144 0.935734 0.372965 0.240242
H31   H     H_    0.430935 0.935834 0.289820 0.241706
C50   C     C_3   0.585568 0.078726 0.637492 -0.898164
H32   H     H_    0.640856 0.064265 0.627034 0.240241
H33   H     H_    0.582225 0.138573 0.632275 0.247603
H34   H     H_    0.569065 0.064166 0.710179 0.241706
C51   C     C_3   0.584093 0.917132 0.634928 -0.882216
H35   H     H_    0.549608 0.882096 0.678106 0.241224
H36   H     H_    0.621015 0.882222 0.595491 0.239256
H37   H     H_    0.615001 0.949966 0.684696 0.244065
C52   C     C_3   0.415906 0.082868 0.365072 -0.882216
H38   H     H_    0.378985 0.117778 0.404510 0.239255
H39   H     H_    0.450391 0.117904 0.321894 0.241224
H40   H     H_    0.384998 0.050034 0.315305 0.244065

loop_
_geom_bond_atom_site_label_1
_geom_bond_atom_site_label_2
_ccdc_geom_bond_type
C39   H7    S    
C20   C50   S    
C50   H32   S    
C27   C29   T    
C33   H1    S    
C45   H17   S    
C14   C18   A    
C25   O5    A    
C2    O3    A    
C35   H3    S    
C47   H25   S    
C47   H23   S    
C48   H26   S    
C52   H38   S    
C22   C52   S    
C9    N1    A    
C38   C42   A    
C48   H28   S    
C13   H13   S    
C12   N2    A    
C37   H5    S    
C16   H16   S    
C7    C42   S    
O7    Zn1   S    
C9    C13   A    
C52   H40   S    
C51   H36   S    
C5    C47   S    
C11   C15   A    
O4    Zn2   S    
C12   C16   A    
C34   H2    S    
C49   H30   S    
C46   H20   S    
N1    Zn1   S    
C48   H27   S    
C50   H33   S    
C45   H18   S    
C10   N2    A    
C4    C7    A    
C3    C45   S    
C1    O1    A    
C47   H24   S    
C2    O2    A    
C51   H35   S    
C39   C42   A    
C46   H21   S    
C14   H14   S    
C17   C24   S    
C18   C23   S    
C33   C43   A    
C36   C40   A    
C19   C22   A    
C34   C44   A    
C8    C41   S    
C4    C6    A    
C3    C8    A    
C10   C14   A    
C5    C7    A    
C6    C8    A    
C3    C5    A    
C40   H8    S    
C33   C37   A    
C35   C39   A    
C19   C49   S    
C21   C51   S    
C1    C44   S    
C31   C32   T    
C20   C23   A    
C2    C43   S    
O6    Zn2   S    
C1    O4    A    
N2    Zn2   S    
C49   H31   S    
C35   C44   A    
C6    C48   S    
C12   H12   S    
C16   C18   A    
C40   C41   A    
O1    Zn1   S    
C50   H34   S    
C45   H19   S    
C9    H9    S    
C51   H37   S    
C11   H11   S    
C46   H22   S    
C15   C17   A    
C34   C38   A    
C15   H15   S    
C11   N1    A    
C38   H6    S    
C25   C27   S    
C26   C28   S    
C13   C17   A    
C26   O6    A    
C28   C30   T    
C19   C24   A    
C4    C46   S    
C29   C31   S    
O3    Zn1   S    
C30   C32   S    
C36   H4    S    
O5    Zn1   S    
O2    Zn2   S    
C37   C41   A    
C10   H10   S    
C20   C21   A    
C52   H39   S    
C21   C24   A    
C26   O7    A    
C22   C23   A    
C36   C43   A    
O8    Zn2   S    
C25   O8    A    
C49   H29   S    
