data_mof_unit_66146.cif
_audit_creation_date              2012-12-10T19:40:44-0500
_audit_creation_method            fapswitch 2.2
_symmetry_space_group_name_H-M    P1
_symmetry_Int_Tables_number       1
_space_group_crystal_system       triclinic
_cell_length_a                    18.396299
_cell_length_b                    18.359147
_cell_length_c                    18.386437
_cell_angle_alpha                 119.978567
_cell_angle_beta                  120.044322
_cell_angle_gamma                 89.83607
_cell_volume                      4395.74793994

loop_
_atom_site_label
_atom_site_type_symbol
_atom_type_description
_atom_site_fract_x
_atom_site_fract_y
_atom_site_fract_z
_atom_type_partial_charge
C1    C     C_R   0.360219 0.139986 0.500102 0.805286
C2    C     C_3   0.623620 0.681910 0.315752 -0.472724
C3    C     C_R   0.216526 0.788429 0.452523 0.049533
C4    C     C_R   0.641966 0.861788 0.501976 0.853997
C5    C     C_R   0.306281 0.798587 0.496187 -0.117481
C6    C     C_R   0.340866 0.748715 0.537806 0.154713
C7    C     C_R   0.285532 0.696656 0.538489 -0.240180
C8    C     C_R   0.195762 0.691517 0.496681 -0.109409
C9    C     C_R   0.163922 0.737433 0.452527 0.079563
C10   C     C_3   0.084903 0.762251 0.404112 0.021088
C11   C     C_3   0.145141 0.820991 0.404579 -0.483452
C12   C     C_2   0.304831 0.810047 0.112112 -0.283420
C13   C     C_R   0.213467 0.161330 0.439493 0.126701
C14   C     C_R   0.305540 0.196467 0.500730 -0.077168
C15   C     C_R   0.344128 0.290118 0.564162 -0.216501
C16   C     C_R   0.640053 0.139868 0.500025 0.825405
C17   C     C_R   0.289994 0.344182 0.564108 -0.214133
C18   C     C_R   0.196459 0.305407 0.500618 -0.077815
C19   C     C_R   0.161515 0.213205 0.439414 0.126915
C20   C     C_3   0.077336 0.136224 0.362797 -0.457885
C21   C     C_3   0.136743 0.076910 0.362897 -0.456627
C22   C     C_R   0.719824 0.288249 0.946876 0.033973
C23   C     C_R   0.701452 0.754324 0.421112 0.117334
C24   C     C_R   0.691371 0.195212 0.890921 -0.048675
C25   C     C_R   0.710562 0.157256 0.946138 -0.181882
C26   C     C_R   0.764399 0.211270 0.054126 -0.195196
C27   C     C_R   0.799748 0.304407 0.109125 -0.081870
C28   C     C_R   0.360430 0.858354 0.498775 0.828000
C29   C     C_R   0.771563 0.341506 0.053145 0.071213
C30   C     C_3   0.823025 0.409938 0.059750 -0.050137
C31   C     C_3   0.766201 0.351299 0.942475 -0.063618
C32   C     C_R   0.725389 0.286837 0.564091 0.132642
C33   C     C_R   0.695734 0.194554 0.499252 -0.076512
C34   C     C_R   0.705953 0.814194 0.509508 -0.176816
C35   C     C_R   0.722151 0.155708 0.431895 -0.209673
C36   C     C_R   0.776147 0.209716 0.431864 -0.214104
C37   C     C_R   0.804630 0.303482 0.499182 -0.077151
C38   C     C_R   0.777176 0.338666 0.564041 0.122113
C39   C     C_3   0.782385 0.423175 0.646455 -0.450069
C40   C     C_R   0.639064 0.139038 0.778176 0.835929
C41   C     C_3   0.723228 0.363968 0.646483 -0.451093
C42   C     C_R   0.139859 0.639524 0.499612 0.845094
C43   C     C_R   0.860131 0.359922 0.499957 0.804715
C44   C     C_R   0.861948 0.642018 0.501971 0.853455
C45   C     C_R   0.777296 0.831983 0.604483 0.124517
C46   C     C_R   0.140004 0.360129 0.500048 0.808285
C47   C     C_R   0.860823 0.360872 0.221805 0.798068
C48   C     C_R   0.138440 0.638076 0.777037 0.866381
C49   C     C_R   0.361503 0.861924 0.222968 0.850238
C50   C     C_2   0.281388 0.723262 0.943582 -0.154837
C51   C     C_2   0.192577 0.690115 0.887919 -0.277581
C52   C     C_2   0.337750 0.776247 0.056147 -0.159368
C53   C     C_R   0.832203 0.777418 0.604485 0.122031
C54   C     C_R   0.814533 0.706180 0.509530 -0.174552
C55   C     C_R   0.754482 0.701610 0.421127 0.138693
C56   C     C_3   0.682405 0.623540 0.315760 -0.455032
H1    H     H_    0.314894 0.710280 0.905845 0.181094
H2    H     H_    0.701322 0.084058 0.379334 0.182576
H3    H     H_    0.408853 0.788597 0.093607 0.178730
H4    H     H_    0.795231 0.177976 0.379293 0.180112
H5    H     H_    0.850902 0.460402 0.718248 0.218687
H6    H     H_    0.748818 0.462871 0.618261 0.215703
H7    H     H_    0.757611 0.367064 0.718289 0.234427
H8    H     H_    0.234953 0.802067 0.077950 0.157101
H9    H     H_    0.698315 0.606011 0.259324 0.239455
H10   H     H_    0.660229 0.566833 0.315170 0.192914
H11   H     H_    0.605632 0.697934 0.259252 0.219619
H12   H     H_    0.567253 0.659193 0.315207 0.199772
H13   H     H_    0.312846 0.659725 0.571057 0.193303
H14   H     H_    0.125087 0.797417 0.326464 0.202260
H15   H     H_    0.160820 0.893733 0.457358 0.221510
H16   H     H_    0.415628 0.321707 0.613659 0.181473
H17   H     H_    0.321453 0.415791 0.613588 0.182952
H18   H     H_    0.041460 0.134460 0.396085 0.211893
H19   H     H_    0.036388 0.129546 0.288963 0.215967
H20   H     H_    0.130103 0.035979 0.289122 0.216448
H21   H     H_    0.655518 0.369473 0.618279 0.207909
H22   H     H_    0.030294 0.704701 0.325820 0.172178
H23   H     H_    0.156951 0.698672 0.922313 0.155850
H24   H     H_    0.135135 0.040936 0.396245 0.210757
H25   H     H_    0.686747 0.085753 0.906281 0.187210
H26   H     H_    0.780652 0.179701 0.094175 0.177072
H27   H     H_    0.894497 0.415697 0.096634 0.170949
H28   H     H_    0.720782 0.381264 0.907091 0.179226
I1    I     I_    0.472122 0.741480 0.596709 -0.313510
I2    I     I_    0.046683 0.836644 0.505399 -0.316223
I3    I     I_    0.798864 0.533722 0.123630 -0.357540
I4    I     I_    0.842601 0.299145 0.881988 -0.363291
I5    I     I_    0.804490 0.942157 0.746935 -0.236565
I6    I     I_    0.942798 0.805079 0.746915 -0.259918
O1    O     O_3   0.500000 0.000000 0.500000 -0.495260
O2    O     O_R   0.055460 0.323770 0.439940 -0.642242
O3    O     O_R   0.885490 0.446080 0.270840 -0.620754
O4    O     O_R   0.323800 0.055370 0.439900 -0.643150
O5    O     O_R   0.175320 0.614550 0.729170 -0.643220
O6    O     O_R   0.885490 0.324650 0.270840 -0.647952
O7    O     O_R   0.053870 0.614540 0.729150 -0.627840
O8    O     O_R   0.883910 0.615420 0.560060 -0.621293
O9    O     O_R   0.176240 0.444580 0.560100 -0.650398
O10   O     O_R   0.055460 0.616070 0.439920 -0.624136
O11   O     O_R   0.884570 0.323750 0.439920 -0.650362
O12   O     O_R   0.616140 0.055410 0.439930 -0.647379
O13   O     O_R   0.616140 0.884540 0.439940 -0.641303
O14   O     O_R   0.615480 0.176200 0.560080 -0.633544
O15   O     O_R   0.444590 0.883880 0.560080 -0.613545
O16   O     O_R   0.614550 0.175310 0.729160 -0.630431
O17   O     O_R   0.324730 0.885400 0.270830 -0.643351
O18   O     O_R   0.614550 0.053870 0.729160 -0.628722
O19   O     O_R   0.446170 0.885420 0.270850 -0.645237
O20   O     O_R   0.323800 0.884510 0.439910 -0.645386
O21   O     O_R   0.444590 0.176180 0.560060 -0.651726
O22   O     O_R   0.615480 0.883900 0.560100 -0.601454
O23   O     O_3   0.000040 0.499960 0.500000 -0.494738
O24   O     O_R   0.176240 0.615450 0.560090 -0.647727
O25   O     O_R   0.883910 0.444550 0.560070 -0.641511
O26   O     O_R   0.884570 0.616050 0.439900 -0.614511
Zn1   Zn    Zn3+2 0.543850 0.957090 0.414170 0.980390
Zn2   Zn    Zn3+2 0.542910 0.129670 0.585830 0.984035
Zn3   Zn    Zn3+2 0.542910 0.956180 0.585840 1.030053
Zn4   Zn    Zn3+2 0.370330 0.957070 0.414150 0.965856
Zn5   Zn    Zn3+2 0.956190 0.542870 0.585830 0.999816
Zn6   Zn    Zn3+2 0.957140 0.543780 0.414160 1.016013
Zn7   Zn    Zn3+2 0.957140 0.370280 0.414170 0.962238
Zn8   Zn    Zn3+2 0.129710 0.542890 0.585850 0.977754

loop_
_geom_bond_atom_site_label_1
_geom_bond_atom_site_label_2
_ccdc_geom_bond_type
O5    Zn8   S    
O8    Zn5   S    
C17   H17   S    
C55   C56   S    
O25   Zn5   S    
C48   O5    A    
C27   C29   A    
C35   C36   A    
C46   O9    A    
C12   C49   S    
C10   H22   S    
C11   H14   S    
O19   Zn1   S    
C7    C8    A    
C49   O17   A    
C53   C54   A    
C48   O7    A    
C21   H20   S    
C26   C27   A    
C29   C30   S    
C6    I1    S    
O26   Zn6   S    
C35   H2    S    
C24   C40   S    
C49   O19   A    
C36   C37   A    
C22   C29   A    
C8    C42   S    
C2    H12   S    
C41   H21   S    
C30   C31   S    
C12   H8    S    
C11   H15   S    
C46   O2    A    
C56   H9    S    
C4    O13   A    
C18   C19   A    
C30   H27   S    
O7    Zn5   S    
C43   O25   A    
O4    Zn4   S    
C42   O24   A    
C48   C51   S    
O23   Zn6   S    
C19   C20   S    
C1    O4    A    
C50   C52   S    
C32   C41   S    
O1    Zn1   S    
C32   C38   A    
C45   I5    S    
C9    C10   S    
O10   Zn6   S    
C40   O18   A    
O24   Zn8   S    
C4    O22   A    
C45   C53   A    
C26   H26   S    
C13   C14   A    
O16   Zn2   S    
C25   H25   S    
O18   Zn3   S    
O13   Zn1   S    
C44   O8    A    
C18   C46   S    
C12   C52   D    
C16   O14   A    
C50   C51   D    
O14   Zn2   S    
C38   C39   S    
C39   H5    S    
C4    C34   S    
C22   C31   S    
C13   C19   A    
C13   C21   S    
O3    Zn6   S    
C39   C41   S    
C2    H11   S    
O2    Zn7   S    
O20   Zn4   S    
C8    C9    A    
C28   O20   A    
C25   C26   A    
C31   H28   S    
C20   H19   S    
C37   C43   S    
C43   O11   A    
C37   C38   A    
C3    C9    A    
C52   H3    S    
C42   O10   A    
C16   C33   S    
C5    C28   S    
O23   Zn7   S    
C28   O15   A    
C47   O6    A    
C23   C34   A    
C17   C18   A    
C47   O3    A    
O1    Zn2   S    
C20   H18   S    
C34   C45   A    
O11   Zn7   S    
C24   C25   A    
O12   Zn1   S    
C16   O12   A    
O21   Zn2   S    
O1    Zn3   S    
C41   H7    S    
O17   Zn4   S    
C53   I6    S    
C40   O16   A    
C27   C47   S    
C15   C17   A    
C39   H6    S    
C54   C55   A    
C10   I2    S    
C31   I4    S    
O6    Zn7   S    
C14   C15   A    
C50   H1    S    
C3    C5    A    
C7    H13   S    
O22   Zn3   S    
C23   C55   A    
C6    C7    A    
C32   C33   A    
C2    C56   S    
C1    O21   A    
C5    C6    A    
O23   Zn8   S    
C56   H10   S    
C21   H24   S    
C33   C35   A    
C15   H16   S    
C22   C24   A    
C51   H23   S    
C3    C11   S    
C10   C11   S    
C44   C54   S    
O23   Zn5   S    
C20   C21   S    
C44   O26   A    
C2    C23   S    
C36   H4    S    
O1    Zn4   S    
O15   Zn3   S    
C1    C14   S    
C30   I3    S    
O9    Zn8   S    
