data_mof_unit_27657.cif
_audit_creation_date              2012-12-11T15:13:40-0500
_audit_creation_method            fapswitch 2.2
_symmetry_space_group_name_H-M    P1
_symmetry_Int_Tables_number       1
_space_group_crystal_system       triclinic
_cell_length_a                    6.947628
_cell_length_b                    13.479571
_cell_length_c                    20.131914
_cell_angle_alpha                 104.106259
_cell_angle_beta                  89.978684
_cell_angle_gamma                 90.512012
_cell_volume                      1828.44587387

loop_
_atom_site_label
_atom_site_type_symbol
_atom_type_description
_atom_site_fract_x
_atom_site_fract_y
_atom_site_fract_z
_atom_type_partial_charge
O1    O     O_R   0.506780 0.600060 0.449950 -0.538970
O2    O     O_R   0.179840 0.597110 0.589410 -0.544789
O3    O     O_R   0.004570 0.399940 0.550050 -0.538231
C1    C     C_R   0.348236 0.619011 0.616914 0.676704
O4    O     O_R   0.177380 0.612160 0.452890 -0.540717
O5    O     O_R   0.002100 0.415100 0.412560 -0.541676
C2    C     C_R   0.346500 0.639009 0.436358 0.695342
O6    O     O_R   0.509250 0.584900 0.587440 -0.539684
O7    O     O_3   0.337570 0.435330 0.486930 -0.370081
V1    V     V_3+5 0.064650 0.512000 0.502430 1.411936
O8    O     O_R   0.672090 0.402890 0.410590 -0.544725
C3    C     C_R   0.840423 0.381577 0.382987 0.697352
O9    O     O_R   0.674540 0.387840 0.547110 -0.540910
C4    C     C_R   0.842799 0.360905 0.563583 0.696285
V2    V     V_3+5 0.564040 0.488000 0.497570 1.411466
O10   O     O_3   0.840990 0.564670 0.513070 -0.370190
C5    C     C_R   0.845021 0.106066 0.607711 -0.161983
H1    H     H_    0.838426 0.155710 0.514253 0.101302
H2    H     H_    0.847260 0.979803 0.690109 0.117257
H3    H     H_    0.841198 0.025897 0.580898 0.112127
C6    C     C_R   0.849206 0.283241 0.602978 -0.030973
C7    C     C_R   0.866577 0.319447 0.932622 -0.167784
C8    C     C_R   0.864575 0.396322 0.897593 -0.122736
C9    C     C_R   0.860183 0.371990 0.826254 -0.163603
C10   C     C_R   0.857423 0.268778 0.787744 0.078808
C11   C     C_R   0.857978 0.190238 0.824113 0.069639
C12   C     C_R   0.854262 0.240903 0.714527 0.072581
C13   C     C_R   0.850004 0.135533 0.679585 0.145639
C14   C     C_R   0.850273 0.060213 0.716441 -0.217142
C15   C     C_R   0.854554 0.086909 0.787486 -0.204741
C16   C     C_R   0.854806 0.313826 0.674497 -0.217597
C17   C     C_R   0.843803 0.179578 0.569662 -0.177232
C18   C     C_R   0.862981 0.216789 0.896674 -0.073479
H4    H     H_    0.858050 0.394997 0.696987 0.091133
H5    H     H_    0.871172 0.340042 0.988113 0.099654
H6    H     H_    0.859039 0.435988 0.803066 0.102216
H7    H     H_    0.867030 0.475672 0.925974 0.117475
H8    H     H_    0.854928 0.025430 0.813495 0.118179
C19   C     C_3   0.734312 0.170867 0.246192 -0.157851
C20   C     C_3   0.906326 0.197894 0.296910 -0.233634
H9    H     H_    0.950029 0.155342 0.335157 0.109003
H10   H     H_    0.633405 0.105511 0.242465 0.128922
C21   C     C_3   0.849088 0.311641 0.312444 -0.065825
C22   C     C_3   0.676585 0.285326 0.262792 -0.084459
C23   C     C_3   0.806655 0.302052 0.203664 -0.196758
C24   C     C_3   0.979232 0.329686 0.254142 -0.171570
C25   C     C_3   0.031898 0.215844 0.237949 0.408019
C26   C     C_3   0.863939 0.188349 0.187659 -0.024041
H11   H     H_    0.529285 0.316143 0.273684 0.124160
H12   H     H_    0.764697 0.344331 0.165071 0.115175
H13   H     H_    0.082465 0.394141 0.257704 0.106529
C27   C     C_3   0.454813 0.794558 0.707046 -0.141878
C28   C     C_3   0.274683 0.839892 0.748689 -0.142417
H14   H     H_    0.206613 0.913912 0.748183 0.111712
H15   H     H_    0.536297 0.830493 0.671453 0.099488
C29   C     C_3   0.358637 0.811529 0.812254 -0.002293
C30   C     C_3   0.539190 0.767048 0.771418 -0.114834
C31   C     C_3   0.438352 0.660991 0.751105 -0.140958
C32   C     C_3   0.258201 0.706294 0.792714 -0.146017
C33   C     C_3   0.173828 0.733837 0.728356 -0.118633
C34   C     C_3   0.354370 0.689274 0.687526 -0.004773
H16   H     H_    0.690401 0.780986 0.789366 0.106118
H17   H     H_    0.506468 0.586993 0.751645 0.101178
H18   H     H_    0.176766 0.670421 0.828348 0.099077
H19   H     H_    0.022596 0.720076 0.710404 0.107765
C35   C     C_R   0.366288 0.893566 0.392116 -0.161504
H20   H     H_    0.363281 0.844016 0.485628 0.101431
H21   H     H_    0.371431 0.019696 0.309760 0.118658
H22   H     H_    0.371205 0.973725 0.418922 0.112017
C36   C     C_R   0.355809 0.716487 0.396868 -0.030497
C37   C     C_R   0.349771 0.680338 0.067158 -0.170979
C38   C     C_R   0.343527 0.603465 0.102186 -0.120057
C39   C     C_R   0.345397 0.627727 0.173545 -0.160476
C40   C     C_R   0.353218 0.730869 0.212071 0.079940
C41   C     C_R   0.358050 0.809392 0.175710 0.063042
C42   C     C_R   0.356599 0.758720 0.285290 0.072765
C43   C     C_R   0.363345 0.864060 0.320235 0.142205
C44   C     C_R   0.366726 0.939342 0.283387 -0.208078
C45   C     C_R   0.364371 0.912647 0.212339 -0.199163
C46   C     C_R   0.353340 0.685836 0.325329 -0.215635
C47   C     C_R   0.362125 0.820119 0.430193 -0.177024
C48   C     C_R   0.356959 0.782935 0.103141 -0.076738
H23   H     H_    0.347880 0.604682 0.302845 0.089618
H24   H     H_    0.349184 0.659788 0.011647 0.098562
H25   H     H_    0.340502 0.563752 0.196745 0.104528
H26   H     H_    0.337688 0.524164 0.073785 0.119605
H27   H     H_    0.367451 0.974021 0.186276 0.149845
O11   O     O_R   0.203580 0.914920 0.912610 -0.543148
O12   O     O_R   0.535710 0.887810 0.047120 -0.541516
O13   O     O_R   0.710730 0.084950 0.087430 -0.539642
C49   C     C_R   0.366624 0.861011 0.063757 0.689652
O14   O     O_R   0.533010 0.902850 0.910600 -0.547235
O15   O     O_R   0.708010 0.100090 0.949930 -0.539462
C50   C     C_R   0.364672 0.881298 0.882995 0.670972
O16   O     O_R   0.206300 0.899780 0.050100 -0.537327
O17   O     O_3   0.375170 0.064580 0.013100 -0.361916
V3    V     V_3+5 0.648200 0.988020 0.997570 1.427238
O18   O     O_R   0.038030 0.112330 0.952840 -0.542699
C51   C     C_R   0.869739 0.138758 0.936071 0.680262
O19   O     O_R   0.040730 0.097300 0.089360 -0.519864
C52   C     C_R   0.872489 0.118383 0.117058 0.705325
V4    V     V_3+5 0.148780 0.012220 0.002360 1.456317
O20   O     O_3   0.871930 0.935430 0.986900 -0.376401
O21   O     O_3   0.218342 0.178530 0.223790 -0.654577
H28   H     H_    0.280855 0.186528 0.269036 0.262900

loop_
_geom_bond_atom_site_label_1
_geom_bond_atom_site_label_2
_ccdc_geom_bond_type
C22   H11   S    
C20   C25   S    
O17   V4    S    
C39   C40   A    
C1    O6    A    
C2    C36   S    
C45   H27   S    
C30   H16   S    
C43   C44   A    
C27   C28   S    
C29   C50   S    
C7    H5    S    
C6    C16   A    
C32   H18   S    
C9    H6    S    
C40   C42   A    
C4    C6    S    
C13   C14   A    
H20   C47   S    
C3    C21   S    
C27   C34   S    
O5    C3    A    
C28   C29   S    
C35   H22   S    
V2    O10   S    
C5    H3    S    
C29   C30   S    
C15   H8    S    
C35   C43   A    
C36   C47   A    
O8    V2    S    
C20   C21   S    
C8    C9    A    
O1    V2    S    
O12   C49   A    
O7    V1    S    
O15   C51   A    
O13   V3    S    
C27   H15   S    
C37   C48   A    
C31   C34   S    
C32   C33   S    
O9    C4    A    
C46   H23   S    
O19   V4    S    
O21   H28   S    
C28   C33   S    
O14   V3    S    
C19   H10   S    
H21   C44   S    
C6    C17   A    
O11   C50   A    
C40   C41   A    
C36   C46   A    
C42   C43   A    
C19   C20   S    
O4    C2    A    
C44   C45   A    
C10   C11   A    
O18   V4    S    
C12   C16   A    
C1    C34   S    
C48   C49   S    
O12   V3    S    
C33   C34   S    
C18   C51   S    
O2    C1    A    
C21   C22   S    
O13   C52   A    
C14   C15   A    
C8    H7    S    
C11   C18   A    
O11   V4    S    
C25   C26   S    
O17   V3    S    
O14   C50   A    
C16   H4    S    
C9    C10   A    
C39   H25   S    
V3    O20   S    
O3    C4    A    
C20   H9    S    
C33   H19   S    
C11   C15   A    
O6    V2    S    
O9    V2    S    
H1    C17   S    
O2    V1    S    
O15   V3    S    
C22   C23   S    
C37   H24   S    
C23   C26   S    
C31   H17   S    
C7    C18   A    
C24   C25   S    
C25   O21   S    
O1    C2    A    
C5    C13   A    
C42   C46   A    
C38   C39   A    
O5    V1    S    
C38   H26   S    
O8    C3    A    
O16   V4    S    
C41   C48   A    
C28   H14   S    
C19   C22   S    
C10   C12   A    
C29   C32   S    
C31   C32   S    
O4    V1    S    
O3    V1    S    
V1    O10   S    
C35   C47   A    
C30   C31   S    
C23   H12   S    
C26   C52   S    
C24   H13   S    
O19   C52   A    
O7    V2    S    
V4    O20   S    
C21   C24   S    
C27   C30   S    
C49   O16   A    
C23   C24   S    
C37   C38   A    
O18   C51   A    
C12   C13   A    
C5    C17   A    
C7    C8    A    
C41   C45   A    
C19   C26   S    
H2    C14   S    
