data_mof_unit_9166.cif
_audit_creation_date              2012-12-11T15:26:03-0500
_audit_creation_method            fapswitch 2.2
_symmetry_space_group_name_H-M    P1
_symmetry_Int_Tables_number       1
_space_group_crystal_system       triclinic
_cell_length_a                    24.537312
_cell_length_b                    17.102631
_cell_length_c                    15.565347
_cell_angle_alpha                 89.864282
_cell_angle_beta                  50.705576
_cell_angle_gamma                 89.797918
_cell_volume                      5055.12492576

loop_
_atom_site_label
_atom_site_type_symbol
_atom_type_description
_atom_site_fract_x
_atom_site_fract_y
_atom_site_fract_z
_atom_type_partial_charge
C1    C     C_R   0.333488 0.108527 0.801354 -0.131610
C2    C     C_2   0.359788 0.740677 0.847985 -0.218241
C3    C     C_2   0.308352 0.154559 0.978174 -0.220366
C4    C     C_2   0.640302 0.740410 0.152908 -0.217728
C5    C     C_2   0.194299 0.651132 0.018695 -0.223934
C6    C     C_2   0.853805 0.249638 0.866777 -0.216530
C7    C     C_2   0.805899 0.650834 0.981337 -0.223547
C8    C     C_2   0.149345 0.249042 0.134287 -0.217440
C9    C     C_2   0.763445 0.152556 0.963219 -0.110879
C10   C     C_2   0.307368 0.701182 0.863033 -0.106275
C11   C     C_2   0.238477 0.150346 0.039814 -0.113641
C12   C     C_R   0.648836 0.857077 0.244657 -0.121456
C13   C     C_2   0.692870 0.700694 0.137629 -0.106557
C14   C     C_2   0.264291 0.649737 0.958734 -0.109776
C15   C     C_2   0.806748 0.206416 0.871413 -0.106029
C16   C     C_2   0.735897 0.649294 0.041850 -0.109839
C17   C     C_2   0.195561 0.204737 0.131040 -0.107667
C18   C     C_R   0.614365 0.102274 0.592478 -0.124090
C19   C     C_R   0.385544 0.896536 0.407815 -0.134546
C20   C     C_R   0.412692 0.145077 0.407315 -0.124332
C21   C     C_R   0.614694 0.896850 0.592160 -0.134414
C22   C     C_R   0.087511 0.644686 0.592727 -0.125115
C23   C     C_R   0.666324 0.110843 0.201366 -0.114997
C24   C     C_R   0.904340 0.361859 0.407838 -0.124515
C25   C     C_R   0.912807 0.645190 0.407314 -0.124791
C26   C     C_R   0.114561 0.396505 0.592188 -0.132552
C27   C     C_R   0.688818 0.101777 0.407994 -0.123964
C28   C     C_R   0.311297 0.897091 0.591874 -0.140125
C29   C     C_R   0.337751 0.144660 0.592574 -0.125301
C30   C     C_R   0.688909 0.897407 0.408168 -0.140131
C31   C     C_R   0.162509 0.644274 0.407394 -0.125997
C32   C     C_R   0.829956 0.362234 0.592312 -0.129656
C33   C     C_R   0.837855 0.644770 0.592554 -0.125894
C34   C     C_R   0.351248 0.857287 0.755662 -0.120233
C35   C     C_R   0.188799 0.397031 0.408114 -0.138764
C36   C     C_R   0.576962 0.108587 0.197969 -0.163938
C37   C     C_R   0.442101 0.857591 0.756799 -0.148734
C38   C     C_R   0.424652 0.109567 0.800236 -0.145476
C39   C     C_R   0.557988 0.857581 0.243509 -0.147601
C40   C     C_R   0.077134 0.606997 0.197004 -0.162225
C41   C     C_R   0.939806 0.361858 0.764800 -0.145079
C42   C     C_R   0.922956 0.606928 0.802825 -0.161416
C43   C     C_R   0.065189 0.363941 0.228273 -0.144493
C44   C     C_R   0.354245 0.128508 0.862899 0.150484
C45   C     C_R   0.832830 0.607246 0.802002 -0.129645
C46   C     C_R   0.615804 0.814442 0.213490 0.148672
C47   C     C_R   0.646795 0.129527 0.137772 0.151875
C48   C     C_R   0.384328 0.814599 0.787031 0.148781
C49   C     C_R   0.852505 0.625780 0.865245 0.155109
C50   C     C_R   0.123214 0.321466 0.197774 0.148199
C51   C     C_R   0.147528 0.625888 0.134762 0.155018
C52   C     C_R   0.879027 0.322313 0.803890 0.148790
C53   C     C_R   0.683470 0.115728 0.500386 0.043187
C54   C     C_R   0.316736 0.880975 0.499780 0.048342
C55   C     C_R   0.362224 0.189498 0.499996 0.039974
C56   C     C_R   0.152473 0.360812 0.237246 -0.122789
C57   C     C_R   0.683690 0.881814 0.500234 0.049047
C58   C     C_R   0.138281 0.688822 0.500011 0.040444
C59   C     C_R   0.851882 0.319519 0.500201 0.042820
C60   C     C_R   0.862321 0.689650 0.499982 0.039758
C61   C     C_R   0.183479 0.381167 0.500219 0.047528
C62   C     C_R   0.272913 0.294487 0.600611 -0.168039
C63   C     C_R   0.807841 0.842171 0.399692 -0.171955
C64   C     C_R   0.806075 0.157301 0.400063 -0.170011
C65   C     C_R   0.193091 0.840044 0.600342 -0.173236
C66   C     C_R   0.773063 0.794852 0.600587 -0.166592
C67   C     C_R   0.167104 0.607290 0.198203 -0.128733
C68   C     C_R   0.307590 0.341501 0.399686 -0.172994
C69   C     C_R   0.228007 0.793039 0.399407 -0.168059
C70   C     C_R   0.766760 0.211612 0.601151 -0.169826
C71   C     C_R   0.727102 0.842107 0.600721 -0.170844
C72   C     C_R   0.353606 0.294542 0.399669 -0.169731
C73   C     C_R   0.273827 0.840069 0.399279 -0.172088
C74   C     C_R   0.725025 0.157754 0.601221 -0.168363
C75   C     C_R   0.226817 0.341408 0.600744 -0.172071
C76   C     C_R   0.853728 0.794877 0.399656 -0.168391
C77   C     C_R   0.847763 0.211210 0.399987 -0.170235
C78   C     C_R   0.845931 0.364140 0.772115 -0.125158
C79   C     C_R   0.147345 0.792981 0.600368 -0.169834
C80   C     C_R   0.741104 0.858985 0.500245 0.142351
C81   C     C_R   0.332420 0.263567 0.500094 0.144705
C82   C     C_R   0.259659 0.857104 0.499773 0.143516
C83   C     C_R   0.740289 0.138402 0.500610 0.142585
C84   C     C_R   0.240824 0.358181 0.500244 0.143365
C85   C     C_R   0.832507 0.763799 0.500075 0.143912
C86   C     C_R   0.823370 0.245303 0.500467 0.148681
C87   C     C_R   0.168511 0.762259 0.499928 0.144763
C88   C     C_2   0.693662 0.155856 0.022594 -0.222415
H1    H     H_    0.736228 0.097372 0.322644 0.081475
H2    H     H_    0.401764 0.276241 0.320492 0.106571
H3    H     H_    0.322877 0.856260 0.320022 0.106199
H4    H     H_    0.677168 0.139120 0.680420 0.104452
H5    H     H_    0.177655 0.357502 0.680003 0.106059
H6    H     H_    0.901822 0.776455 0.320471 0.106073
H7    H     H_    0.895020 0.230978 0.320845 0.106345
H8    H     H_    0.099300 0.774647 0.679557 0.106312
H9    H     H_    0.378666 0.724023 0.892565 0.128318
H10   H     H_    0.670701 0.186027 0.990637 0.127912
H11   H     H_    0.621258 0.723859 0.108654 0.128340
H12   H     H_    0.263620 0.901916 0.676924 0.084023
H13   H     H_    0.331916 0.185669 0.008233 0.130327
H14   H     H_    0.869339 0.234964 0.916597 0.128922
H15   H     H_    0.170791 0.678830 0.986092 0.128769
H16   H     H_    0.134849 0.235186 0.082939 0.127629
H17   H     H_    0.829504 0.678493 0.013579 0.128719
H18   H     H_    0.280390 0.105917 0.829746 0.080904
H19   H     H_    0.696163 0.842401 0.232340 0.089965
H20   H     H_    0.718587 0.111046 0.176599 0.081436
H21   H     H_    0.303897 0.842834 0.768165 0.089642
H22   H     H_    0.779927 0.604178 0.829651 0.080708
H23   H     H_    0.297497 0.159695 0.678612 0.091334
H24   H     H_    0.200105 0.346946 0.224463 0.089874
H25   H     H_    0.219944 0.604185 0.170854 0.079980
H26   H     H_    0.793270 0.355038 0.801408 0.083755
H27   H     H_    0.592829 0.098305 0.678056 0.082121
H28   H     H_    0.406515 0.900787 0.322550 0.083466
H29   H     H_    0.442239 0.160427 0.321167 0.091527
H30   H     H_    0.593742 0.901396 0.677378 0.081405
H31   H     H_    0.057934 0.659914 0.678912 0.091330
H32   H     H_    0.926552 0.351331 0.323378 0.084213
H33   H     H_    0.942494 0.660625 0.321151 0.091935
H34   H     H_    0.736560 0.902529 0.323161 0.081879
H35   H     H_    0.093624 0.400925 0.677401 0.083016
H36   H     H_    0.548570 0.105250 0.166196 0.092664
H37   H     H_    0.479130 0.841512 0.769568 0.099254
H38   H     H_    0.454950 0.108087 0.828827 0.091862
H39   H     H_    0.520985 0.841570 0.230835 0.098998
H40   H     H_    0.048193 0.603581 0.166179 0.092422
H41   H     H_    0.977065 0.346713 0.777428 0.097880
H42   H     H_    0.952032 0.603386 0.833441 0.091929
H43   H     H_    0.035819 0.353276 0.199739 0.086862
H44   H     H_    0.257550 0.276210 0.679740 0.108102
H45   H     H_    0.202817 0.659200 0.321333 0.091279
H46   H     H_    0.822386 0.858398 0.320453 0.104253
H47   H     H_    0.822048 0.138314 0.320879 0.104734
H48   H     H_    0.178486 0.856158 0.679591 0.105277
H49   H     H_    0.757656 0.776481 0.679714 0.108116
H50   H     H_    0.322118 0.357627 0.320437 0.105602
H51   H     H_    0.243452 0.774822 0.320267 0.108341
H52   H     H_    0.750330 0.231652 0.680248 0.101290
H53   H     H_    0.287764 0.717643 0.819584 0.128258
H54   H     H_    0.787079 0.123084 0.994327 0.125656
H55   H     H_    0.712678 0.717095 0.180681 0.128146
H56   H     H_    0.784200 0.351939 0.676778 0.082848
H57   H     H_    0.214151 0.120131 0.010624 0.127206
H58   H     H_    0.790875 0.221206 0.822103 0.126413
H59   H     H_    0.288511 0.622681 0.990334 0.125481
H60   H     H_    0.211103 0.218574 0.180881 0.130309
H61   H     H_    0.711588 0.622310 0.010570 0.125668
H62   H     H_    0.797691 0.659890 0.678598 0.091926
H63   H     H_    0.236447 0.401958 0.323085 0.083871
H64   H     H_    0.677982 0.858329 0.679967 0.105190
N1    N     N_R   0.388930 0.078160 0.705470 -0.043715
N2    N     N_R   0.419500 0.922160 0.443350 -0.036630
N3    N     N_R   0.419500 0.077840 0.443350 -0.039009
N4    N     N_R   0.580500 0.922160 0.556650 -0.035641
N5    N     N_R   0.080500 0.577840 0.556650 -0.039210
N6    N     N_R   0.919500 0.422160 0.443350 -0.038728
N7    N     N_R   0.919500 0.577840 0.443350 -0.040732
N8    N     N_R   0.080500 0.422160 0.556650 -0.037245
N9    N     N_R   0.626210 0.077590 0.443410 -0.038191
N10   N     N_R   0.373790 0.922410 0.556590 -0.037285
N11   N     N_R   0.373790 0.077590 0.556590 -0.039539
N12   N     N_R   0.611070 0.921840 0.294530 -0.045829
N13   N     N_R   0.626210 0.922410 0.443410 -0.036300
N14   N     N_R   0.126210 0.577590 0.443410 -0.039705
N15   N     N_R   0.873790 0.422410 0.556590 -0.038796
N16   N     N_R   0.873790 0.577590 0.556590 -0.041290
N17   N     N_R   0.126210 0.422410 0.443410 -0.037743
N18   N     N_R   0.554800 0.077270 0.294580 -0.040156
N19   N     N_R   0.445200 0.922730 0.705420 -0.042428
N20   N     N_R   0.445200 0.077270 0.705420 -0.040983
N21   N     N_R   0.554800 0.922730 0.294580 -0.041897
N22   N     N_R   0.054800 0.577270 0.294580 -0.039495
N23   N     N_R   0.611070 0.078160 0.294530 -0.044503
N24   N     N_R   0.945200 0.422730 0.705420 -0.041363
N25   N     N_R   0.945200 0.577270 0.705420 -0.039552
N26   N     N_R   0.054800 0.422730 0.294580 -0.040008
N27   N     N_R   0.388930 0.921840 0.705470 -0.045365
N28   N     N_R   0.888930 0.578160 0.705470 -0.042899
N29   N     N_R   0.111070 0.421840 0.294530 -0.044638
N30   N     N_R   0.111070 0.578160 0.294530 -0.042990
N31   N     N_R   0.888930 0.421840 0.705470 -0.042932
N32   N     N_R   0.580500 0.077840 0.556650 -0.037574
Ni1   Ni    Ni4+2 0.382710 0.000000 0.629850 0.208653
Ni2   Ni    Ni4+2 0.617290 0.000000 0.370150 0.206388
Ni3   Ni    Ni4+2 0.882710 0.500000 0.629850 0.212139
Ni4   Ni    Ni4+2 0.117290 0.500000 0.370150 0.209303
Ni5   Ni    Ni4+2 0.513020 0.000000 0.629850 0.207365
Ni6   Ni    Ni4+2 0.486980 0.000000 0.370150 0.209615
Ni7   Ni    Ni4+2 0.013020 0.500000 0.629850 0.210235
Ni8   Ni    Ni4+2 0.986980 0.500000 0.370150 0.212893

loop_
_geom_bond_atom_site_label_1
_geom_bond_atom_site_label_2
_ccdc_geom_bond_type
C69   H51   S    
N24   N31   A    
C41   H41   S    
C5    H15   S    
C43   N26   A    
C70   H52   S    
C65   C79   A    
C20   N3    A    
C64   C77   A    
C29   N11   A    
C68   H50   S    
C74   C83   A    
C31   H45   S    
C58   C87   S    
N22   N30   A    
C66   C85   A    
C79   C87   A    
C28   N10   A    
C4    C46   S    
C21   C57   A    
C21   H30   S    
N14   Ni4   S    
C19   H28   S    
C31   C58   A    
N3    Ni6   S    
C26   C61   A    
N6    Ni8   S    
C33   H62   S    
C9    C88   D    
C24   N6    A    
C75   C84   A    
N26   N29   A    
C23   N23   A    
C56   N29   A    
C42   N25   A    
C40   H40   S    
C30   C57   A    
N21   Ni6   S    
C72   H2    S    
N7    N16   A    
N19   Ni5   S    
C36   C47   A    
C78   N31   A    
C74   H4    S    
C4    C13   D    
C20   H29   S    
C18   C53   A    
C76   H6    S    
C6    C15   D    
C30   H34   S    
C2    H9    S    
C70   C74   A    
N8    N17   A    
C7    H17   S    
C69   C73   A    
C16   H61   S    
C25   C60   A    
C18   N32   A    
C55   C81   S    
C41   C52   A    
C72   C81   A    
C45   N28   A    
C39   N21   A    
C1    H18   S    
N18   N23   A    
N4    Ni5   S    
C3    H13   S    
C15   H58   S    
C6    H14   S    
N2    Ni6   S    
C64   H47   S    
N16   Ni3   S    
N12   Ni2   S    
C57   C80   S    
N19   N27   A    
C34   N27   A    
C78   H26   S    
C35   H63   S    
C20   C55   A    
C52   C78   A    
C71   C80   A    
C38   H38   S    
N29   Ni4   S    
N2    N10   A    
N6    N15   A    
C37   H37   S    
C63   C80   A    
C13   C16   S    
C22   H31   S    
C3    C44   S    
C24   H32   S    
C39   H39   S    
C68   C84   A    
C63   H46   S    
C62   H44   S    
C17   H60   S    
C23   C47   A    
C7    C49   S    
C35   C61   A    
C10   C14   S    
C28   C54   A    
C25   N7    A    
C11   H57   S    
N24   Ni7   S    
C51   C67   A    
C29   C55   A    
C2    C48   S    
C14   H59   S    
C77   H7    S    
C50   C56   A    
C10   H53   S    
N5    N14   A    
N5    Ni7   S    
C64   C83   A    
C38   C44   A    
N9    Ni2   S    
N28   Ni3   S    
N31   Ni3   S    
C12   N12   A    
N26   Ni8   S    
C1    C44   A    
C66   C71   A    
C31   N14   A    
C45   C49   A    
C68   C72   A    
N25   N28   A    
N15   Ni3   S    
N12   N21   A    
C42   H42   S    
N30   Ni4   S    
C37   C48   A    
C1    N1    A    
C8    H16   S    
C73   H3    S    
C5    C14   D    
C39   C46   A    
C19   C54   A    
C12   C46   A    
C7    C16   D    
N17   Ni4   S    
C62   C81   A    
C77   C86   A    
C33   C60   A    
C35   N17   A    
C62   C75   A    
C4    H11   S    
C33   N16   A    
C34   C48   A    
C26   H35   S    
C70   C86   A    
C8    C50   S    
C73   C82   A    
C54   C82   S    
C75   H5    S    
C26   N8    A    
C34   H21   S    
C11   C17   S    
C36   H36   S    
C45   H22   S    
N7    Ni8   S    
C29   H23   S    
N13   Ni2   S    
N8    Ni7   S    
N25   Ni7   S    
C61   C84   S    
C69   C87   A    
C18   H27   S    
C22   C58   A    
C12   H19   S    
C9    H54   S    
C27   C53   A    
C43   C50   A    
C38   N20   A    
N27   Ni1   S    
C22   N5    A    
N20   Ni5   S    
C40   C51   A    
N18   Ni6   S    
C36   N18   A    
C8    C17   D    
C53   C83   S    
N11   Ni1   S    
C32   H56   S    
N3    N11   A    
C47   C88   S    
N10   Ni1   S    
C43   H43   S    
C9    C15   S    
C59   C86   S    
C79   H8    S    
C27   N9    A    
N23   Ni2   S    
C40   N22   A    
C28   H12   S    
C65   C82   A    
C66   H49   S    
N1    Ni1   S    
N4    N13   A    
N9    N32   A    
C24   C59   A    
C23   H20   S    
N1    N20   A    
C21   N4    A    
C27   H1    S    
C19   N2    A    
C13   H55   S    
C67   H25   S    
C37   N19   A    
C65   H48   S    
C3    C11   D    
C42   C49   A    
C41   N24   A    
C63   C76   A    
C32   N15   A    
C71   H64   S    
N32   Ni5   S    
C5    C51   S    
C60   C85   S    
C30   N13   A    
C32   C59   A    
C6    C52   S    
C25   H33   S    
C76   C85   A    
C56   H24   S    
C88   H10   S    
C67   N30   A    
N22   Ni8   S    
C2    C10   D    
