data_mof_unit_30250.cif
_audit_creation_date              2012-12-11T21:12:16-0500
_audit_creation_method            fapswitch 2.2
_symmetry_space_group_name_H-M    P1
_symmetry_Int_Tables_number       1
_space_group_crystal_system       triclinic
_cell_length_a                    8.507888
_cell_length_b                    18.86914
_cell_length_c                    26.815127
_cell_angle_alpha                 99.979585
_cell_angle_beta                  91.999686
_cell_angle_gamma                 88.517577
_cell_volume                      4236.23251736

loop_
_atom_site_label
_atom_site_type_symbol
_atom_type_description
_atom_site_fract_x
_atom_site_fract_y
_atom_site_fract_z
_atom_type_partial_charge
Ba1   Ba    Ba6+2 0.160810 0.465630 0.521640 1.693690
Ba2   Ba    Ba6+2 0.649380 0.534380 0.478400 1.694305
C1    C     C_3   0.322950 0.311153 0.704070 -0.351091
C2    C     C_3   0.411939 0.313716 0.655574 0.335486
C3    C     C_3   0.473880 0.315972 0.412574 0.290824
C4    C     C_3   0.503455 0.234664 0.402493 -0.443995
C5    C     C_3   0.943413 0.719598 0.347801 0.364494
C6    C     C_3   0.911699 0.789396 0.322193 -0.041345
C7    C     C_3   0.544066 0.703088 0.362546 0.319082
C8    C     C_3   0.497764 0.693619 0.306042 -0.397027
C9    C     C_R   0.005956 0.050810 0.483678 0.007273
C10   C     C_R   0.078473 0.099674 0.458149 -0.111330
C11   C     C_R   0.214879 0.954566 0.463303 -0.117553
C12   C     C_3   0.979849 0.279619 0.618916 0.333436
C13   C     C_R   0.068483 0.979118 0.484021 0.011491
C14   C     C_R   0.270888 0.884246 0.463266 -0.087776
C15   C     C_R   0.180959 0.833648 0.481821 -0.039269
C16   C     C_R   0.035889 0.856680 0.503862 0.002089
C17   C     C_R   0.982509 0.929913 0.506387 0.029974
C18   C     C_R   0.229277 0.760344 0.478029 -0.014552
C19   C     C_R   0.125306 0.710455 0.491054 -0.239389
C20   C     C_R   0.986665 0.732308 0.516432 0.089397
C21   C     C_R   0.944381 0.806832 0.524094 -0.058515
C22   C     C_R   0.860987 0.073177 0.507073 0.024286
C23   C     C_3   0.010354 0.204255 0.630645 -0.381454
C24   C     C_R   0.796310 0.144976 0.507644 -0.010167
C25   C     C_R   0.882387 0.194824 0.484892 -0.042575
C26   C     C_R   0.016786 0.168673 0.458057 -0.029931
C27   C     C_R   0.815292 0.833700 0.552597 -0.031072
C28   C     C_R   0.767351 0.905064 0.557007 -0.093101
C29   C     C_R   0.841085 0.952891 0.530482 0.016088
C30   C     C_R   0.777666 0.022816 0.528259 -0.002668
C31   C     C_R   0.624714 0.040314 0.542545 -0.103205
C32   C     C_R   0.644493 0.165293 0.528941 -0.038727
C33   C     C_R   0.556070 0.108716 0.545024 0.047391
C34   C     C_3   0.792080 0.669061 0.642372 0.410326
C35   C     C_R   0.593405 0.239459 0.531314 0.000921
C36   C     C_R   0.690580 0.288874 0.513238 -0.284964
C37   C     C_R   0.831402 0.268466 0.488421 0.042311
C38   C     C_R   0.283759 0.429075 0.169821 0.586580
C39   C     C_R   0.197562 0.552549 0.178445 0.623563
C40   C     C_2   0.031541 0.501375 0.266081 -0.141792
C41   C     C_3   0.989990 0.500266 0.320574 0.119906
C42   C     C_1   0.272753 0.470404 0.334864 -0.045364
C43   C     C_2   0.308307 0.474463 0.287955 -0.111704
C44   C     C_2   0.181684 0.489258 0.250741 0.217121
C45   C     C_3   0.869064 0.643951 0.688875 -0.299397
C46   C     C_R   0.302697 0.492091 0.098093 -0.153693
C47   C     C_R   0.326155 0.429278 0.119495 -0.008553
C48   C     C_R   0.390587 0.367583 0.090137 -0.059617
C49   C     C_R   0.237128 0.554286 0.127791 -0.118399
C50   C     C_2   0.133745 0.490526 0.354270 -0.237532
C51   C     C_2   0.647390 0.476755 0.637867 -0.275848
C52   C     C_R   0.462569 0.431381 0.967777 0.019414
C53   C     C_R   0.355448 0.555213 0.973753 0.045029
C54   C     C_R   0.430226 0.493537 0.945538 0.054474
C55   C     C_R   0.543095 0.372595 0.938741 -0.105441
C56   C     C_3   0.912663 0.338990 0.352589 0.820089
C57   C     C_R   0.585695 0.373923 0.889362 -0.061856
C58   C     C_R   0.550981 0.433972 0.866538 -0.025735
C59   C     C_R   0.473375 0.494014 0.894506 -0.083109
C60   C     C_R   0.439274 0.554550 0.871481 -0.037020
C61   C     C_R   0.483159 0.554308 0.821093 0.595927
C62   C     C_R   0.592948 0.435052 0.816244 0.573791
C63   C     C_2   0.750555 0.480247 0.726789 -0.101317
C64   C     C_3   0.792158 0.481577 0.672497 -0.030968
C65   C     C_1   0.517287 0.510211 0.655657 0.000504
C66   C     C_2   0.478187 0.510710 0.703189 -0.122748
C67   C     C_3   0.782189 0.328284 0.310098 -0.141185
C68   C     C_2   0.600692 0.494997 0.741761 0.202270
C69   C     C_R   0.414894 0.430030 0.018100 0.042846
C70   C     C_R   0.345142 0.492580 0.046978 0.044821
C71   C     C_R   0.317523 0.555541 0.025303 -0.060768
C72   C     C_R   0.433680 0.367768 0.040687 -0.101495
C73   C     C_R   0.214243 0.616677 0.106226 0.626710
C74   C     C_R   0.320582 0.614544 0.949046 -0.097319
C75   C     C_R   0.361865 0.614140 0.899232 -0.060817
C76   C     C_R   0.253589 0.617128 0.056325 -0.145002
C77   C     C_3   0.330663 0.687540 0.595502 0.875032
C78   C     C_3   0.279749 0.764091 0.618780 0.592063
H1    H     H_    0.389185 0.368420 0.646737 0.063624
H2    H     H_    0.941860 0.686666 0.711446 0.161496
H3    H     H_    0.778192 0.628331 0.713419 0.048160
H4    H     H_    0.950195 0.597815 0.676540 0.116196
H5    H     H_    0.786060 0.374632 0.289579 0.061031
H6    H     H_    0.667721 0.332570 0.327865 0.156218
H7    H     H_    0.418484 0.689410 0.566178 -0.147715
H8    H     H_    0.380202 0.345317 0.737275 0.106326
H9    H     H_    0.220646 0.791311 0.589635 -0.100698
H10   H     H_    0.382062 0.796674 0.634406 -0.102531
H11   H     H_    0.315446 0.255355 0.711467 0.106716
H12   H     H_    0.582985 0.342885 0.428866 0.032117
H13   H     H_    0.379159 0.328223 0.440216 0.099214
H14   H     H_    0.627939 0.222267 0.392955 0.117606
H15   H     H_    0.477753 0.211306 0.436364 0.086248
H16   H     H_    0.427053 0.207819 0.370957 0.126100
H17   H     H_    0.202001 0.331870 0.700912 0.168606
H18   H     H_    0.899437 0.176856 0.634388 0.092414
H19   H     H_    0.902735 0.728620 0.387287 -0.014277
H20   H     H_    0.008792 0.826962 0.336612 0.055471
H21   H     H_    0.555697 0.649431 0.372751 0.113669
H22   H     H_    0.658638 0.726209 0.369959 0.052746
H23   H     H_    0.407232 0.652386 0.295047 0.115695
H24   H     H_    0.599836 0.673246 0.283410 0.134385
H25   H     H_    0.086548 0.295264 0.601496 0.130887
H26   H     H_    0.453280 0.744832 0.295276 0.122830
H27   H     H_    0.158744 0.654007 0.484600 0.119136
H28   H     H_    0.384846 0.870015 0.447529 0.118268
H29   H     H_    0.078559 0.201025 0.436303 0.103183
H30   H     H_    0.748494 0.800257 0.571983 0.080240
H31   H     H_    0.650829 0.344289 0.516048 0.052581
H32   H     H_    0.291581 0.989054 0.447674 0.066391
H33   H     H_    0.182888 0.085762 0.436690 0.061931
H34   H     H_    0.671670 0.921423 0.582134 0.056740
H35   H     H_    0.881690 0.276910 0.590814 -0.006726
H36   H     H_    0.549714 0.997758 0.549018 0.078888
H37   H     H_    0.429433 0.467447 0.276264 0.100607
H38   H     H_    0.408209 0.318294 0.105374 0.116825
H39   H     H_    0.842978 0.471149 0.754054 0.107215
H40   H     H_    0.646853 0.327213 0.869020 0.120700
H41   H     H_    0.577923 0.324598 0.953171 0.069507
H42   H     H_    0.479340 0.317303 0.020999 0.066721
H43   H     H_    0.938446 0.510641 0.239086 0.096025
H44   H     H_    0.259012 0.662306 0.966801 0.074297
H45   H     H_    0.070692 0.171316 0.598381 0.097554
H46   H     H_    0.332324 0.661203 0.882419 0.126935
H47   H     H_    0.357121 0.520902 0.714201 0.126907
H48   H     H_    0.234317 0.667702 0.043506 0.106423
H49   H     H_    0.117713 0.499381 0.394867 0.122926
H50   H     H_    0.650999 0.447709 0.599240 0.065274
H51   H     H_    0.084467 0.205794 0.665595 0.136704
H52   H     H_    0.720186 0.624412 0.621559 -0.049621
N1    N     N_R   0.220540 0.490272 0.198636 -0.433179
N2    N     N_R   0.558630 0.494792 0.793898 -0.424518
O1    O     O_2   0.106080 0.324280 0.466820 -0.483932
O2    O     O_3   0.395053 0.652631 0.633577 -0.658111
O3    O     O_3   0.942415 0.329569 0.662696 -0.621804
O4    O     O_2   0.704230 0.675760 0.533200 -0.506805
O5    O     O_3   0.951180 0.586390 0.529420 -0.415010
O6    O     O_3   0.434080 0.629720 0.443130 -0.485737
O7    O     O_3   0.913651 0.686359 0.613138 -0.544413
O8    O     O_3   0.351080 0.462080 0.440130 -0.475314
O9    O     O_3   0.839200 0.593040 0.416790 -0.474637
O10   O     O_2   0.691037 0.551078 0.328453 -0.501919
O11   O     O_3   0.872537 0.656295 0.319098 -0.622351
O12   O     O_3   0.859130 0.413620 0.470620 -0.422121
O13   O     O_3   0.459240 0.537930 0.559910 -0.468461
O14   O     O_2   0.583120 0.462390 0.379940 -0.404280
O15   O     O_3   0.428896 0.339151 0.367135 -0.661227
O16   O     O_2   0.562082 0.757906 0.482891 -0.505365
O17   O     O_3   0.438402 0.749793 0.391635 -0.637442
O18   O     O_2   0.302062 0.374169 0.187970 -0.602967
O19   O     O_2   0.658969 0.382399 0.792184 -0.614397
O20   O     O_2   0.144193 0.606549 0.204824 -0.544215
O21   O     O_2   0.455951 0.607520 0.801653 -0.589477
O22   O     O_3   0.376230 0.370290 0.556910 -0.484904
O23   O     O_2   0.265996 0.247611 0.519527 -0.514052
O24   O     O_3   0.892327 0.294813 0.388593 -0.678338
O25   O     O_3   0.354601 0.260286 0.615918 -0.621544
O26   O     O_2   0.227190 0.537650 0.620070 -0.397771
O27   O     O_3   0.971110 0.406970 0.583250 -0.491307
O28   O     O_2   0.115014 0.444432 0.671211 -0.512082
P1    P     P_3+3 0.929380 0.335110 0.452880 1.045397
P2    P     P_3+3 0.398530 0.559060 0.613740 1.092416
P3    P     P_3+3 0.953696 0.416936 0.648425 0.932998
P4    P     P_3+3 0.880940 0.664900 0.547160 1.091894
P5    P     P_3+3 0.855221 0.577762 0.348962 0.963679
P6    P     P_3+3 0.401363 0.278844 0.555932 0.884210
P7    P     P_3+3 0.410145 0.433199 0.378146 0.954017
P8    P     P_3+3 0.419274 0.724351 0.451069 0.911305
C79   C     C_3   0.077821 0.324809 0.331507 -0.167491
C80   C     C_3   0.139176 0.246534 0.323433 -0.408006
H53   H     H_    0.150781 0.227076 0.360042 0.123289
H54   H     H_    0.065334 0.208852 0.297370 0.119847
H55   H     H_    0.257037 0.244054 0.306694 0.153939
H56   H     H_    0.088986 0.347424 0.296232 0.063784
H57   H     H_    0.153828 0.353374 0.361560 0.110431
F1    F     F_    0.895109 0.409906 0.375314 -0.744508
C81   C     C_3   0.783634 0.259985 0.269424 -0.280436
C82   C     C_3   0.742084 0.192076 0.289513 -0.405382
H58   H     H_    0.757649 0.144463 0.259238 0.127343
H59   H     H_    0.817755 0.184334 0.322691 0.153795
H60   H     H_    0.617106 0.195254 0.300316 0.142107
H61   H     H_    0.896046 0.253495 0.249388 0.126553
H62   H     H_    0.692647 0.267587 0.239911 0.142043
F2    F     F_    0.201659 0.651786 0.573571 -0.724147
F3    F     F_    0.177309 0.762561 0.657470 -0.681781
C83   C     C_3   0.589534 0.304360 0.665644 -0.159377
C84   C     C_3   0.638267 0.233435 0.682661 -0.334025
H63   H     H_    0.565432 0.221169 0.713346 0.121911
H64   H     H_    0.632798 0.188640 0.649986 0.114236
H65   H     H_    0.760134 0.237655 0.698665 0.160846
H66   H     H_    0.652045 0.309601 0.631108 0.049718
H67   H     H_    0.628809 0.348951 0.695384 0.133696
C85   C     C_3   0.123183 0.713700 0.352136 -0.215822
C86   C     C_3   0.180076 0.641680 0.360479 -0.324983
H68   H     H_    0.126202 0.627079 0.394082 0.053270
H69   H     H_    0.159140 0.607310 0.323905 0.111204
H70   H     H_    0.304496 0.635142 0.365793 0.120715
H71   H     H_    0.180326 0.724912 0.317992 0.117055
H72   H     H_    0.161140 0.755775 0.383597 0.096793
C87   C     C_3   0.767541 0.838955 0.338218 -0.223852
C88   C     C_3   0.768482 0.870631 0.394780 -0.413762
H73   H     H_    0.876654 0.901957 0.405277 0.129293
H74   H     H_    0.665366 0.907618 0.402910 0.132440
H75   H     H_    0.762178 0.828541 0.418689 0.145805
H76   H     H_    0.769616 0.885564 0.317903 0.113027
H77   H     H_    0.655594 0.813224 0.326131 0.130437
C89   C     C_3   0.933652 0.777632 0.263724 -0.154922
C90   C     C_3   0.801599 0.739208 0.230556 -0.299383
H78   H     H_    0.822105 0.742605 0.190369 0.152679
H79   H     H_    0.802076 0.681279 0.233160 0.177692
H80   H     H_    0.685713 0.765124 0.240206 0.096081
H81   H     H_    0.945951 0.831220 0.252459 0.090787
H82   H     H_    0.044860 0.747883 0.253162 0.170647
C91   C     C_3   0.384674 0.107274 0.560455 -0.179258
C92   C     C_3   0.366123 0.093556 0.614829 -0.414851
H83   H     H_    0.385176 0.142909 0.642905 0.169222
H84   H     H_    0.244681 0.075718 0.619032 0.122081
H85   H     H_    0.448113 0.050944 0.624433 0.122787
H86   H     H_    0.307682 0.150717 0.554312 0.172690
H87   H     H_    0.327803 0.062048 0.534904 0.087190
F4    F     F_    0.153317 0.678269 0.133213 -0.681601
C93   C     C_3   0.687137 0.736106 0.659139 -0.205526
C94   C     C_3   0.776394 0.803828 0.682937 -0.353159
H88   H     H_    0.693538 0.850786 0.687632 0.105640
H89   H     H_    0.872369 0.814848 0.658562 0.188528
H90   H     H_    0.826059 0.798621 0.720956 0.142562
H91   H     H_    0.621244 0.747796 0.625313 0.051552
H92   H     H_    0.600943 0.724638 0.686737 0.125543

loop_
_geom_bond_atom_site_label_1
_geom_bond_atom_site_label_2
_ccdc_geom_bond_type
C18   P8    S    
C88   H73   S    
C57   H40   S    
C77   F2    S    
C6    C87   S    
O5    P4    S    
C32   C35   A    
Ba1   O27   S    
C60   C75   A    
C53   C54   A    
O2    P2    S    
C76   H48   S    
C93   C94   S    
C15   C18   A    
C77   H7    S    
C5    C6    S    
C43   C44   S    
C82   H58   S    
C92   H85   S    
C13   C17   A    
C77   O2    S    
C88   H74   S    
O7    P4    S    
C60   C61   A    
O17   P8    S    
C5    H19   S    
C10   C26   A    
O15   P7    S    
Ba2   O5    S    
O26   P2    D    
C8    H23   S    
C35   C36   A    
C49   C73   A    
C32   C33   A    
C11   H32   S    
O13   P2    S    
C34   H52   S    
C28   H34   S    
C3    C4    S    
C41   C50   S    
C55   C57   A    
C2    O25   S    
O22   P6    S    
Ba2   O14   S    
C12   H35   S    
C9    C22   A    
C86   H68   S    
C94   H90   S    
C3    O15   S    
O25   P6    S    
C38   O18   D    
C34   C45   S    
C1    H11   S    
Ba1   Ba2   S    
C40   C44   D    
C45   H2    S    
C78   H9    S    
C84   H64   S    
C23   H45   S    
C42   P7    S    
Ba1   O8    S    
C94   H89   S    
C91   H86   S    
C9    C13   A    
C65   P2    S    
C24   C32   A    
C12   H25   S    
C52   C69   A    
Ba1   P2    S    
C25   C37   A    
C14   C15   A    
C4    H14   S    
C15   C16   A    
C71   C76   A    
C20   P4    S    
C45   H3    S    
C33   C91   S    
Ba2   P4    S    
Ba1   O5    S    
C80   H55   S    
C17   C29   A    
C42   C50   D    
C73   F4    S    
C57   C58   A    
C87   H77   S    
C19   C20   A    
Ba2   O9    S    
Ba1   O12   S    
C84   H63   S    
C46   C70   A    
C86   H70   S    
C51   C65   D    
C10   H33   S    
O23   P6    D    
C39   N1    Am   
C80   H54   S    
C40   H43   S    
O14   P7    D    
C35   P6    S    
C52   C54   A    
C46   C49   A    
C36   C37   A    
C88   H75   S    
C62   N2    Am   
C87   C88   S    
C2    H1    S    
O10   P5    D    
C16   C21   A    
Ba2   O4    S    
C61   N2    Am   
C27   H30   S    
C74   C75   A    
C86   H69   S    
C56   O24   S    
C16   C17   A    
Ba2   O13   S    
C62   O19   D    
C65   C66   D    
C26   H29   S    
C58   C59   A    
C74   H44   S    
C63   C68   D    
Ba1   O22   S    
C34   O7    S    
C22   C30   A    
C27   C28   A    
C93   H92   S    
O28   P3    D    
C1    H17   S    
C29   C30   A    
C66   H47   S    
C12   O3    S    
C28   C29   A    
C94   H88   S    
C63   H39   S    
C56   F1    S    
C89   H82   S    
C45   H4    S    
C91   C92   S    
C79   H56   S    
C51   C64   S    
C79   C80   S    
O9    P5    S    
C7    H22   S    
O24   P1    S    
O8    P7    S    
C81   H62   S    
C53   C74   A    
C66   C68   S    
C46   C47   A    
C19   H27   S    
C83   H66   S    
C39   O20   D    
C90   H79   S    
C87   H76   S    
C11   C13   A    
C24   C25   A    
O3    P3    S    
Ba2   O8    S    
C47   C48   A    
C77   C78   S    
C8    H26   S    
Ba2   O12   S    
C40   C41   S    
C50   H49   S    
C5    C85   S    
C1    C2    S    
C83   H67   S    
C21   C27   A    
C67   H5    S    
C80   H53   S    
C81   H61   S    
O11   P5    S    
C38   N1    Am   
C43   H37   S    
C34   C93   S    
C7    O17   S    
C31   H36   S    
O6    P8    S    
C82   H59   S    
C64   P3    S    
C72   H42   S    
C1    H8    S    
C48   H38   S    
O1    P1    D    
Ba1   O26   S    
C79   H57   S    
C42   C43   D    
C89   H81   S    
C22   C24   A    
C70   C71   A    
C69   C72   A    
C3    H13   S    
C9    C10   A    
C82   H60   S    
C56   C67   S    
C85   H72   S    
C41   P5    S    
C81   C82   S    
C92   H84   S    
C90   H80   S    
O12   P1    S    
C4    H16   S    
C89   C90   S    
C67   H6    S    
O4    P4    D    
C58   C62   A    
Ba2   O6    S    
C30   C31   A    
C2    C83   S    
C48   C72   A    
C56   C79   S    
C6    H20   S    
C61   O21   D    
C69   C70   A    
C63   C64   S    
Ba1   O1    S    
C84   H65   S    
C67   C81   S    
C44   N1    S    
C38   C47   A    
O16   P8    D    
C92   H83   S    
C8    H24   S    
C31   C33   A    
C78   F3    S    
C7    C8    S    
C20   C21   A    
C90   H78   S    
C12   C23   S    
C78   H10   S    
C59   C60   A    
C85   H71   S    
C73   C76   A    
C91   H87   S    
C3    H12   S    
Ba1   O13   S    
C14   H28   S    
C55   H41   S    
C85   C86   S    
C53   C71   A    
C23   H18   S    
C18   C19   A    
Ba1   P1    S    
C7    H21   S    
C4    H15   S    
C11   C14   A    
C25   C26   A    
C68   N2    S    
C54   C59   A    
C83   C84   S    
C51   H50   S    
C36   H31   S    
C93   H91   S    
C37   P1    S    
C39   C49   A    
O27   P3    S    
C75   H46   S    
C6    C89   S    
C5    O11   S    
C52   C55   A    
C23   H51   S    
