data_mof_unit_66340.cif
_audit_creation_date              2012-12-10T17:33:59-0500
_audit_creation_method            fapswitch 2.2
_symmetry_space_group_name_H-M    P1
_symmetry_Int_Tables_number       1
_space_group_crystal_system       triclinic
_cell_length_a                    15.474938
_cell_length_b                    15.52596
_cell_length_c                    16.056782
_cell_angle_alpha                 77.906898
_cell_angle_beta                  97.746932
_cell_angle_gamma                 111.670346
_cell_volume                      3498.62567534

loop_
_atom_site_label
_atom_site_type_symbol
_atom_type_description
_atom_site_fract_x
_atom_site_fract_y
_atom_site_fract_z
_atom_type_partial_charge
C1    C     C_R   0.747143 0.541967 0.534030 0.871056
C2    C     C_R   0.033301 0.515255 0.459949 0.033544
C3    C     C_R   0.107273 0.482305 0.493868 0.045279
C4    C     C_R   0.252285 0.459662 0.465648 0.830591
C5    C     C_R   0.983912 0.536173 0.517183 0.078496
C6    C     C_R   0.020284 0.542646 0.602548 0.011605
C7    C     C_R   0.094797 0.512414 0.633872 -0.174896
C8    C     C_R   0.133249 0.477078 0.581959 -0.142593
C9    C     C_R   0.893839 0.538959 0.495350 -0.246950
C10   C     C_R   0.889259 0.579520 0.632269 0.072463
C11   C     C_R   0.155319 0.456872 0.439288 -0.179506
C12   C     C_1   0.531374 0.513947 0.114694 0.089079
C13   C     C_R   0.319736 0.991457 0.556777 -0.249024
C14   C     C_R   0.434539 0.148760 0.541620 -0.138080
C15   C     C_R   0.664932 0.906702 0.460716 -0.170089
C16   C     C_R   0.452563 0.248613 0.533763 0.912453
C17   C     C_R   0.696369 0.994410 0.484576 -0.134722
C18   C     C_R   0.632895 0.030260 0.503538 -0.109439
C19   C     C_R   0.536089 0.984239 0.489236 0.091070
C20   C     C_R   0.503224 0.893770 0.465850 -0.023796
C21   C     C_R   0.471248 0.022351 0.505414 0.010205
C22   C     C_R   0.378305 0.960902 0.520053 -0.020577
C23   C     C_1   0.472665 0.480354 0.886751 -0.123097
C24   C     C_R   0.344637 0.873241 0.492217 0.143730
C25   C     C_R   0.405635 0.845980 0.455078 0.130790
C26   C     C_R   0.494715 0.119459 0.506058 0.020997
C27   C     C_R   0.347932 0.084762 0.568611 0.424386
C28   C     C_R   0.544468 0.751158 0.465763 0.830109
C29   C     C_R   0.569388 0.853086 0.457457 -0.049494
C30   C     C_R   0.485483 0.485218 0.723783 0.829508
C31   C     C_R   0.514703 0.514271 0.275789 0.849644
C32   C     C_1   0.479821 0.480770 0.812906 -0.098086
C33   C     C_2   0.462139 0.482513 0.974954 0.447763
C34   C     C_1   0.523854 0.515315 0.188018 -0.087831
C35   C     C_2   0.539243 0.510584 0.027099 0.066631
C36   C     C_3   0.213892 0.118567 0.545375 0.110638
C37   C     C_3   0.168817 0.180393 0.571010 -0.786391
C38   C     C_3   0.301091 0.446015 0.945080 0.085540
C39   C     C_3   0.211669 0.427276 0.986596 -0.712324
C40   C     C_3   0.082052 0.674128 0.736398 0.085621
C41   C     C_3   0.123347 0.687191 0.826313 -0.728054
C42   C     C_R   0.976838 0.572109 0.657399 0.432993
C43   C     C_R   0.846493 0.559332 0.552182 -0.137430
C44   C     C_R   0.117967 0.448262 0.354356 0.098368
C45   C     C_R   0.048042 0.485912 0.319768 0.153503
C46   C     C_R   0.013869 0.528792 0.370173 0.090105
H1    H     H_    0.183964 0.445632 0.612047 0.144780
H2    H     H_    0.220374 0.252687 0.570752 0.237147
H3    H     H_    0.109230 0.184001 0.525148 0.215771
H4    H     H_    0.143073 0.150796 0.635956 0.257865
H5    H     H_    0.291281 0.385310 0.913644 0.154825
H6    H     H_    0.313934 0.511524 0.896545 0.143807
H7    H     H_    0.219053 0.487073 0.018111 0.268153
H8    H     H_    0.152811 0.418946 0.937346 0.207452
H9    H     H_    0.196134 0.361843 0.035036 0.273646
H10   H     H_    0.050453 0.728998 0.710491 0.168129
H11   H     H_    0.139761 0.684286 0.696517 0.157396
H12   H     H_    0.251291 0.944511 0.575304 0.178728
H13   H     H_    0.067779 0.678991 0.867647 0.281385
H14   H     H_    0.156407 0.634012 0.853471 0.246216
H15   H     H_    0.176915 0.758637 0.824812 0.210406
H16   H     H_    0.716153 0.876848 0.453577 0.167636
H17   H     H_    0.660485 0.092351 0.532860 0.166468
H18   H     H_    0.770414 0.031986 0.493877 0.156154
H19   H     H_    0.120042 0.510429 0.700294 0.177127
H20   H     H_    0.855875 0.515751 0.437675 0.183722
H21   H     H_    0.161013 0.046684 0.546373 0.155302
H22   H     H_    0.235914 0.149016 0.478909 0.166574
I1    I     I_    0.676574 0.552113 0.987179 -0.237137
I2    I     I_    0.200435 0.785029 0.498380 -0.364042
I3    I     I_    0.599086 0.226106 0.426332 -0.348573
I4    I     I_    0.347813 0.749876 0.365930 -0.253494
I5    I     I_    0.820287 0.614769 0.719395 -0.260654
I6    I     I_    0.170025 0.386564 0.273485 -0.243975
I7    I     I_    0.962223 0.638237 0.305659 -0.215528
I8    I     I_    0.995603 0.482697 0.189326 -0.188043
O1    O     O_3   0.500000 0.500000 0.500000 -0.503849
O2    O     O_R   0.531650 0.442400 0.698530 -0.613877
O3    O     O_R   0.575100 0.575080 0.315570 -0.627065
O4    O     O_R   0.444210 0.533510 0.670310 -0.650337
O5    O     O_R   0.449040 0.449000 0.315590 -0.607543
O6    O     O_3   0.289950 0.115367 0.604033 -0.620363
O7    O     O_3   0.375253 0.456323 0.008479 -0.601610
O8    O     O_3   0.014212 0.583008 0.739418 -0.590891
O9    O     O_R   0.412970 0.287310 0.471540 -0.640911
O10   O     O_R   0.593360 0.719010 0.431760 -0.640387
O11   O     O_R   0.690770 0.475890 0.582290 -0.613899
O12   O     O_R   0.302900 0.517790 0.514410 -0.624721
O13   O     O_R   0.716410 0.590800 0.471470 -0.629159
O14   O     O_R   0.289920 0.415510 0.431830 -0.618896
O15   O     O_R   0.513390 0.298480 0.582330 -0.623903
O16   O     O_R   0.480280 0.695210 0.514370 -0.617385
Zn1   Zn    Zn3+2 0.414470 0.414440 0.430940 1.028774
Zn2   Zn    Zn3+2 0.557950 0.430400 0.589240 1.032501
Zn3   Zn    Zn3+2 0.433010 0.560580 0.548920 0.997982
Zn4   Zn    Zn3+2 0.594570 0.594580 0.430900 1.024513

loop_
_geom_bond_atom_site_label_1
_geom_bond_atom_site_label_2
_ccdc_geom_bond_type
C1    O11   A    
C30   C32   S    
C21   C26   A    
C38   O7    S    
C10   C42   A    
C40   O8    S    
C19   C20   A    
C41   H15   S    
C36   H21   S    
C24   I2    S    
C7    C8    A    
C39   H7    S    
C45   C46   A    
C2    C46   A    
C45   I8    S    
C36   C37   S    
C19   C21   A    
C17   H18   S    
C38   C39   S    
C10   I5    S    
C18   H17   S    
C39   H8    S    
C38   H6    S    
C20   C25   A    
O11   Zn2   S    
O1    Zn2   S    
O5    Zn1   S    
C18   C19   A    
C9    H20   S    
O9    Zn1   S    
C1    C43   S    
C39   H9    S    
C36   O6    S    
C23   C33   S    
C14   C27   A    
C30   O4    A    
O12   Zn3   S    
C21   C22   A    
C26   I3    S    
C46   I7    S    
C15   C29   A    
C4    O14   A    
C20   C29   A    
C12   C35   S    
C9    C43   A    
C42   O8    S    
C24   C25   A    
C41   H13   S    
C3    C8    A    
C13   H12   S    
C40   H10   S    
O1    Zn3   S    
O16   Zn3   S    
O4    Zn3   S    
C5    C9    A    
C7    H19   S    
C37   H3    S    
C17   C18   A    
C31   C34   S    
C11   C44   A    
C28   O16   A    
C25   I4    S    
C14   C26   A    
C4    C11   S    
C44   I6    S    
C33   O7    S    
O10   Zn4   S    
C4    O12   A    
C40   C41   S    
C28   O10   A    
C16   O9    A    
C14   C16   S    
C2    C5    A    
C12   C34   T    
C44   C45   A    
O14   Zn1   S    
C15   C17   A    
C28   C29   S    
C1    O13   A    
C40   H11   S    
C10   C43   A    
C27   O6    S    
C41   H14   S    
C36   H22   S    
C31   O3    A    
C6    C7    A    
C38   H5    S    
O1    Zn4   S    
C31   O5    A    
C23   C32   T    
O13   Zn4   S    
C2    C3    A    
C8    H1    S    
O3    Zn4   S    
O15   Zn2   S    
C37   H2    S    
C37   H4    S    
C5    C6    A    
O2    Zn2   S    
O1    Zn1   S    
C33   C35   D    
C15   H16   S    
C13   C22   A    
C22   C24   A    
C3    C11   A    
C30   O2    A    
C35   I1    S    
C16   O15   A    
C6    C42   A    
C13   C27   A    
