data_mof_unit_28079.cif
_audit_creation_date              2012-12-11T14:21:24-0500
_audit_creation_method            fapswitch 2.2
_symmetry_space_group_name_H-M    P1
_symmetry_Int_Tables_number       1
_space_group_crystal_system       triclinic
_cell_length_a                    11.543264
_cell_length_b                    11.510422
_cell_length_c                    19.506039
_cell_angle_alpha                 90.590312
_cell_angle_beta                  90.09835
_cell_angle_gamma                 59.731425
_cell_volume                      2238.26396704

loop_
_atom_site_label
_atom_site_type_symbol
_atom_type_description
_atom_site_fract_x
_atom_site_fract_y
_atom_site_fract_z
_atom_type_partial_charge
C1    C     C_R   0.640681 0.117991 0.599081 0.536469
C2    C     C_1   0.652880 0.150559 0.668487 0.002110
C3    C     C_R   0.648638 0.672165 0.194182 -0.003819
C4    C     C_R   0.613880 0.743373 0.597899 0.535469
C5    C     C_R   0.552319 0.658602 0.234405 0.035868
C6    C     C_R   0.578444 0.630883 0.304022 0.027282
C7    C     C_R   0.740121 0.707246 0.296997 -0.138637
C8    C     C_R   0.740812 0.698158 0.226397 -0.148805
C9    C     C_R   0.433699 0.667267 0.207766 -0.093776
C10   C     C_R   0.361421 0.622749 0.245513 -0.154010
C11   C     C_R   0.399880 0.577267 0.311878 -0.128870
C12   C     C_1   0.651807 0.683199 0.664031 0.000851
C13   C     C_R   0.509046 0.579241 0.340918 -0.076890
C14   C     C_R   0.660008 0.672908 0.336412 -0.008907
C15   C     C_R   0.150440 0.207777 0.192386 0.001019
C16   C     C_R   0.298185 0.120082 0.605369 0.558229
C17   C     C_R   0.126348 0.316235 0.237784 0.039934
C18   C     C_R   0.119560 0.298101 0.308361 0.026330
C19   C     C_R   0.236117 0.056213 0.287427 -0.139259
C20   C     C_R   0.212135 0.077495 0.217545 -0.164096
C21   C     C_R   0.113031 0.440183 0.216448 -0.084756
C22   C     C_R   0.075082 0.546731 0.262652 -0.148904
C23   C     C_1   0.146803 0.188055 0.863219 0.001916
C24   C     C_R   0.047447 0.533520 0.330386 -0.124583
C25   C     C_R   0.064227 0.411775 0.352671 -0.081490
C26   C     C_R   0.184086 0.165578 0.333578 0.000725
C27   C     C_R   0.724640 0.213925 0.207738 0.001384
C28   C     C_R   0.647168 0.116035 0.404541 0.538590
C29   C     C_R   0.834166 0.119047 0.249324 0.026727
C30   C     C_R   0.811158 0.109247 0.319652 0.025980
C31   C     C_R   0.572233 0.257245 0.301973 -0.153614
C32   C     C_R   0.595710 0.283839 0.235981 -0.140290
C33   C     C_R   0.964500 0.027575 0.223812 -0.100445
C34   C     C_1   0.227596 0.144914 0.735619 -0.031131
C35   C     C_R   0.063548 0.932892 0.265989 -0.145574
C36   C     C_R   0.045086 0.939430 0.336182 -0.118208
C37   C     C_R   0.921204 0.031778 0.363340 -0.089706
C38   C     C_R   0.678447 0.168338 0.343612 -0.008245
C39   C     C_R   0.084517 0.229467 0.929328 0.542084
C40   C     C_R   0.620104 0.734085 0.403909 0.532821
C41   C     C_R   0.709104 0.546175 0.922619 0.558710
C42   C     C_R   0.707940 0.206252 0.930271 0.552620
C43   C     C_R   0.086398 0.236406 0.124715 0.536526
C44   C     C_R   0.679147 0.615166 0.125053 0.546017
C45   C     C_1   0.187974 0.163967 0.805096 -0.028575
C46   C     C_R   0.741985 0.235313 0.134844 0.556366
C47   C     C_R   0.241586 0.141523 0.402045 0.541245
C48   C     C_1   0.698822 0.580917 0.851735 0.001494
C49   C     C_1   0.673205 0.644496 0.722253 -0.029354
C50   C     C_1   0.689261 0.608557 0.791878 -0.031116
C51   C     C_1   0.258844 0.132951 0.675962 0.001493
C52   C     C_1   0.678183 0.190924 0.860892 0.000713
C53   C     C_1   0.658215 0.167937 0.728980 -0.032060
C54   C     C_1   0.665217 0.181029 0.800358 -0.032346
Cr1   Cr    Cr6+3 0.404720 0.198220 0.499960 1.015424
Cr2   Cr    Cr6+3 0.698290 0.897110 0.500380 1.012081
Cr3   Cr    Cr6+3 0.396970 0.904720 0.499610 1.017145
Cr4   Cr    Cr6+3 0.926180 0.151990 0.028120 1.007535
Cr5   Cr    Cr6+3 0.921330 0.451820 0.027470 1.020480
Cr6   Cr    Cr6+3 0.626260 0.446870 0.028710 1.017606
H1    H     H_    0.797603 0.747563 0.320390 0.150606
H2    H     H_    0.910994 0.038102 0.418577 0.133929
H3    H     H_    0.394390 0.710035 0.158097 0.133926
H4    H     H_    0.275081 0.624187 0.223068 0.101985
H5    H     H_    0.535836 0.545582 0.393236 0.124766
H6    H     H_    0.294741 0.953788 0.305436 0.149146
H7    H     H_    0.140029 0.454609 0.165626 0.143143
H8    H     H_    0.240986 0.992690 0.183159 0.110450
H9    H     H_    0.811618 0.713156 0.196947 0.136199
H10   H     H_    0.343479 0.543137 0.341303 0.115821
H11   H     H_    0.064617 0.640703 0.245596 0.106685
H12   H     H_    0.015486 0.616851 0.366095 0.113485
H13   H     H_    0.042596 0.404354 0.405926 0.128285
H14   H     H_    0.469236 0.301278 0.319115 0.145149
H15   H     H_    0.995835 0.022094 0.171830 0.170329
H16   H     H_    0.510516 0.351786 0.205223 0.150624
H17   H     H_    0.159483 0.862488 0.244281 0.110776
H18   H     H_    0.126899 0.873787 0.369440 0.123297
O1    O     O_R   0.267740 0.231960 0.575440 -0.505174
O2    O     O_R   0.596130 0.579390 0.952730 -0.501721
O3    O     O_R   0.639060 0.321160 0.958670 -0.504189
O4    O     O_R   0.527280 0.186640 0.570530 -0.511281
O5    O     O_R   0.821240 0.124200 0.104370 -0.529002
O6    O     O_R   0.036890 0.167040 0.097840 -0.529042
O7    O     O_R   0.056180 0.349610 0.102880 -0.526665
O8    O     O_R   0.797660 0.564870 0.097950 -0.491225
O9    O     O_R   0.595880 0.584250 0.104270 -0.531742
O10   O     O_R   0.638830 0.325670 0.099150 -0.493977
O11   O     O_3   0.824590 0.350230 0.028100 -0.284828
O12   O     O_R   0.685970 0.784660 0.430010 -0.504507
O13   O     O_R   0.728090 0.003450 0.576380 -0.506508
O14   O     O_R   0.682970 0.789190 0.570490 -0.495081
O15   O     O_R   0.499290 0.771880 0.575530 -0.513948
O16   O     O_R   0.285330 0.030870 0.569730 -0.490475
O17   O     O_R   0.270980 0.227080 0.423890 -0.517023
O18   O     O_R   0.530280 0.182120 0.430050 -0.502385
O19   O     O_R   0.731330 0.998570 0.424830 -0.523469
O20   O     O_R   0.502530 0.767000 0.423990 -0.520943
O21   O     O_R   0.288330 0.026350 0.429250 -0.498185
O22   O     O_3   0.499990 0.000020 0.499980 -0.262051
O23   O     O_R   0.821500 0.119340 0.952830 -0.496745
O24   O     O_R   0.037130 0.162530 0.957360 -0.494326
O25   O     O_R   0.056440 0.344740 0.951340 -0.509717
O26   O     O_R   0.797900 0.560360 0.957470 -0.486162

loop_
_geom_bond_atom_site_label_1
_geom_bond_atom_site_label_2
_ccdc_geom_bond_type
C28   O19   A    
C23   C45   T    
C27   C29   A    
C19   C20   A    
C18   C26   A    
C16   C51   S    
C41   O2    A    
C12   C49   T    
Cr6   O10   S    
C11   H10   S    
C7    C8    A    
C13   H5    S    
C53   C54   S    
C42   O3    A    
C34   C51   T    
Cr5   O26   S    
C36   C37   A    
C40   O20   A    
C5    C6    A    
Cr3   O21   S    
C29   C33   A    
C47   O21   A    
C30   C38   A    
C19   H6    S    
C1    C2    S    
Cr5   O11   S    
C19   C26   A    
C7    H1    S    
C33   H15   S    
Cr2   O13   S    
C35   C36   A    
Cr1   O22   S    
Cr4   O24   S    
C4    C12   S    
C44   O9    A    
C9    C10   A    
Cr2   O12   S    
C1    O13   A    
Cr3   O15   S    
C21   C22   A    
C21   H7    S    
C43   O6    A    
C18   C25   A    
Cr2   O19   S    
C44   O8    A    
Cr6   O9    S    
C52   C54   T    
C37   H2    S    
C46   O10   A    
C7    C14   A    
C15   C20   A    
C3    C44   S    
C43   O7    A    
C24   C25   A    
Cr1   O17   S    
C3    C8    A    
Cr4   O23   S    
C31   H14   S    
C1    O4    A    
Cr6   O11   S    
Cr3   O22   S    
C35   H17   S    
C17   C21   A    
C46   O5    A    
C30   C37   A    
Cr5   O7    S    
C5    C9    A    
C29   C30   A    
Cr4   O6    S    
C6    C14   A    
Cr1   O1    S    
Cr6   O3    S    
C31   C32   A    
C28   C38   S    
C17   C18   A    
C8    H9    S    
C34   C45   S    
Cr1   O4    S    
C26   C47   S    
C27   C46   S    
Cr3   O16   S    
C22   C24   A    
Cr2   O22   S    
C42   O23   A    
C22   H11   S    
C24   H12   S    
C39   O24   A    
C15   C17   A    
Cr6   O2    S    
C27   C32   A    
C9    H3    S    
C20   H8    S    
C10   H4    S    
Cr1   O18   S    
C3    C5    A    
C2    C53   T    
C32   H16   S    
C31   C38   A    
C39   O25   A    
C16   O16   A    
C41   O26   A    
C28   O18   A    
C16   O1    A    
Cr5   O25   S    
Cr5   O8    S    
C15   C43   S    
C36   H18   S    
Cr4   O5    S    
C6    C13   A    
C11   C13   A    
C23   C39   S    
Cr3   O20   S    
C48   C50   T    
C33   C35   A    
C41   C48   S    
C25   H13   S    
Cr4   O11   S    
C10   C11   A    
C14   C40   S    
C4    O15   A    
Cr2   O14   S    
C49   C50   S    
C47   O17   A    
C40   O12   A    
C42   C52   S    
C4    O14   A    
