data_mof_unit_42639.cif
_audit_creation_date              2012-10-26T20:17:14-0400
_audit_creation_method            fapswitch 2.2
_symmetry_space_group_name_H-M    P1
_symmetry_Int_Tables_number       1
_space_group_crystal_system       triclinic
_cell_length_a                    10.669233
_cell_length_b                    11.001724
_cell_length_c                    9.790941
_cell_angle_alpha                 109.457906
_cell_angle_beta                  98.49913
_cell_angle_gamma                 91.273444
_cell_volume                      1068.57073196

loop_
_atom_site_label
_atom_site_type_symbol
_atom_type_description
_atom_site_fract_x
_atom_site_fract_y
_atom_site_fract_z
_atom_type_partial_charge
C1    C     C_R   0.485594 0.254389 0.444234 0.582759
C2    C     C_3   0.123587 0.501569 0.501642 0.042215
C3    C     C_3   0.975907 0.522488 0.637483 -0.177959
C4    C     C_3   0.024060 0.480931 0.362484 -0.175710
C5    C     C_2   0.464820 0.116622 0.422540 -0.084287
C6    C     C_2   0.502076 0.881701 0.582944 -0.083973
C7    C     C_2   0.441915 0.071846 0.530938 0.026863
C8    C     C_2   0.423446 0.932115 0.498290 0.011919
C9    C     C_2   0.509646 0.511876 0.081254 -0.006746
C10   C     C_2   0.485926 0.493466 0.920313 -0.015850
C11   C     C_2   0.886870 0.257556 0.308128 0.224907
C12   C     C_R   0.503729 0.744653 0.556766 0.573080
C13   C     C_2   0.113619 0.745781 0.691270 0.236687
C14   C     C_2   0.089348 0.301051 0.600076 0.235923
C15   C     C_2   0.909822 0.701969 0.398976 0.210923
C16   C     C_2   0.314728 0.856063 0.385536 0.275067
C17   C     C_2   0.444081 0.153183 0.687492 0.286679
C18   C     C_R   0.259703 0.500520 0.500801 0.614581
C19   C     C_R   0.740299 0.500953 0.499394 0.628034
C20   C     C_3   0.044408 0.408015 0.547257 -0.024917
C21   C     C_3   0.955285 0.595364 0.452595 -0.022542
C22   C     C_3   0.944335 0.387578 0.410108 -0.017892
C23   C     C_3   0.055627 0.615825 0.589744 -0.028522
C24   C     C_3   0.876330 0.501637 0.498352 0.044932
Cu1   Cu    Cu3+1 0.522260 0.521810 0.644920 1.021405
Cu2   Cu    Cu3+1 0.477740 0.478190 0.355080 1.033550
H1    H     H_    0.955826 0.539468 0.750211 0.130283
H2    H     H_    0.976921 0.758467 0.366725 0.136501
H3    H     H_    0.287975 0.756985 0.373429 0.132896
H4    H     H_    0.519977 0.227208 0.746268 0.114860
H5    H     H_    0.571492 0.944135 0.673434 0.103611
H6    H     H_    0.462962 0.048717 0.312155 0.149817
H7    H     H_    0.044273 0.463975 0.249811 0.130216
H8    H     H_    0.408023 0.426411 0.849742 0.185210
H9    H     H_    0.583753 0.583286 0.153133 0.184890
H10   H     H_    0.629251 0.617633 0.932061 0.217819
H11   H     H_    0.374665 0.377936 0.066705 0.233787
H12   H     H_    0.947580 0.187476 0.250082 0.131650
H13   H     H_    0.053332 0.816145 0.749673 0.128025
H14   H     H_    0.023077 0.246833 0.636149 0.122852
N1    N     N_2   0.444270 0.445410 0.137360 -0.353649
N2    N     N_2   0.555730 0.554590 0.862640 -0.358201
O1    O     O_R   0.511880 0.332340 0.577400 -0.524308
O2    O     O_2   0.227536 0.773502 0.708353 -0.473348
O3    O     O_2   0.199454 0.273700 0.601730 -0.473562
O4    O     O_2   0.798537 0.726232 0.391858 -0.514151
O5    O     O_2   0.250340 0.905614 0.307576 -0.499020
O6    O     O_2   0.364542 0.130614 0.755391 -0.458284
O7    O     O_R   0.488120 0.667660 0.422600 -0.516180
O8    O     O_R   0.474280 0.295500 0.332650 -0.453348
O9    O     O_R   0.525720 0.704500 0.667350 -0.460565
O10   O     O_R   0.335640 0.518390 0.622350 -0.443915
O11   O     O_R   0.664360 0.481610 0.377650 -0.438628
O12   O     O_R   0.298050 0.481550 0.377590 -0.531613
O13   O     O_R   0.701950 0.518450 0.622410 -0.524402
O14   O     O_2   0.772951 0.229479 0.290224 -0.490367

loop_
_geom_bond_atom_site_label_1
_geom_bond_atom_site_label_2
_ccdc_geom_bond_type
Cu1   N2    S    
C11   H12   S    
C2    C4    S    
Cu1   O9    S    
C12   O7    A    
C4    C21   S    
H10   N2    S    
C2    C18   S    
C4    C22   S    
C1    O8    A    
C11   C22   S    
C9    N1    D    
C17   O6    D    
C15   C21   S    
C5    H6    S    
Cu1   O1    S    
C3    H1    S    
C6    H5    S    
C15   H2    S    
Cu1   O10   S    
C18   O10   A    
C3    C20   S    
C10   H8    S    
C6    C12   S    
C17   H4    S    
C19   O11   A    
C3    C24   S    
C1    C5    S    
Cu2   O12   S    
C16   O5    D    
C20   C22   S    
C19   C24   S    
C14   O3    D    
Cu2   O8    S    
C21   C23   S    
H11   N1    S    
C22   C24   S    
C21   C24   S    
C13   H13   S    
C10   N2    D    
C18   O12   A    
C14   H14   S    
Cu2   O11   S    
C14   C20   S    
C7    C8    S    
C12   O9    A    
C13   C23   S    
C16   H3    S    
C8    C16   S    
C9    C10   S    
Cu2   O7    S    
C19   O13   A    
C2    C23   S    
C5    C7    D    
C3    C23   S    
C4    H7    S    
C9    H9    S    
C6    C8    D    
C15   O4    D    
Cu1   Cu2   S    
C2    C20   S    
C1    O1    A    
C13   O2    D    
C11   O14   D    
Cu1   O13   S    
Cu2   N1    S    
C7    C17   S    
