data_mof_unit_53258.cif
_audit_creation_date              2012-10-26T19:44:58-0400
_audit_creation_method            fapswitch 2.2
_symmetry_space_group_name_H-M    P1
_symmetry_Int_Tables_number       1
_space_group_crystal_system       triclinic
_cell_length_a                    9.527992
_cell_length_b                    10.821815
_cell_length_c                    13.879591
_cell_angle_alpha                 90.283761
_cell_angle_beta                  84.528285
_cell_angle_gamma                 89.770326
_cell_volume                      1424.57395512

loop_
_atom_site_label
_atom_site_type_symbol
_atom_type_description
_atom_site_fract_x
_atom_site_fract_y
_atom_site_fract_z
_atom_type_partial_charge
C1    C     C_R   0.499744 0.737888 0.500514 0.545326
C2    C     C_R   0.933933 0.422955 0.438894 0.374323
C3    C     C_1   0.537461 0.500384 0.213609 -0.013412
C4    C     C_1   0.462600 0.500925 0.786365 -0.033897
C5    C     C_2   0.558485 0.501529 0.022915 -0.121952
C6    C     C_2   0.441683 0.501758 0.977036 -0.124716
C7    C     C_1   0.451889 0.501426 0.873301 -0.063201
C8    C     C_1   0.548229 0.500907 0.126664 -0.051019
C9    C     C_R   0.619784 0.935694 0.523532 -0.143072
C10   C     C_R   0.378563 0.064267 0.480410 -0.141191
C11   C     C_R   0.619610 0.063557 0.524137 -0.151024
C12   C     C_R   0.500012 0.262101 0.500472 0.543129
C13   C     C_R   0.378269 0.936403 0.480632 -0.132368
C14   C     C_3   0.076741 0.643992 0.721032 0.001822
C15   C     C_3   0.011418 0.767501 0.756239 -0.274822
C16   C     C_3   0.951204 0.760650 0.861971 -0.479507
C17   C     C_3   0.913465 0.227062 0.371511 -0.003400
C18   C     C_3   0.991738 0.194491 0.273146 -0.273895
C19   C     C_3   0.042153 0.060351 0.270193 -0.479564
C20   C     C_R   0.499580 0.128245 0.501568 0.019721
C21   C     C_R   0.499225 0.871727 0.501534 0.023159
C22   C     C_R   0.476913 0.500295 0.683094 0.543704
C23   C     C_R   0.523096 0.499949 0.316898 0.547677
C24   C     C_R   0.916324 0.575405 0.561197 -0.032681
C25   C     C_R   0.083868 0.425672 0.438015 -0.030774
C26   C     C_R   0.065766 0.573775 0.563411 0.370507
Cu1   Cu    Cu3+1 0.359340 0.499980 0.500000 0.985394
Cu2   Cu    Cu3+1 0.640660 0.500020 0.500000 0.988299
H1    H     H_    0.851763 0.637297 0.608126 0.116686
H2    H     H_    0.999340 0.567625 0.736042 0.099271
H3    H     H_    0.093358 0.840563 0.748549 0.175581
H4    H     H_    0.925746 0.793707 0.711280 0.151516
H5    H     H_    0.866445 0.690253 0.870866 0.149712
H6    H     H_    0.905873 0.851797 0.885533 0.150876
H7    H     H_    0.035536 0.736379 0.908678 0.147973
H8    H     H_    0.817527 0.168970 0.380915 0.162889
H9    H     H_    0.978133 0.201721 0.431522 0.090888
H10   H     H_    0.920011 0.208768 0.215494 0.175311
H11   H     H_    0.084158 0.255831 0.257835 0.155637
H12   H     H_    0.149266 0.368825 0.387630 0.118003
H13   H     H_    0.116951 0.044776 0.325676 0.143588
H14   H     H_    0.096996 0.039076 0.197779 0.151505
H15   H     H_    0.951121 0.996881 0.283714 0.153001
H16   H     H_    0.337950 0.501733 0.017082 0.130434
H17   H     H_    0.662224 0.501526 0.982860 0.129568
H18   H     H_    0.713650 0.887125 0.541027 0.123892
H19   H     H_    0.284687 0.112815 0.462907 0.118954
H20   H     H_    0.712927 0.111570 0.542718 0.118661
H21   H     H_    0.284187 0.888414 0.463400 0.140068
H22   H     H_    0.166185 0.623199 0.764256 0.163620
N1    N     N_R   0.147930 0.499970 0.499980 -0.242662
N2    N     N_R   0.852070 0.500030 0.500020 -0.242804
O1    O     O_R   0.381260 0.680340 0.500000 -0.457606
O2    O     O_3   0.868897 0.352242 0.372446 -0.530508
O3    O     O_R   0.618740 0.319660 0.500000 -0.478288
O4    O     O_R   0.618830 0.680370 0.500010 -0.521416
O5    O     O_R   0.381170 0.319630 0.499990 -0.520712
O6    O     O_R   0.364420 0.499960 0.637840 -0.465535
O7    O     O_R   0.635580 0.500040 0.362160 -0.439491
O8    O     O_R   0.601990 0.499990 0.637850 -0.511341
O9    O     O_R   0.398010 0.500010 0.362150 -0.513675
O10   O     O_3   0.131550 0.654086 0.622768 -0.536160

loop_
_geom_bond_atom_site_label_1
_geom_bond_atom_site_label_2
_ccdc_geom_bond_type
C22   O6    A    
C5    C8    S    
C18   H11   S    
Cu1   O1    S    
C1    C21   S    
C6    C7    S    
C17   H8    S    
C16   H5    S    
C9    C11   A    
C3    C23   S    
C19   H14   S    
C23   O9    A    
C12   C20   S    
C25   N1    A    
C17   C18   S    
Cu2   O4    S    
C13   C21   A    
C9    H18   S    
C25   H12   S    
C6    H16   S    
C26   N1    A    
C23   O7    A    
Cu2   N2    S    
C24   C26   A    
C9    C21   A    
C11   H20   S    
C14   H22   S    
C2    N2    A    
C14   H2    S    
C4    C7    T    
C13   H21   S    
C12   O5    A    
C17   O2    S    
C1    O4    A    
C19   H15   S    
C18   C19   S    
C2    C25   A    
C26   O10   S    
C24   N2    A    
Cu2   O8    S    
C16   H7    S    
C22   O8    A    
C5    C6    D    
Cu1   O6    S    
C2    O2    S    
C11   C20   A    
C12   O3    A    
C15   C16   S    
C14   O10   S    
C24   H1    S    
C15   H4    S    
C4    C22   S    
C3    C8    T    
Cu1   O5    S    
Cu2   O7    S    
C10   C20   A    
C10   H19   S    
C1    O1    A    
C14   C15   S    
C17   H9    S    
Cu1   O9    S    
C16   H6    S    
C18   H10   S    
C5    H17   S    
C15   H3    S    
Cu2   O3    S    
C19   H13   S    
Cu1   N1    S    
Cu1   Cu2   S    
C10   C13   A    
