data_mof_unit_45513.cif
_audit_creation_date              2012-12-10T17:52:39-0500
_audit_creation_method            fapswitch 2.2
_symmetry_space_group_name_H-M    P1
_symmetry_Int_Tables_number       1
_space_group_crystal_system       triclinic
_cell_length_a                    14.669556
_cell_length_b                    14.72446
_cell_length_c                    23.495494
_cell_angle_alpha                 76.733831
_cell_angle_beta                  102.511366
_cell_angle_gamma                 114.751476
_cell_volume                      4443.91521913

loop_
_atom_site_label
_atom_site_type_symbol
_atom_type_description
_atom_site_fract_x
_atom_site_fract_y
_atom_site_fract_z
_atom_type_partial_charge
C1    C     C_R   0.880288 0.312298 0.510381 0.801711
C2    C     C_R   0.119683 0.687705 0.490554 0.801450
C3    C     C_R   0.939845 0.538747 0.747722 -0.195296
C4    C     C_R   0.937839 0.533586 0.225160 -0.186286
C5    C     C_R   0.939224 0.539577 0.688226 -0.225993
C6    C     C_R   0.938532 0.535788 0.284189 -0.215476
C7    C     C_R   0.998896 0.499171 0.671562 -0.084388
C8    C     C_R   0.999416 0.496733 0.328743 -0.087166
C9    C     C_R   0.059261 0.458165 0.715246 -0.325371
C10   C     C_R   0.058354 0.453958 0.313299 -0.328069
C11   C     C_R   0.062478 0.459490 0.775273 0.503061
C12   C     C_R   0.055178 0.448542 0.254001 0.483204
C13   C     C_R   0.000423 0.498179 0.791214 0.302365
C14   C     C_R   0.996756 0.491133 0.209885 0.294538
C15   C     C_R   0.812638 0.204830 0.518983 -0.052142
C16   C     C_R   0.187199 0.794942 0.488973 -0.052337
C17   C     C_R   0.784386 0.027247 0.543457 -0.193352
C18   C     C_R   0.215700 0.970392 0.484355 -0.195969
C19   C     C_R   0.850726 0.128450 0.535643 -0.194200
C20   C     C_R   0.149200 0.870242 0.481815 -0.192591
C21   C     C_R   0.707984 0.179065 0.511197 -0.248313
C22   C     C_R   0.291903 0.820922 0.498028 -0.244773
C23   C     C_R   0.999370 0.499730 0.608969 0.827010
C24   C     C_R   0.000197 0.499467 0.391061 0.825624
C25   C     C_R   0.639630 0.077835 0.520771 0.090087
C26   C     C_R   0.360498 0.920365 0.503565 0.090661
C27   C     C_R   0.679387 0.001384 0.535567 0.165582
C28   C     C_R   0.320776 0.995976 0.495211 0.164745
C29   C     C_R   0.533024 0.050613 0.514278 0.066629
C30   C     C_R   0.467148 0.946772 0.516235 0.066261
C31   C     C_R   0.510024 0.872768 0.532073 -0.217683
C32   C     C_R   0.490230 0.123474 0.507005 -0.215891
C33   C     C_R   0.614118 0.899903 0.542069 -0.225171
C34   C     C_R   0.386116 0.096234 0.498034 -0.225160
C35   C     C_R   0.713318 0.664930 0.399842 -0.306589
C36   C     C_R   0.287459 0.336533 0.601216 -0.310412
C37   C     C_R   0.797197 0.638782 0.417247 0.080237
C38   C     C_R   0.203211 0.362058 0.583299 0.078547
C39   C     C_R   0.714492 0.509904 0.492022 -0.002482
C40   C     C_R   0.285708 0.490110 0.508176 -0.004962
C41   C     C_R   0.630984 0.539504 0.480189 -0.027572
C42   C     C_R   0.369557 0.460929 0.520479 -0.027499
C43   C     C_R   0.628543 0.612817 0.429873 0.126934
C44   C     C_R   0.372204 0.388263 0.571121 0.124289
C45   C     C_R   0.080202 0.558323 0.122499 0.587983
C46   C     C_R   0.916864 0.430556 0.878651 0.554948
C47   C     C_R   0.547218 0.494643 0.513561 -0.008886
C48   C     C_R   0.453414 0.505731 0.487209 -0.006592
C49   C     C_R   0.448227 0.561220 0.428894 0.126025
C50   C     C_R   0.552556 0.439371 0.571953 0.121573
C51   C     C_R   0.538555 0.626118 0.406364 -0.192891
C52   C     C_R   0.462283 0.375161 0.594790 -0.198429
C53   C     C_R   0.915196 0.425517 0.118509 0.527254
C54   C     C_R   0.081908 0.563317 0.882743 0.565468
C55   C     C_R   0.913940 0.425200 0.058685 -0.014895
C56   C     C_R   0.083362 0.563173 0.942636 -0.019442
C57   C     C_R   0.998479 0.493477 0.030753 -0.017987
C58   C     C_R   0.998870 0.494796 0.970566 -0.015893
C59   C     C_R   0.082566 0.560573 0.062839 -0.031237
C60   C     C_R   0.914709 0.427861 0.938427 -0.020727
C61   C     C_R   0.830519 0.358614 0.026260 -0.165264
C62   C     C_R   0.166882 0.629602 0.975085 -0.166507
C63   C     C_R   0.830883 0.359957 0.966735 -0.165929
C64   C     C_R   0.166492 0.628308 0.034583 -0.164119
Cu1   Cu    Cu3+1 0.081740 0.475680 0.515360 0.931738
Cu2   Cu    Cu3+1 0.918260 0.524320 0.484640 0.934607
H1    H     H_    0.764663 0.305378 0.046722 0.187084
H2    H     H_    0.232762 0.682813 0.954635 0.185537
H3    H     H_    0.815146 0.969061 0.555412 0.134131
H4    H     H_    0.184970 0.027802 0.478404 0.132141
H5    H     H_    0.465329 0.792598 0.538946 0.145284
H6    H     H_    0.535096 0.202260 0.509864 0.141926
H7    H     H_    0.536007 0.677466 0.365353 0.149874
H8    H     H_    0.464894 0.324252 0.635983 0.151153
H9    H     H_    0.285032 0.554784 0.475582 0.126670
H10   H     H_    0.715075 0.445008 0.524453 0.124858
H11   H     H_    0.137839 0.322665 0.606548 0.121597
H12   H     H_    0.862654 0.678490 0.394090 0.122099
H13   H     H_    0.713385 0.723033 0.361955 0.139250
H14   H     H_    0.287642 0.279176 0.639501 0.140747
H15   H     H_    0.765307 0.307684 0.943013 0.186640
H16   H     H_    0.232064 0.680594 0.058300 0.186318
H17   H     H_    0.893503 0.570041 0.760242 0.151251
H18   H     H_    0.892016 0.565548 0.191104 0.158813
H19   H     H_    0.892604 0.572236 0.655343 0.165294
H20   H     H_    0.892419 0.569275 0.294855 0.166673
H21   H     H_    0.103280 0.424427 0.702701 0.160161
H22   H     H_    0.106240 0.424221 0.347085 0.159935
H23   H     H_    0.643690 0.840782 0.554186 0.145735
H24   H     H_    0.356582 0.154413 0.492821 0.146874
H25   H     H_    0.318115 0.762046 0.499798 0.147527
H26   H     H_    0.681326 0.239475 0.496005 0.152182
H27   H     H_    0.068359 0.851723 0.474735 0.153477
H28   H     H_    0.931498 0.146782 0.542078 0.152423
N1    N     N_R   0.997375 0.491567 0.148925 -0.450986
N2    N     N_R   0.999659 0.497434 0.852226 -0.447607
N3    N     N_R   0.795430 0.560810 0.461550 -0.175363
N4    N     N_R   0.204570 0.439190 0.538450 -0.175548
O1    O     O_R   0.977900 0.338110 0.520250 -0.590375
O2    O     O_R   0.022100 0.661890 0.479750 -0.589982
O3    O     O_R   0.839850 0.379180 0.494310 -0.587607
O4    O     O_R   0.160150 0.620820 0.505690 -0.587525
O5    O     O_R   0.069020 0.479430 0.595090 -0.583851
O6    O     O_R   0.930980 0.520570 0.404910 -0.582481
O7    O     O_R   0.930970 0.520500 0.569150 -0.588492
O8    O     O_R   0.069030 0.479500 0.430850 -0.587512
O9    O     O_2   0.159672 0.622593 0.153853 -0.531184
O10   O     O_2   0.837284 0.366532 0.847226 -0.540682
O11   O     O_2   0.835296 0.360216 0.146189 -0.551346
O12   O     O_2   0.161697 0.628990 0.855071 -0.559548
C65   C     C_3   0.350413 0.542853 0.385934 -0.440825
C66   C     C_3   0.356781 0.515157 0.328338 -0.769446
H29   H     H_    0.410442 0.580284 0.301949 0.249168
H30   H     H_    0.380516 0.450151 0.337821 0.248002
H31   H     H_    0.281359 0.493349 0.301186 0.283950
H32   H     H_    0.286070 0.477491 0.404093 0.208039
H33   H     H_    0.332395 0.611517 0.375799 0.208883
C67   C     C_3   0.650715 0.457251 0.614622 -0.425543
C68   C     C_3   0.645408 0.484778 0.672562 -0.790799
H34   H     H_    0.619807 0.548485 0.663416 0.250973
H35   H     H_    0.593371 0.418979 0.699503 0.251609
H36   H     H_    0.721603 0.508503 0.699039 0.243122
H37   H     H_    0.668453 0.388450 0.624384 0.207952
H38   H     H_    0.714920 0.522518 0.596272 0.206674
O13   O     O_3   0.117947 0.415332 0.819501 -0.608209
C69   C     C_3   0.220712 0.452351 0.810473 0.088482
H39   H     H_    0.268670 0.480480 0.851353 0.180975
H40   H     H_    0.242963 0.517907 0.774082 0.137889
C70   C     C_3   0.244628 0.365987 0.800294 -0.360026
H41   H     H_    0.234715 0.307429 0.840446 0.235435
H42   H     H_    0.191368 0.329935 0.762923 0.214828
C71   C     C_3   0.352881 0.403944 0.786710 -0.909284
H43   H     H_    0.363409 0.460203 0.745563 0.259112
H44   H     H_    0.368143 0.339377 0.780408 0.258572
H45   H     H_    0.407945 0.439363 0.823770 0.262212
O14   O     O_3   0.114038 0.408215 0.237996 -0.613091
C72   C     C_3   0.075062 0.302342 0.256044 0.022738
H46   H     H_    0.993183 0.267639 0.238227 0.166016
H47   H     H_    0.084700 0.283601 0.305084 0.139562
C73   C     C_3   0.133342 0.257347 0.232285 -0.301003
H48   H     H_    0.124005 0.274863 0.183275 0.231087
H49   H     H_    0.215301 0.292098 0.249189 0.225712
C74   C     C_3   0.095637 0.142782 0.251043 -0.913907
H50   H     H_    0.106131 0.123658 0.299946 0.253705
H51   H     H_    0.139362 0.112541 0.233007 0.263032
H52   H     H_    0.014137 0.106267 0.233830 0.260247

loop_
_geom_bond_atom_site_label_1
_geom_bond_atom_site_label_2
_ccdc_geom_bond_type
C18   H4    S    
C74   H52   S    
C20   H27   S    
C17   H3    S    
C69   H39   S    
C53   N1    A    
Cu1   O8    S    
C65   C66   S    
C73   C74   S    
C38   N4    A    
C1    O1    A    
C37   N3    A    
C22   C26   A    
C39   C41   A    
C27   C33   A    
C15   C19   A    
C72   H47   S    
C10   H22   S    
C59   C64   A    
C63   H15   S    
C60   C63   A    
Cu2   N3    S    
C11   O13   S    
C73   H49   S    
Cu1   N4    S    
C29   C32   A    
C52   H8    S    
C40   N4    A    
C30   C31   A    
C39   N3    A    
C2    O4    A    
C58   C60   A    
C74   H50   S    
C23   O7    A    
C54   O12   S    
C7    C9    A    
Cu2   O2    S    
C61   C63   A    
C67   C68   S    
C62   C64   A    
C17   C19   A    
C23   O5    A    
C71   H43   S    
C49   C51   A    
C46   O10   S    
C50   C52   A    
C22   H25   S    
C31   C33   A    
C65   H32   S    
C1    C15   S    
C2    C16   S    
C54   N2    A    
C3    C13   A    
C49   C65   S    
C70   C71   S    
C5    H19   S    
C44   C52   A    
C40   C42   A    
C28   C34   A    
C41   C43   A    
Cu2   O3    S    
C42   C44   A    
Cu1   O4    S    
C66   H30   S    
C66   H29   S    
C47   C50   A    
C53   C55   A    
C25   C29   A    
C72   C73   S    
C54   C56   A    
C13   N2    S    
C17   C27   A    
Cu2   O6    S    
C18   C28   A    
C73   H48   S    
Cu1   O1    S    
C4    C6    A    
C36   H14   S    
C5    C7    A    
C42   C48   A    
C69   C70   S    
C16   C22   A    
C24   O6    A    
C32   C34   A    
C34   H24   S    
C29   C30   A    
C33   H23   S    
C19   H28   S    
C61   H1    S    
C47   C48   A    
C4    H18   S    
C16   C20   A    
C41   C47   A    
C67   H38   S    
C39   H10   S    
C9    C11   A    
C64   H16   S    
C68   H35   S    
C10   C12   A    
C8    C10   A    
C48   C49   A    
C12   C14   A    
C26   C30   A    
C55   C57   A    
C3    H17   S    
O13   C69   S    
C56   C62   A    
C36   C44   A    
C24   O8    A    
Cu1   O5    S    
Cu2   O7    S    
C46   C60   A    
C45   N1    A    
C1    O3    A    
C14   N1    S    
C35   C43   A    
C70   H41   S    
C37   H12   S    
C68   H36   S    
C53   O11   S    
C74   H51   S    
C21   C25   A    
C45   C59   A    
C69   H40   S    
C35   C37   A    
C50   C67   S    
C51   H7    S    
O14   C72   S    
C3    C5    A    
C6    C8    A    
C68   H34   S    
C38   H11   S    
C25   C27   A    
C72   H46   S    
C26   C28   A    
C6    H20   S    
C40   H9    S    
C62   H2    S    
C65   H33   S    
C36   C38   A    
C9    H21   S    
C11   C13   A    
C43   C51   A    
C57   C58   A    
C71   H45   S    
C7    C23   S    
C55   C61   A    
C35   H13   S    
C8    C24   S    
C56   C58   A    
C18   C20   A    
C67   H37   S    
C4    C14   A    
C57   C59   A    
C2    O2    A    
C15   C21   A    
C46   N2    A    
C71   H44   S    
Cu1   Cu2   S    
C12   O14   S    
C70   H42   S    
C66   H31   S    
C45   O9    S    
C31   H5    S    
C32   H6    S    
C21   H26   S    
