data_mof_unit_11624.cif
_audit_creation_date              2012-12-10T21:09:15-0500
_audit_creation_method            fapswitch 2.2
_symmetry_space_group_name_H-M    P1
_symmetry_Int_Tables_number       1
_space_group_crystal_system       triclinic
_cell_length_a                    10.845657
_cell_length_b                    17.355713
_cell_length_c                    16.807366
_cell_angle_alpha                 90.751687
_cell_angle_beta                  104.728534
_cell_angle_gamma                 90.488973
_cell_volume                      3059.26996175

loop_
_atom_site_label
_atom_site_type_symbol
_atom_type_description
_atom_site_fract_x
_atom_site_fract_y
_atom_site_fract_z
_atom_type_partial_charge
C1    C     C_R   0.496515 0.352740 0.499104 0.940870
C2    C     C_R   0.575442 0.550969 0.264977 -0.140994
C3    C     C_R   0.552820 0.559685 0.759648 0.388409
C4    C     C_R   0.418124 0.452368 0.237610 0.365854
C5    C     C_R   0.543254 0.562037 0.842031 0.294263
C6    C     C_R   0.409193 0.455916 0.151970 0.327022
C7    C     C_R   0.492837 0.498385 0.874613 -0.178585
C8    C     C_R   0.493778 0.503527 0.123270 -0.164200
C9    C     C_1   0.491431 0.499091 0.962181 0.050906
C10   C     C_1   0.491479 0.501649 0.035066 0.071999
C11   C     C_R   0.258962 0.494643 0.465304 0.883950
C12   C     C_R   0.497548 0.647263 0.500030 0.950318
C13   C     C_R   0.741526 0.503077 0.534898 0.879042
C14   C     C_2   0.122069 0.485911 0.443240 0.239763
C15   C     C_2   0.879018 0.500959 0.558113 0.221461
C16   C     C_2   0.064123 0.475399 0.503838 0.213968
C17   C     C_2   0.941534 0.512489 0.499963 0.210685
C18   C     C_R   0.418820 0.846461 0.560435 0.438762
C19   C     C_R   0.423130 0.151834 0.413919 0.451242
C20   C     C_R   0.446208 0.767757 0.564046 -0.298034
C21   C     C_R   0.460609 0.229330 0.420821 -0.268876
C22   C     C_R   0.476974 0.730083 0.497567 -0.133160
C23   C     C_R   0.414151 0.885002 0.486962 -0.074780
C24   C     C_R   0.470254 0.270205 0.494538 -0.163637
C25   C     C_R   0.477191 0.770387 0.426003 -0.316269
C26   C     C_R   0.442737 0.233442 0.561905 -0.280162
C27   C     C_R   0.442010 0.847901 0.419079 0.450161
C28   C     C_R   0.405201 0.156164 0.555927 0.436032
C29   C     C_3   0.498298 0.679528 0.887052 0.126844
C30   C     C_3   0.554215 0.749661 0.939417 -0.794035
C31   C     C_3   0.194490 0.444220 0.090712 0.170294
C32   C     C_3   0.124424 0.455704 0.001176 -0.913556
C33   C     C_3   0.979731 0.542253 0.686638 0.177606
C34   C     C_R   0.400738 0.115268 0.482883 -0.110832
C35   C     C_3   0.071149 0.518144 0.766525 -0.806659
C36   C     C_3   0.007130 0.422237 0.329903 0.166490
C37   C     C_3   0.922999 0.430985 0.243551 -0.812168
C38   C     C_3   0.479565 0.873309 0.700296 0.122587
C39   C     C_3   0.470698 0.936918 0.761582 -0.800217
C40   C     C_3   0.327358 0.137932 0.275095 0.093985
C41   C     C_3   0.389193 0.156615 0.205766 -0.760944
C42   C     C_3   0.382797 0.852216 0.276515 0.112449
C43   C     C_3   0.342377 0.910992 0.208788 -0.778937
C44   C     C_3   0.270432 0.145636 0.639582 0.123234
C45   C     C_1   0.395071 0.965601 0.484019 0.131391
C46   C     C_3   0.236322 0.096040 0.704953 -0.807925
C47   C     C_3   0.299229 0.367212 0.869995 0.116302
C48   C     C_3   0.203612 0.318490 0.806953 -0.830845
C49   C     C_3   0.738752 0.582409 0.117962 0.109207
C50   C     C_3   0.867721 0.619943 0.156702 -0.775138
C51   C     C_1   0.390641 0.033960 0.482457 0.118256
C52   C     C_R   0.448422 0.434432 0.821667 0.375506
C53   C     C_R   0.577223 0.553050 0.181097 0.345722
C54   C     C_R   0.450208 0.437808 0.737879 -0.132029
Cl1   Cl    Cl    0.884615 0.584321 0.424918 -0.625981
Cl2   Cl    Cl    0.130440 0.407179 0.580905 -0.665303
Cl3   Cl    Cl    0.644109 0.632003 0.728566 -0.630130
Cl4   Cl    Cl    0.321531 0.385793 0.272495 -0.669276
H1    H     H_    0.441317 0.735748 0.617959 0.191743
H2    H     H_    0.479513 0.793850 0.935403 0.199615
H3    H     H_    0.590794 0.732935 0.004682 0.268763
H4    H     H_    0.195218 0.500659 0.123735 0.123970
H5    H     H_    0.138755 0.402375 0.117435 0.194302
H6    H     H_    0.113370 0.399833 0.967085 0.256435
H7    H     H_    0.028176 0.479135 0.997447 0.229237
H8    H     H_    0.178113 0.497186 0.972573 0.251383
H9    H     H_    0.896243 0.570504 0.701237 0.187195
H10   H     H_    0.031138 0.584827 0.657089 0.132676
H11   H     H_    0.158329 0.494045 0.753139 0.265290
H12   H     H_    0.482607 0.257146 0.368726 0.210953
H13   H     H_    0.098667 0.568900 0.808411 0.194635
H14   H     H_    0.025431 0.474038 0.797301 0.267756
H15   H     H_    0.947785 0.394994 0.367404 0.139194
H16   H     H_    0.086864 0.383156 0.327250 0.175181
H17   H     H_    0.976425 0.460648 0.204333 0.253482
H18   H     H_    0.891048 0.373372 0.216153 0.204062
H19   H     H_    0.837954 0.464801 0.246607 0.265513
H20   H     H_    0.578783 0.873805 0.692597 0.153927
H21   H     H_    0.459827 0.817546 0.726691 0.149522
H22   H     H_    0.374029 0.936871 0.772640 0.251803
H23   H     H_    0.504200 0.741410 0.375705 0.173151
H24   H     H_    0.542005 0.927354 0.820870 0.204679
H25   H     H_    0.489977 0.993766 0.737366 0.291895
H26   H     H_    0.275492 0.189851 0.288631 0.148780
H27   H     H_    0.254160 0.092089 0.253057 0.153206
H28   H     H_    0.435328 0.104488 0.188076 0.251493
H29   H     H_    0.315674 0.176494 0.151357 0.220120
H30   H     H_    0.462147 0.202951 0.225808 0.260272
H31   H     H_    0.295497 0.820540 0.282145 0.133444
H32   H     H_    0.449145 0.811404 0.257842 0.155372
H33   H     H_    0.426825 0.943981 0.201316 0.266561
H34   H     H_    0.450570 0.264392 0.619362 0.182110
H35   H     H_    0.296380 0.881116 0.149732 0.198555
H36   H     H_    0.273277 0.951540 0.224559 0.249354
H37   H     H_    0.189509 0.142228 0.583287 0.146049
H38   H     H_    0.282651 0.206160 0.663183 0.161535
H39   H     H_    0.314491 0.098613 0.762342 0.256149
H40   H     H_    0.147538 0.117394 0.718596 0.212588
H41   H     H_    0.220861 0.035334 0.682648 0.275822
H42   H     H_    0.261027 0.426251 0.872629 0.127851
H43   H     H_    0.308802 0.341955 0.931597 0.210175
H44   H     H_    0.236740 0.258067 0.807750 0.257088
H45   H     H_    0.414590 0.388989 0.697783 0.199799
H46   H     H_    0.109436 0.319215 0.821650 0.225301
H47   H     H_    0.193024 0.341923 0.744572 0.300858
H48   H     H_    0.710309 0.598237 0.052128 0.209857
H49   H     H_    0.749566 0.518644 0.120652 0.122018
H50   H     H_    0.897912 0.606790 0.223285 0.305161
H51   H     H_    0.940139 0.597646 0.126219 0.198511
H52   H     H_    0.861570 0.683408 0.149359 0.258769
H53   H     H_    0.634730 0.591123 0.308181 0.229661
H54   H     H_    0.418259 0.656191 0.910337 0.128787
H55   H     H_    0.460575 0.698582 0.822414 0.143808
H56   H     H_    0.633555 0.774757 0.917053 0.263269
N1    N     N_R   0.500030 0.500030 0.707240 -0.157928
N2    N     N_R   0.499970 0.499970 0.292760 -0.158331
O1    O     O_R   0.500000 0.389130 0.566570 -0.624054
O2    O     O_3   0.317169 0.413484 0.095621 -0.591088
O3    O     O_3   0.939439 0.476362 0.636150 -0.563091
O4    O     O_3   0.055002 0.495373 0.362101 -0.566580
O5    O     O_3   0.388105 0.886106 0.625161 -0.601671
O6    O     O_3   0.420642 0.109361 0.343070 -0.586764
O7    O     O_3   0.445427 0.891037 0.350416 -0.584128
O8    O     O_3   0.384194 0.118367 0.623444 -0.602320
O9    O     O_3   0.419763 0.364767 0.852346 -0.593856
O10   O     O_3   0.647466 0.611574 0.157197 -0.596722
O11   O     O_R   0.500000 0.610870 0.433430 -0.625649
O12   O     O_R   0.499990 0.389100 0.433480 -0.574080
O13   O     O_R   0.500010 0.610900 0.566520 -0.574327
O14   O     O_R   0.317810 0.500010 0.541690 -0.599206
O15   O     O_R   0.682190 0.499990 0.458310 -0.593369
O16   O     O_R   0.317800 0.499990 0.408610 -0.553971
O17   O     O_R   0.682200 0.500010 0.591390 -0.567545
O18   O     O_3   0.594339 0.623984 0.892570 -0.576959
Zn1   Zn    Zn3+2 0.500010 0.500020 0.588860 1.015606
Zn2   Zn    Zn3+2 0.499990 0.499980 0.411140 1.015439

loop_
_geom_bond_atom_site_label_1
_geom_bond_atom_site_label_2
_ccdc_geom_bond_type
C25   H23   S    
C46   H41   S    
C19   O6    S    
C23   C45   S    
C40   H26   S    
C29   H54   S    
O14   Zn1   S    
C1    O12   A    
C11   O16   A    
C49   H49   S    
C12   O11   A    
C49   O10   S    
C34   C51   S    
C47   H43   S    
C36   C37   S    
C19   C21   A    
C24   C26   A    
C7    C52   A    
O12   Zn2   S    
C38   C39   S    
C11   C14   S    
C38   H21   S    
C45   C51   T    
C26   H34   S    
C48   H46   S    
C12   C22   S    
C50   H52   S    
C43   H36   S    
C15   C17   D    
C43   H35   S    
O13   Zn1   S    
C2    N2    A    
C47   C48   S    
C52   C54   A    
C16   C17   S    
C22   C25   A    
C30   H2    S    
C23   C27   A    
C9    C10   T    
C17   Cl1   S    
C29   O18   S    
C46   H40   S    
C28   C34   A    
C50   H50   S    
C4    N2    A    
C31   H4    S    
C44   C46   S    
C42   O7    S    
C47   O9    S    
C5    O18   S    
C41   H29   S    
C2    H53   S    
C12   O13   A    
C18   C23   A    
C2    C53   A    
C31   H5    S    
C54   H45   S    
O11   Zn2   S    
C32   H6    S    
C4    C6    A    
O15   Zn2   S    
C53   O10   S    
C5    C7    A    
C27   O7    S    
C6    C8    A    
C38   H20   S    
C37   H19   S    
C44   O8    S    
C50   H51   S    
C43   H33   S    
C47   H42   S    
C42   H32   S    
C40   H27   S    
C16   Cl2   S    
C31   O2    S    
C29   C30   S    
C41   H28   S    
C48   H47   S    
O16   Zn2   S    
C48   H44   S    
C54   N1    A    
C13   O15   A    
C1    O1    A    
C20   H1    S    
C36   H16   S    
C3    Cl3   S    
C40   C41   S    
C46   H39   S    
C20   C22   A    
C35   H14   S    
C33   O3    S    
C14   O4    S    
C13   C15   S    
C14   C16   D    
C21   C24   A    
C42   C43   S    
O1    Zn1   S    
C11   O14   A    
C33   H9    S    
C32   H8    S    
C30   H56   S    
C7    C9    S    
C41   H30   S    
C29   H55   S    
C44   H38   S    
C13   O17   A    
C37   H18   S    
C31   C32   S    
C39   H24   S    
C3    C5    A    
C19   C34   A    
C8    C53   A    
C52   O9    S    
C28   O8    S    
C49   H48   S    
N2    Zn2   S    
C25   C27   A    
C40   O6    S    
C26   C28   A    
C21   H12   S    
C42   H31   S    
C39   H22   S    
C39   H25   S    
C44   H37   S    
C3    N1    A    
N1    Zn1   S    
C33   C35   S    
C15   O3    S    
C18   C20   A    
C37   H17   S    
C36   O4    S    
C38   O5    S    
C36   H15   S    
C18   O5    S    
C35   H13   S    
C35   H11   S    
C1    C24   S    
C8    C10   S    
C49   C50   S    
C30   H3    S    
C4    Cl4   S    
O17   Zn1   S    
C6    O2    S    
C33   H10   S    
C32   H7    S    
