data_mof_unit_36083.cif
_audit_creation_date              2012-12-10T18:09:12-0500
_audit_creation_method            fapswitch 2.2
_symmetry_space_group_name_H-M    P1
_symmetry_Int_Tables_number       1
_space_group_crystal_system       triclinic
_cell_length_a                    12.618772
_cell_length_b                    13.093066
_cell_length_c                    13.604763
_cell_angle_alpha                 91.769877
_cell_angle_beta                  94.948736
_cell_angle_gamma                 97.667953
_cell_volume                      2217.30696249

loop_
_atom_site_label
_atom_site_type_symbol
_atom_type_description
_atom_site_fract_x
_atom_site_fract_y
_atom_site_fract_z
_atom_type_partial_charge
C1    C     C_R   0.560088 0.691332 0.511219 0.899968
C2    C     C_R   0.476463 0.036420 0.464794 0.104073
C3    C     C_R   0.408484 0.000791 0.378780 0.147191
C4    C     C_R   0.517917 0.496725 0.318386 0.867846
C5    C     C_R   0.412543 0.903284 0.336727 -0.244955
C6    C     C_R   0.479092 0.839233 0.381894 -0.182304
C7    C     C_R   0.468001 0.133145 0.506292 -0.294131
C8    C     C_R   0.338040 0.164678 0.371747 0.091647
C9    C     C_R   0.597892 0.801590 0.525009 -0.227261
C10   C     C_R   0.898821 0.387866 0.669141 -0.333552
C11   C     C_R   0.211178 0.624682 0.382138 0.032144
C12   C     C_1   0.530905 0.495317 0.217063 -0.196453
C13   C     C_R   0.108952 0.650342 0.359357 -0.265958
C14   C     C_R   0.023893 0.600836 0.406066 -0.206809
C15   C     C_R   0.041095 0.524416 0.474479 0.009597
C16   C     C_R   0.440491 0.308847 0.484447 0.837832
C17   C     C_R   0.146366 0.505182 0.498980 0.204761
C18   C     C_R   0.957665 0.470308 0.522378 -0.048947
C19   C     C_R   0.982005 0.418188 0.609505 0.112719
C20   C     C_R   0.087354 0.395287 0.632087 0.047276
C21   C     C_R   0.166776 0.435738 0.572320 -0.240697
C22   C     C_R   0.849745 0.462750 0.485191 0.169197
C23   C     C_R   0.338059 0.063635 0.334897 -0.239929
C24   C     C_R   0.795928 0.408525 0.640233 -0.002938
C25   C     C_R   0.482241 0.503832 0.681650 0.898193
C26   C     C_1   0.469508 0.506765 0.783053 -0.190241
C27   C     C_2   0.456104 0.508849 0.972399 -0.157322
C28   C     C_2   0.544034 0.494264 0.027694 -0.161053
C29   C     C_1   0.540053 0.494412 0.130946 -0.014338
C30   C     C_1   0.460156 0.508435 0.869141 0.008314
C31   C     C_3   0.111527 0.324883 0.716330 -0.414488
C32   C     C_3   0.224750 0.292896 0.725862 -0.358431
C33   C     C_3   0.238065 0.220463 0.810446 -0.877719
C34   C     C_R   0.407470 0.200034 0.457139 -0.087596
C35   C     C_3   0.820698 0.442076 0.374996 -0.421343
C36   C     C_3   0.762738 0.331658 0.353397 -0.290991
C37   C     C_3   0.741480 0.306342 0.242649 -0.899800
C38   C     C_3   0.266235 0.231638 0.316285 -0.401972
C39   C     C_3   0.162982 0.235805 0.367183 -0.308605
C40   C     C_3   0.090762 0.305018 0.313737 -0.880411
C41   C     C_3   0.840041 0.790319 0.666189 0.104722
C42   C     C_3   0.886809 0.777529 0.566625 -0.381885
C43   C     C_3   0.009324 0.796675 0.579143 -0.933718
C44   C     C_R   0.676651 0.837390 0.603064 0.502451
C45   C     C_R   0.691401 0.942299 0.631941 -0.258050
C46   C     C_R   0.628772 0.009335 0.585507 -0.272793
C47   C     C_R   0.549830 0.973849 0.507293 0.104241
C48   C     C_R   0.543033 0.871227 0.470651 0.019937
H1    H     H_    0.617867 0.482258 0.996018 0.155638
H2    H     H_    0.363034 0.875812 0.269594 0.138319
H3    H     H_    0.285657 0.035012 0.269696 0.132604
H4    H     H_    0.512419 0.161355 0.575244 0.149282
H5    H     H_    0.645047 0.088745 0.612143 0.154655
H6    H     H_    0.746720 0.972075 0.694534 0.142976
H7    H     H_    0.225352 0.258969 0.881563 0.260779
H8    H     H_    0.179779 0.148902 0.797245 0.257912
H9    H     H_    0.320619 0.199235 0.815646 0.251539
H10   H     H_    0.239747 0.252758 0.656189 0.216744
H11   H     H_    0.285324 0.362347 0.741020 0.229391
H12   H     H_    0.480234 0.764230 0.346518 0.147198
H13   H     H_    0.098713 0.364458 0.786951 0.203369
H14   H     H_    0.053075 0.253075 0.705522 0.203437
H15   H     H_    0.692630 0.361678 0.207068 0.274450
H16   H     H_    0.818495 0.309685 0.208221 0.257619
H17   H     H_    0.697023 0.227307 0.229842 0.252022
H18   H     H_    0.813463 0.275908 0.386209 0.202282
H19   H     H_    0.685574 0.320389 0.387204 0.267610
H20   H     H_    0.775864 0.502054 0.343439 0.219660
H21   H     H_    0.893740 0.446082 0.334667 0.194930
H22   H     H_    0.133949 0.384299 0.310443 0.271805
H23   H     H_    0.732950 0.390719 0.688471 0.147346
H24   H     H_    0.064678 0.273547 0.237462 0.253553
H25   H     H_    0.018506 0.308660 0.354111 0.249812
H26   H     H_    0.118199 0.156740 0.367879 0.213240
H27   H     H_    0.182469 0.264952 0.444932 0.235040
H28   H     H_    0.309605 0.309968 0.308302 0.223786
H29   H     H_    0.243609 0.199535 0.239532 0.184899
H30   H     H_    0.872456 0.734999 0.717190 0.170598
H31   H     H_    0.868490 0.868044 0.700958 0.112898
H32   H     H_    0.859863 0.698202 0.534804 0.238500
H33   H     H_    0.857941 0.833361 0.514193 0.207949
H34   H     H_    0.912529 0.352046 0.738819 0.143146
H35   H     H_    0.037848 0.873323 0.616377 0.258361
H36   H     H_    0.041093 0.795748 0.505663 0.275898
H37   H     H_    0.041107 0.735689 0.623391 0.271386
H38   H     H_    0.278158 0.661951 0.346075 0.132728
H39   H     H_    0.945439 0.624213 0.389842 0.145912
H40   H     H_    0.095799 0.708464 0.306461 0.147042
H41   H     H_    0.244464 0.413657 0.583824 0.213917
H42   H     H_    0.382213 0.520697 0.004046 0.154447
N1    N     N_R   0.773270 0.445590 0.549770 -0.107570
N2    N     N_R   0.227520 0.553880 0.450750 -0.123571
O1    O     O_R   0.631100 0.627590 0.523760 -0.570262
O2    O     O_R   0.455900 0.662370 0.491970 -0.609866
O3    O     O_R   0.600200 0.480080 0.377830 -0.623279
O4    O     O_R   0.425000 0.514870 0.346040 -0.623339
O5    O     O_R   0.544100 0.337630 0.508030 -0.622704
O6    O     O_R   0.368900 0.372410 0.476240 -0.640461
O7    O     O_R   0.575000 0.485130 0.653960 -0.603035
O8    O     O_R   0.399800 0.519920 0.622170 -0.628234
O9    O     O_3   0.726584 0.766538 0.658138 -0.633158
Zn1   Zn    Zn3+2 0.616980 0.476780 0.521230 0.935452
Zn2   Zn    Zn3+2 0.383020 0.523220 0.478770 0.917929

loop_
_geom_bond_atom_site_label_1
_geom_bond_atom_site_label_2
_ccdc_geom_bond_type
C33   H7    S    
C15   C18   A    
C42   H32   S    
C12   C29   T    
C43   H35   S    
C41   C42   S    
C31   H13   S    
C3    C23   A    
C2    C7    A    
C32   H10   S    
C36   H19   S    
C38   H28   S    
C45   C46   A    
C22   C35   S    
C42   H33   S    
C6    C48   A    
C36   C37   S    
C7    H4    S    
C38   C39   S    
C36   H18   S    
C16   O5    A    
C11   H38   S    
O6    Zn2   S    
C8    C23   A    
C40   H25   S    
C46   H5    S    
C27   H42   S    
C18   C19   A    
C39   H26   S    
N2    Zn2   S    
C16   C34   S    
C4    O4    A    
C11   N2    A    
C25   O7    A    
C35   C36   S    
C1    O2    A    
C37   H17   S    
C22   N1    A    
C39   H27   S    
C4    C12   S    
O5    Zn1   S    
O3    Zn1   S    
C33   H8    S    
C13   C14   A    
C27   C30   S    
C43   H36   S    
C31   H14   S    
C17   N2    A    
C8    C38   S    
C37   H15   S    
C43   H37   S    
C6    H12   S    
C1    C9    S    
C41   H30   S    
C21   H41   S    
C10   C24   A    
C25   C26   S    
C10   H34   S    
O8    Zn2   S    
C17   C21   A    
C41   H31   S    
C4    O3    A    
C28   H1    S    
C25   O8    A    
C23   H3    S    
C47   C48   A    
C10   C19   A    
C8    C34   A    
C40   H22   S    
C45   H6    S    
C26   C30   T    
C7    C34   A    
C5    H2    S    
C42   C43   S    
N1    Zn1   S    
C24   N1    A    
C39   C40   S    
C37   H16   S    
C44   C45   A    
C15   C17   A    
C46   C47   A    
C28   C29   S    
C9    C44   A    
C33   H9    S    
C40   H24   S    
C18   C22   A    
C31   C32   S    
C14   H39   S    
C3    C5    A    
O1    Zn1   S    
O2    Zn2   S    
C44   O9    S    
C38   H29   S    
C2    C47   A    
C32   C33   S    
C19   C20   A    
C2    C3    A    
C11   C13   A    
C16   O6    A    
C5    C6    A    
C35   H20   S    
C13   H40   S    
C41   O9    S    
O7    Zn1   S    
C20   C21   A    
C35   H21   S    
C9    C48   A    
C1    O1    A    
O4    Zn2   S    
C27   C28   D    
C14   C15   A    
C32   H11   S    
C24   H23   S    
C20   C31   S    
