data_mof_unit_43135.cif
_audit_creation_date              2012-12-11T14:07:48-0500
_audit_creation_method            fapswitch 2.2
_symmetry_space_group_name_H-M    P1
_symmetry_Int_Tables_number       1
_space_group_crystal_system       triclinic
_cell_length_a                    19.703923
_cell_length_b                    17.079987
_cell_length_c                    15.414596
_cell_angle_alpha                 90.336256
_cell_angle_beta                  53.885054
_cell_angle_gamma                 90.007251
_cell_volume                      4190.67999488

loop_
_atom_site_label
_atom_site_type_symbol
_atom_type_description
_atom_site_fract_x
_atom_site_fract_y
_atom_site_fract_z
_atom_type_partial_charge
C1    C     C_R   0.374028 0.197168 0.996674 -0.110459
C2    C     C_R   0.707412 0.849870 0.986790 0.153706
C3    C     C_3   0.080907 0.705055 0.533167 -1.076491
C4    C     C_3   0.760836 0.887544 0.475171 -1.023167
C5    C     C_3   0.802727 0.145113 0.552515 -0.997786
C6    C     C_3   0.267077 0.379808 0.472077 -1.039563
C7    C     C_3   0.245313 0.588297 0.454846 -1.043292
C8    C     C_3   0.559513 0.725456 0.858204 -1.089411
C9    C     C_3   0.571432 0.275944 0.850470 -1.119932
C10   C     C_3   0.069301 0.224191 0.853720 -1.108597
C11   C     C_3   0.075187 0.775755 0.846241 -1.113010
C12   C     C_R   0.153547 0.683101 0.070028 0.149064
C13   C     C_R   0.211169 0.354240 0.980568 0.155638
C14   C     C_R   0.603122 0.815914 0.698419 0.040785
C15   C     C_R   0.614856 0.181043 0.693584 0.000825
C16   C     C_R   0.107704 0.315842 0.695519 0.043606
C17   C     C_R   0.120694 0.679475 0.691097 0.032333
C18   C     C_3   0.202788 0.128258 0.519679 -0.447428
C19   C     C_3   0.289705 0.829436 0.509505 -0.451152
C20   C     C_3   0.710839 0.633305 0.520251 -0.444537
C21   C     C_R   0.341399 0.824636 0.047162 -0.104748
C22   C     C_3   0.697691 0.358447 0.508381 -0.405344
C23   C     C_3   0.156068 0.179458 0.621025 -0.535782
C24   C     C_3   0.223920 0.786997 0.610944 -0.537235
C25   C     C_3   0.660319 0.683145 0.622098 -0.538123
C26   C     C_3   0.635736 0.308514 0.606222 -0.521869
C27   C     C_3   0.305089 0.238533 0.428105 -0.520616
C28   C     C_3   0.335993 0.703379 0.410936 -0.538845
C29   C     C_3   0.806840 0.748215 0.431366 -0.526693
C30   C     C_3   0.818215 0.261182 0.439995 -0.514783
C31   C     C_3   0.684306 0.729427 0.417398 0.091400
C32   C     C_R   0.872954 0.696495 0.997927 -0.109703
C33   C     C_3   0.711461 0.241061 0.398940 0.105766
C34   C     C_3   0.180955 0.228329 0.416505 0.087996
C35   C     C_3   0.219793 0.782234 0.420731 0.095841
C36   C     C_3   0.248260 0.181355 0.419095 0.244134
C37   C     C_3   0.304232 0.785757 0.411774 0.250616
C38   C     C_3   0.753777 0.687493 0.420771 0.244285
C39   C     C_3   0.761398 0.303785 0.414626 0.249691
C40   C     C_3   0.656179 0.770839 0.595751 0.216396
C41   C     C_3   0.670692 0.223088 0.590373 0.237912
C42   C     C_3   0.156822 0.268028 0.593756 0.217344
C43   C     C_R   0.874100 0.303312 0.996123 -0.108808
C44   C     C_3   0.186840 0.715524 0.586920 0.221167
C45   C     C_3   0.750424 0.805564 0.525295 0.604358
C46   C     C_3   0.765384 0.226166 0.554236 0.637358
C47   C     C_3   0.252847 0.297219 0.521782 0.607692
C48   C     C_3   0.263933 0.655558 0.506856 0.629738
C49   C     C_R   0.388947 0.804192 0.213382 -0.178589
C50   C     C_R   0.348938 0.170137 0.217928 -0.168291
C51   C     C_R   0.856453 0.322400 0.215531 -0.156829
C52   C     C_R   0.852935 0.674799 0.219367 -0.172050
C53   C     C_3   0.617010 0.764910 0.530369 0.095969
C54   C     C_R   0.665612 0.912198 0.058106 -0.148426
C55   C     C_3   0.667541 0.185341 0.496959 0.084358
C56   C     C_3   0.116425 0.265776 0.529346 0.096214
C57   C     C_3   0.147352 0.752945 0.533532 0.077153
C58   C     C_2   0.194506 0.739965 0.095053 -0.203288
C59   C     C_2   0.284677 0.315252 0.960207 -0.200735
C60   C     C_2   0.780235 0.188518 0.967059 -0.202186
C61   C     C_2   0.780491 0.811403 0.966333 -0.197215
C62   C     C_2   0.808826 0.253907 0.908493 -0.211220
C63   C     C_2   0.808236 0.744921 0.909194 -0.205539
C64   C     C_2   0.213916 0.811386 0.049853 -0.197366
C65   C     C_R   0.665607 0.087915 0.058224 -0.150114
C66   C     C_2   0.310927 0.247210 0.905812 -0.212418
C67   C     C_R   0.329692 0.912628 0.951330 -0.152500
C68   C     C_R   0.365495 0.111277 0.896609 -0.159177
C69   C     C_R   0.864702 0.389140 0.897355 -0.148087
C70   C     C_R   0.864424 0.610258 0.897786 -0.152355
C71   C     C_R   0.358015 0.077817 0.312746 -0.135554
C72   C     C_R   0.399318 0.896752 0.307436 -0.135864
C73   C     C_R   0.865912 0.586308 0.315283 -0.133445
C74   C     C_R   0.865525 0.411334 0.315408 -0.139415
C75   C     C_R   0.346812 0.187366 0.933691 0.153999
C76   C     C_R   0.169614 0.417865 0.050374 -0.151598
C77   C     C_R   0.288787 0.851179 0.022968 0.145479
C78   C     C_R   0.845299 0.685952 0.935497 0.155073
C79   C     C_R   0.846159 0.313464 0.934189 0.152898
C80   C     C_R   0.369070 0.823845 0.312623 0.087549
C81   C     C_R   0.307131 0.136767 0.319227 0.087264
C82   C     C_R   0.818487 0.349607 0.318502 0.059684
C83   C     C_R   0.814835 0.644608 0.321605 0.089942
C84   C     C_R   0.658973 0.178525 0.956701 -0.140271
C85   C     C_R   0.659136 0.821209 0.955730 -0.128660
C86   C     C_R   0.125789 0.698892 0.008661 -0.120877
C87   C     C_R   0.134988 0.605258 0.103591 -0.161388
C88   C     C_R   0.161011 0.323308 0.953233 -0.133644
C89   C     C_R   0.593066 0.800106 0.794906 0.318583
C90   C     C_R   0.600205 0.198580 0.792009 0.348214
C91   C     C_R   0.095724 0.300257 0.793398 0.330736
C92   C     C_R   0.104071 0.697524 0.790513 0.333647
C93   C     C_R   0.590180 0.105137 0.698819 -0.228873
C94   C     C_R   0.588781 0.894670 0.699057 -0.213321
C95   C     C_R   0.093361 0.604671 0.696756 -0.206182
C96   C     C_R   0.092880 0.395006 0.696475 -0.222539
C97   C     C_3   0.787126 0.814296 0.591069 -0.992795
C98   C     C_R   0.707227 0.149952 0.987502 0.161361
C99   C     C_3   0.776908 0.278649 0.628073 -1.029557
C100  C     C_3   0.291156 0.301276 0.586089 -0.999700
C101  C     C_3   0.298369 0.615476 0.564187 -0.989071
C102  C     C_3   0.642962 0.674967 0.380243 -1.029782
C103  C     C_3   0.649222 0.275449 0.379012 -1.060375
C104  C     C_3   0.136124 0.177785 0.380732 -1.025698
C105  C     C_3   0.194779 0.861173 0.397360 -1.014425
C106  C     C_3   0.572430 0.836391 0.523493 -1.096958
C107  C     C_3   0.704401 0.101204 0.454995 -1.104921
C108  C     C_3   0.075042 0.339709 0.521947 -1.094414
H1    H     H_    0.158688 0.087841 0.519557 0.181476
H2    H     H_    0.390751 0.708762 0.414445 0.182683
H3    H     H_    0.863050 0.152820 0.542436 0.253593
H4    H     H_    0.759902 0.113002 0.628622 0.252746
H5    H     H_    0.819478 0.106986 0.484690 0.247907
H6    H     H_    0.237359 0.426486 0.533547 0.267692
H7    H     H_    0.335170 0.394201 0.421395 0.253300
H8    H     H_    0.247997 0.383465 0.417846 0.236948
H9    H     H_    0.302682 0.551769 0.402409 0.257999
H10   H     H_    0.197576 0.546488 0.511724 0.251033
H11   H     H_    0.230548 0.610375 0.400476 0.232318
H12   H     H_    0.792099 0.270439 0.855548 0.131153
H13   H     H_    0.850198 0.716139 0.443047 0.183116
H14   H     H_    0.790949 0.727255 0.857010 0.125356
H15   H     H_    0.185210 0.835211 0.013728 0.123599
H16   H     H_    0.293388 0.229164 0.854038 0.126697
H17   H     H_    0.515929 0.696245 0.845164 0.255240
H18   H     H_    0.611090 0.685557 0.838785 0.241949
H19   H     H_    0.522550 0.738432 0.945516 0.258976
H20   H     H_    0.624398 0.316684 0.820809 0.254917
H21   H     H_    0.523410 0.302541 0.843579 0.259948
H22   H     H_    0.540608 0.267317 0.937474 0.257794
H23   H     H_    0.024877 0.192329 0.844553 0.257835
H24   H     H_    0.867129 0.300834 0.430094 0.175239
H25   H     H_    0.124184 0.187435 0.829523 0.243757
H26   H     H_    0.035219 0.235814 0.940954 0.256442
H27   H     H_    0.128660 0.808567 0.834221 0.246243
H28   H     H_    0.044899 0.810130 0.816629 0.256907
H29   H     H_    0.027703 0.768073 0.933804 0.256243
H30   H     H_    0.682459 0.938453 0.106625 0.089813
H31   H     H_    0.682622 0.061945 0.106440 0.090095
H32   H     H_    0.190655 0.451613 0.089823 0.098158
H33   H     H_    0.139661 0.578942 0.163536 0.093592
H34   H     H_    0.714401 0.777762 0.358219 0.137004
H35   H     H_    0.756310 0.206624 0.325454 0.135756
H36   H     H_    0.213560 0.276026 0.356710 0.137830
H37   H     H_    0.229163 0.739825 0.359433 0.137726
H38   H     H_    0.564443 0.722089 0.574243 0.164724
H39   H     H_    0.599808 0.180994 0.530248 0.145160
H40   H     H_    0.061674 0.225358 0.574451 0.166658
H41   H     H_    0.268657 0.890786 0.514128 0.172044
H42   H     H_    0.110470 0.805016 0.583603 0.164517
H43   H     H_    0.348635 0.269715 0.350746 0.167354
H44   H     H_    0.362617 0.673891 0.332288 0.162039
H45   H     H_    0.849409 0.779996 0.354199 0.166601
H46   H     H_    0.854606 0.214764 0.377996 0.156111
H47   H     H_    0.381245 0.747979 0.187824 0.088059
H48   H     H_    0.330239 0.221607 0.196654 0.098071
H49   H     H_    0.842155 0.271591 0.187868 0.093588
H50   H     H_    0.834443 0.726107 0.197508 0.096875
H51   H     H_    0.220849 0.717609 0.134942 0.125081
H52   H     H_    0.669818 0.589830 0.518305 0.179529
H53   H     H_    0.304875 0.334427 0.008775 0.124661
H54   H     H_    0.799131 0.170769 0.017309 0.124134
H55   H     H_    0.800042 0.830275 0.015681 0.123362
H56   H     H_    0.308072 0.946367 0.912766 0.099157
H57   H     H_    0.362123 0.085778 0.834839 0.091380
H58   H     H_    0.860414 0.414630 0.836637 0.095496
H59   H     H_    0.860461 0.584343 0.836691 0.094371
H60   H     H_    0.349324 0.043136 0.376398 0.087762
H61   H     H_    0.404185 0.926785 0.365417 0.083324
H62   H     H_    0.865337 0.560167 0.378796 0.081576
H63   H     H_    0.663362 0.395634 0.486925 0.183089
H64   H     H_    0.861020 0.436982 0.382590 0.086106
H65   H     H_    0.670046 0.228507 0.907872 0.117139
H66   H     H_    0.670155 0.771344 0.905772 0.113660
H67   H     H_    0.120511 0.754795 0.981492 0.105511
H68   H     H_    0.172766 0.273247 0.903464 0.117475
H69   H     H_    0.572829 0.077433 0.651432 0.138186
H70   H     H_    0.587358 0.928939 0.641918 0.147670
H71   H     H_    0.078679 0.577425 0.646529 0.133577
H72   H     H_    0.094052 0.429688 0.637751 0.146101
H73   H     H_    0.246878 0.091021 0.523714 0.164335
H74   H     H_    0.596462 0.657494 0.674465 0.187853
H75   H     H_    0.348811 0.832299 0.503613 0.173673
H76   H     H_    0.756278 0.599290 0.525209 0.165323
H77   H     H_    0.730306 0.399546 0.528474 0.160163
H78   H     H_    0.381908 0.251928 0.025022 0.088242
H79   H     H_    0.333458 0.774761 0.094320 0.088290
H80   H     H_    0.880051 0.751214 0.027020 0.083235
H81   H     H_    0.883101 0.248423 0.022319 0.087536
H82   H     H_    0.186695 0.170055 0.661093 0.205832
H83   H     H_    0.250820 0.769463 0.654133 0.196925
H84   H     H_    0.690041 0.677120 0.664048 0.202760
H85   H     H_    0.573851 0.307147 0.619352 0.177761
H86   H     H_    0.624513 0.339642 0.676079 0.209095
H87   H     H_    0.786288 0.758878 0.628492 0.224695
H88   H     H_    0.853897 0.833032 0.537928 0.252917
H89   H     H_    0.752933 0.859669 0.654825 0.254473
H90   H     H_    0.751290 0.338458 0.640765 0.240119
H91   H     H_    0.749897 0.250854 0.706721 0.252034
H92   H     H_    0.844751 0.286029 0.592068 0.244501
H93   H     H_    0.288261 0.244780 0.622855 0.224360
H94   H     H_    0.358734 0.317298 0.532015 0.253144
H95   H     H_    0.259693 0.346716 0.650172 0.253736
H96   H     H_    0.090758 0.157274 0.674999 0.187202
H97   H     H_    0.319602 0.658506 0.597413 0.229734
H98   H     H_    0.250850 0.576971 0.630126 0.257123
H99   H     H_    0.353725 0.578106 0.506684 0.252750
H100  H     H_    0.596451 0.707914 0.376130 0.257843
H101  H     H_    0.690033 0.651054 0.298630 0.262919
H102  H     H_    0.609985 0.625340 0.436003 0.252237
H103  H     H_    0.625204 0.227696 0.354733 0.257042
H104  H     H_    0.594370 0.303853 0.451940 0.260242
H105  H     H_    0.680764 0.318931 0.313250 0.266915
H106  H     H_    0.181715 0.152447 0.299532 0.261852
H107  H     H_    0.174690 0.831418 0.661568 0.195680
H108  H     H_    0.100209 0.129337 0.437497 0.253873
H109  H     H_    0.091672 0.213984 0.376083 0.258461
H110  H     H_    0.133131 0.855896 0.410713 0.257515
H111  H     H_    0.189819 0.908681 0.450231 0.248867
H112  H     H_    0.240603 0.878834 0.312570 0.268774
H113  H     H_    0.612908 0.888274 0.486891 0.264890
H114  H     H_    0.550290 0.821863 0.473813 0.264470
H115  H     H_    0.514884 0.851395 0.604177 0.259056
H116  H     H_    0.771912 0.101453 0.386221 0.253241
H117  H     H_    0.700515 0.062252 0.514183 0.276088
H118  H     H_    0.347387 0.203405 0.438778 0.182230
H119  H     H_    0.670659 0.072369 0.425909 0.259248
H120  H     H_    0.118019 0.389895 0.484155 0.263647
H121  H     H_    0.051819 0.327347 0.472966 0.265402
H122  H     H_    0.018305 0.356287 0.602558 0.258065
H123  H     H_    0.061343 0.736985 0.488711 0.265919
H124  H     H_    0.102619 0.646578 0.496239 0.265968
H125  H     H_    0.023564 0.697929 0.616564 0.261525
H126  H     H_    0.728237 0.934561 0.535696 0.258717
H127  H     H_    0.828053 0.905091 0.425840 0.251563
H128  H     H_    0.743210 0.887909 0.419289 0.235076
N1    N     N_R   0.408680 0.130160 0.995800 -0.038677
N2    N     N_R   0.403730 0.078230 0.935950 -0.036793
N3    N     N_R   0.903730 0.421770 0.935950 -0.038080
N4    N     N_R   0.903730 0.578230 0.935950 -0.037743
N5    N     N_R   0.426630 0.075970 0.212960 -0.040271
N6    N     N_R   0.426630 0.924030 0.212960 -0.034973
N7    N     N_R   0.926630 0.575970 0.212960 -0.035891
N8    N     N_R   0.926630 0.424030 0.212960 -0.035645
N9    N     N_R   0.591320 0.134600 0.004200 -0.048155
N10   N     N_R   0.591320 0.865400 0.004200 -0.045339
N11   N     N_R   0.091320 0.634600 0.004200 -0.045712
N12   N     N_R   0.408680 0.869840 0.995800 -0.041660
N13   N     N_R   0.091320 0.365400 0.004200 -0.048252
N14   N     N_R   0.578320 0.867660 0.846880 -0.056588
N15   N     N_R   0.578320 0.132340 0.846880 -0.055224
N16   N     N_R   0.078320 0.367660 0.846880 -0.056260
N17   N     N_R   0.078320 0.632340 0.846880 -0.053808
N18   N     N_R   0.573370 0.074390 0.787040 -0.050059
N19   N     N_R   0.573370 0.925610 0.787040 -0.054372
N20   N     N_R   0.073370 0.574390 0.787040 -0.056326
N21   N     N_R   0.073370 0.425610 0.787040 -0.053833
N22   N     N_R   0.596270 0.927870 0.064040 -0.039604
N23   N     N_R   0.908680 0.630160 0.995800 -0.041745
N24   N     N_R   0.596270 0.072130 0.064040 -0.041177
N25   N     N_R   0.096270 0.427870 0.064040 -0.042437
N26   N     N_R   0.096270 0.572130 0.064040 -0.040238
N27   N     N_R   0.908680 0.369840 0.995800 -0.040975
N28   N     N_R   0.421680 0.867580 0.153120 -0.036513
N29   N     N_R   0.421680 0.132420 0.153120 -0.038672
N30   N     N_R   0.921680 0.367580 0.153120 -0.037453
N31   N     N_R   0.921680 0.632420 0.153120 -0.037042
N32   N     N_R   0.403730 0.921770 0.935950 -0.038276
Ni1   Ni    Ni4+2 0.500000 0.131190 0.000000 0.205204
Ni2   Ni    Ni4+2 0.500000 0.868810 0.000000 0.206560
Ni3   Ni    Ni4+2 0.000000 0.631190 0.000000 0.204806
Ni4   Ni    Ni4+2 0.000000 0.368810 0.000000 0.204167
Ni5   Ni    Ni4+2 0.488650 0.000000 0.862740 0.200781
Ni6   Ni    Ni4+2 0.988650 0.500000 0.862740 0.199340
Ni7   Ni    Ni4+2 0.511350 0.000000 0.137260 0.209628
Ni8   Ni    Ni4+2 0.011350 0.500000 0.137260 0.210264

loop_
_geom_bond_atom_site_label_1
_geom_bond_atom_site_label_2
_ccdc_geom_bond_type
C33   C55   S    
C46   C99   S    
C18   C36   S    
C34   C56   S    
C86   N11   A    
N6    N28   A    
C38   C83   S    
C70   C78   A    
C97   H89   S    
C64   C77   S    
C7    H9    S    
C67   C77   A    
C18   H1    S    
C76   N25   A    
N20   Ni6   S    
N11   N26   A    
N15   Ni1   S    
C29   C38   S    
C48   C101  S    
N25   Ni8   S    
C108  H122  S    
C1    H78   S    
C33   H35   S    
C68   C75   A    
C34   H36   S    
N21   Ni6   S    
C33   C39   S    
C23   C42   S    
N19   Ni5   S    
N10   N22   A    
C97   H88   S    
C35   C37   S    
N7    N31   A    
C65   C98   A    
C60   C98   S    
C58   H51   S    
C25   C40   S    
C35   H37   S    
C100  H95   S    
C30   H24   S    
C106  H113  S    
C20   C25   S    
C66   C75   S    
C43   C79   A    
C68   N2    A    
C51   N30   A    
C20   C38   S    
C13   C88   A    
C2    C85   A    
C60   C62   D    
C86   H67   S    
C94   H70   S    
C61   C63   D    
N9    N24   A    
N29   Ni1   S    
C10   H23   S    
C6    H6    S    
C84   C98   A    
C19   C37   S    
C42   C56   S    
C69   H58   S    
N24   Ni7   S    
N31   Ni3   S    
C53   C106  S    
N18   Ni5   S    
C41   C55   S    
N7    Ni8   S    
C50   H48   S    
C96   N21   A    
C105  H111  S    
C29   H13   S    
N32   Ni5   S    
C60   H54   S    
C41   C46   S    
C10   H25   S    
C29   C45   S    
C17   C95   A    
N2    Ni5   S    
C101  H99   S    
N4    Ni6   S    
C103  H105  S    
C74   H64   S    
C22   H63   S    
C2    C61   S    
C108  H121  S    
C99   H92   S    
C12   C58   S    
C68   H57   S    
C21   C77   A    
C40   C53   S    
C50   N29   A    
C51   C82   A    
C12   C86   A    
C25   H74   S    
N1    N2    A    
N17   Ni3   S    
C52   H50   S    
C4    H128  S    
C7    H10   S    
N3    N27   A    
C17   C92   A    
C70   N4    A    
C74   C82   A    
C3    H123  S    
C67   H56   S    
C49   N28   A    
C49   H47   S    
N16   N21   A    
C21   H79   S    
C21   N12   A    
C4    C45   S    
C76   H32   S    
C58   C64   D    
C40   C45   S    
C104  H109  S    
C37   C80   S    
C16   C96   A    
C9    H20   S    
C89   N14   A    
C32   H80   S    
C18   C23   S    
C1    C75   A    
C31   C102  S    
C7    H11   S    
C62   C79   S    
C65   N24   A    
C71   N5    A    
C2    C54   A    
C19   H75   S    
C93   H69   S    
C93   N18   A    
N16   Ni4   S    
N15   N18   A    
C8    H18   S    
C108  H120  S    
C18   H73   S    
C1    N1    A    
C9    H22   S    
C14   C40   S    
C51   H49   S    
C96   H72   S    
C47   C100  S    
C55   C107  S    
C84   N9    A    
C54   H30   S    
C56   H40   S    
C52   C83   A    
N9    Ni1   S    
C14   C89   A    
C15   C93   A    
C59   H53   S    
C11   H27   S    
N11   Ni3   S    
C100  H93   S    
C8    H17   S    
C8    H19   S    
C55   H39   S    
C106  H115  S    
C73   N7    A    
C13   C76   A    
C44   C57   S    
C105  H112  S    
C6    H8    S    
C57   H42   S    
C104  H106  S    
C85   H66   S    
C102  H101  S    
C26   C41   S    
C31   C53   S    
C91   N16   A    
C69   N3    A    
C87   N26   A    
C104  H108  S    
C19   H41   S    
N30   Ni4   S    
C101  H97   S    
C13   C59   S    
C3    C57   S    
C14   C94   A    
C95   H71   S    
N27   Ni4   S    
C10   C91   S    
C103  H104  S    
C70   H59   S    
C71   H60   S    
C22   C26   S    
C85   N10   A    
C24   C44   S    
C4    H127  S    
N5    N29   A    
C69   C79   A    
C66   H16   S    
N14   Ni2   S    
C9    C90   S    
C103  H103  S    
C84   H65   S    
C26   H86   S    
C16   C42   S    
N6    Ni7   S    
C63   H14   S    
N23   Ni3   S    
C36   C81   S    
C29   H45   S    
C107  H116  S    
C90   N15   A    
C27   C47   S    
N14   N19   A    
C28   C48   S    
C72   H61   S    
N28   Ni2   S    
C11   C92   S    
C12   C87   A    
C5    H5    S    
N22   Ni7   S    
C33   C103  S    
C4    H126  S    
C30   C46   S    
C32   N23   A    
C102  H102  S    
C10   H26   S    
C39   C82   S    
C27   H43   S    
N10   Ni2   S    
C25   H84   S    
C61   H55   S    
C3    H124  S    
C100  H94   S    
N17   N20   A    
N26   Ni8   S    
C49   C80   A    
C27   H118  S    
C28   H44   S    
N12   N32   A    
C5    H4    S    
C9    H21   S    
C87   H33   S    
C64   H15   S    
C5    H3    S    
C5    C46   S    
C88   H68   S    
C31   C38   S    
C20   H76   S    
C23   H96   S    
C35   C57   S    
C27   C36   S    
C28   H2    S    
C7    C48   S    
C97   H87   S    
C31   H34   S    
C19   C24   S    
C11   H29   S    
C17   C44   S    
C74   N8    A    
C62   H12   S    
C59   C66   D    
C45   C97   S    
C11   H28   S    
C92   N17   A    
C15   C90   A    
C43   N27   A    
C67   N32   A    
N5    Ni7   S    
C106  H114  S    
C35   C105  S    
C28   C37   S    
C22   H77   S    
C54   N22   A    
C22   C39   S    
C107  H117  S    
C99   H90   S    
C53   H38   S    
C24   H107  S    
C34   C36   S    
N13   Ni4   S    
C30   C39   S    
C24   H83   S    
N8    N30   A    
C42   C47   S    
N4    N23   A    
C34   C104  S    
C6    H7    S    
C72   N6    A    
C101  H98   S    
C15   C41   S    
C32   C78   A    
C65   H31   S    
C6    C47   S    
C107  H119  S    
C30   H46   S    
C52   N31   A    
N12   Ni2   S    
C43   H81   S    
C16   C91   A    
C72   C80   A    
C105  H110  S    
C20   H52   S    
N3    Ni6   S    
C99   H91   S    
N8    Ni8   S    
C56   C108  S    
N1    Ni1   S    
C8    C89   S    
N13   N25   A    
C73   H62   S    
C94   N19   A    
C26   H85   S    
C102  H100  S    
C95   N20   A    
C73   C83   A    
C23   H82   S    
C3    H125  S    
C44   C48   S    
C50   C81   A    
C88   N13   A    
C71   C81   A    
C63   C78   S    
