data_mof_unit_44366.cif
_audit_creation_date              2012-12-10T18:10:22-0500
_audit_creation_method            fapswitch 2.2
_symmetry_space_group_name_H-M    P1
_symmetry_Int_Tables_number       1
_space_group_crystal_system       triclinic
_cell_length_a                    11.115069
_cell_length_b                    9.670773
_cell_length_c                    15.926649
_cell_angle_alpha                 86.768658
_cell_angle_beta                  88.923691
_cell_angle_gamma                 91.179173
_cell_volume                      1708.55134655

loop_
_atom_site_label
_atom_site_type_symbol
_atom_type_description
_atom_site_fract_x
_atom_site_fract_y
_atom_site_fract_z
_atom_type_partial_charge
C1    C     C_R   0.257835 0.497450 0.501175 0.911011
C2    C     C_3   0.622802 0.603579 0.937476 0.666254
C3    C     C_3   0.637255 0.601569 0.038876 0.790817
C4    C     C_1   0.503891 0.493184 0.824527 0.215240
C5    C     C_1   0.520099 0.518994 0.175036 0.152280
C6    C     C_1   0.512533 0.513346 0.250772 -0.083881
C7    C     C_3   0.066218 0.647820 0.516828 0.666976
C8    C     C_3   0.054444 0.371845 0.571417 0.667466
C9    C     C_3   0.923953 0.648713 0.524995 0.244883
C10   C     C_3   0.912285 0.395894 0.579057 0.193081
C11   C     C_3   0.060325 0.454792 0.417003 -0.428405
C12   C     C_3   0.114563 0.491879 0.503585 -0.255115
C13   C     C_3   0.872564 0.502168 0.507954 -0.131430
C14   C     C_R   0.503347 0.503803 0.340711 0.845095
C15   C     C_3   0.921391 0.460769 0.420639 -0.589967
C16   C     C_3   0.624407 0.087203 0.493197 -0.347109
C17   C     C_3   0.625360 0.920949 0.503534 -0.321795
C18   C     C_3   0.458019 0.079235 0.584805 0.326541
C19   C     C_3   0.449052 0.912094 0.582434 0.358218
C20   C     C_3   0.418754 0.073976 0.436914 0.322190
C21   C     C_3   0.452814 0.920934 0.422741 0.252163
C22   C     C_R   0.737623 0.501085 0.503246 0.861226
C23   C     C_R   0.498833 0.496733 0.659312 0.757263
C24   C     C_3   0.399118 0.573255 0.049157 0.017921
C25   C     C_3   0.527889 0.362630 0.057419 0.117305
C26   C     C_3   0.532902 0.357412 0.960343 0.163369
C27   C     C_3   0.393752 0.573925 0.951921 0.188297
C28   C     C_1   0.500704 0.490348 0.749100 -0.176442
C29   C     C_3   0.524631 0.517695 0.082351 -0.279326
C30   C     C_3   0.509865 0.505189 0.916424 -0.273915
Cu1   Cu    Cu3+1 0.499860 0.642410 0.500040 1.052120
Cu2   Cu    Cu3+1 0.499860 0.357590 0.500040 1.043216
H1    H     H_    0.884723 0.716549 0.474916 0.168644
H2    H     H_    0.864645 0.297681 0.566791 0.165557
H3    H     H_    0.095196 0.520098 0.362745 0.262536
H4    H     H_    0.083728 0.352453 0.396790 0.269707
H5    H     H_    0.890977 0.536165 0.370513 0.239373
H6    H     H_    0.882091 0.358913 0.405230 0.244768
H7    H     H_    0.683761 0.127901 0.542025 0.170166
H8    H     H_    0.668955 0.890340 0.563168 0.130350
H9    H     H_    0.667796 0.128309 0.434002 0.264230
H10   H     H_    0.689526 0.879722 0.458537 0.266579
H11   H     H_    0.528102 0.103268 0.631622 0.021286
H12   H     H_    0.509037 0.872094 0.633805 0.047662
H13   H     H_    0.331226 0.053836 0.468020 0.185984
H14   H     H_    0.370444 0.862715 0.408891 0.194891
H15   H     H_    0.330073 0.496713 0.074844 0.191150
H16   H     H_    0.441889 0.313900 0.081517 0.208809
H17   H     H_    0.626269 0.333285 0.941687 0.203237
H18   H     H_    0.395321 0.683131 0.926533 0.184441
N1    N     N_3   0.500250 0.143650 0.501830 -0.242880
N2    N     N_3   0.500250 0.856350 0.501830 -0.256105
O1    O     O_R   0.317570 0.620260 0.500050 -0.505639
O2    O     O_R   0.317570 0.379740 0.500050 -0.467017
O3    O     O_R   0.499890 0.620310 0.379470 -0.524232
O4    O     O_R   0.499890 0.379690 0.379470 -0.497749
O5    O     O_R   0.682190 0.620260 0.500020 -0.558362
O6    O     O_R   0.682190 0.379740 0.500020 -0.636122
O7    O     O_R   0.499870 0.620210 0.620600 -0.581151
O8    O     O_R   0.499870 0.379790 0.620600 -0.607132
S1    S     S_3+6 0.248370 0.507976 0.918974 0.012087
O9    O     O_2   0.152627 0.610577 0.935932 -0.276630
O10   O     O_2   0.249931 0.487293 0.826339 -0.346733
O11   O     O_3   0.210239 0.358384 0.972797 -0.468184
H19   H     H_    0.133310 0.328211 0.948471 0.378321
S2    S     S_3+6 0.449634 0.207871 0.925593 0.046458
O12   O     O_2   0.360040 0.248481 0.860448 -0.308177
O13   O     O_2   0.537618 0.111527 0.888092 -0.309994
O14   O     O_3   0.375457 0.121025 0.005832 -0.401388
H20   H     H_    0.324398 0.051714 0.978972 0.404479
S3    S     S_3+6 0.361496 0.157565 0.338534 0.126064
O15   O     O_2   0.456749 0.191966 0.272565 -0.177504
O16   O     O_2   0.274944 0.055444 0.303195 -0.216013
O17   O     O_3   0.284365 0.302370 0.350083 -0.534889
H21   H     H_    0.259951 0.332926 0.292572 0.349514
S4    S     S_3+6 0.553197 0.908290 0.327647 0.045963
O18   O     O_2   0.473782 0.884532 0.254882 -0.193917
O19   O     O_2   0.625423 0.039088 0.308291 -0.279699
O20   O     O_3   0.656781 0.783493 0.331986 -0.553749
H22   H     H_    0.703739 0.796803 0.278575 0.356933
O21   O     O_3   0.345037 0.134904 0.606224 -0.496939
C31   C     C_3   0.337598 0.173226 0.690451 -0.015258
H23   H     H_    0.319830 0.284980 0.691248 0.218675
H24   H     H_    0.417715 0.151511 0.729183 0.133571
H25   H     H_    0.260615 0.117372 0.722346 0.153996
O22   O     O_3   0.331488 0.861429 0.601837 -0.465502
C32   C     C_3   0.313283 0.851839 0.690856 -0.109151
H26   H     H_    0.376299 0.914419 0.727374 0.064257
H27   H     H_    0.324520 0.743924 0.715603 0.149464
H28   H     H_    0.223199 0.890410 0.706058 0.191316
S5    S     S_3+6 0.640426 0.250218 0.104955 0.081278
O23   O     O_2   0.756374 0.255679 0.054569 -0.265290
O24   O     O_2   0.666422 0.284970 0.193574 -0.270130
O25   O     O_3   0.584153 0.087826 0.106786 -0.384744
H29   H     H_    0.633645 0.034927 0.147651 0.402348
S6    S     S_3+6 0.340913 0.732475 0.088642 0.107306
O26   O     O_2   0.436303 0.841878 0.096951 -0.124669
O27   O     O_2   0.248875 0.792717 0.030214 -0.223483
O28   O     O_3   0.270347 0.696400 0.181954 -0.463086
H30   H     H_    0.334260 0.690486 0.224048 0.375537
O29   O     O_3   0.635326 0.738527 0.068741 -0.555324
C33   C     C_3   0.736299 0.825844 0.046595 -0.098362
H31   H     H_    0.709721 0.909943 0.000859 0.244984
H32   H     H_    0.814900 0.773349 0.021720 0.119227
H33   H     H_    0.767257 0.874579 0.103915 0.148815
O30   O     O_3   0.746391 0.532245 0.060279 -0.575051
C34   C     C_3   0.796852 0.562254 0.138769 -0.128243
H34   H     H_    0.735836 0.613503 0.182415 0.142895
H35   H     H_    0.879239 0.627893 0.127880 0.161370
H36   H     H_    0.827216 0.464975 0.170795 0.225019
O31   O     O_3   0.604098 0.744963 0.908642 -0.585989
C35   C     C_3   0.603763 0.772869 0.820441 -0.285037
H37   H     H_    0.510318 0.768218 0.798144 0.153726
H38   H     H_    0.661413 0.704402 0.784111 0.188705
H39   H     H_    0.637895 0.880406 0.806418 0.193693
O32   O     O_3   0.725875 0.545634 0.897370 -0.622809
C36   C     C_3   0.832420 0.628581 0.891306 -0.183158
H40   H     H_    0.891740 0.601987 0.944713 0.230899
H41   H     H_    0.817923 0.741568 0.885023 0.155011
H42   H     H_    0.882619 0.602486 0.833636 0.186697
S7    S     S_3+6 0.103743 0.767332 0.423966 0.015167
O33   O     O_2   0.133335 0.907014 0.455260 -0.189881
O34   O     O_2   0.209393 0.721893 0.373186 -0.317896
O35   O     O_3   0.989859 0.785739 0.356107 -0.597854
H43   H     H_    0.013020 0.867331 0.318440 0.403349
S8    S     S_3+6 0.067604 0.192929 0.536570 0.008666
O36   O     O_2   0.172813 0.184395 0.479167 -0.216387
O37   O     O_2   0.086129 0.090219 0.608961 -0.281077
O38   O     O_3   0.946381 0.138661 0.484137 -0.624270
H44   H     H_    0.975506 0.120436 0.426742 0.391027
O39   O     O_3   0.123259 0.713927 0.584032 -0.529277
C37   C     C_3   0.110542 0.647944 0.664989 -0.186869
H45   H     H_    0.192916 0.590555 0.680071 0.217208
H46   H     H_    0.030507 0.584177 0.674838 0.246936
H47   H     H_    0.097127 0.724857 0.712612 0.142334
O40   O     O_3   0.120371 0.374879 0.647694 -0.644138
C38   C     C_3   0.065600 0.311152 0.721932 -0.155388
H48   H     H_    0.004090 0.223698 0.710914 0.175996
H49   H     H_    0.020394 0.388565 0.759529 0.201557
H50   H     H_    0.135545 0.271234 0.764395 0.187447
O41   O     O_3   0.878354 0.693064 0.603025 -0.568185
C39   C     C_3   0.887529 0.838487 0.608627 -0.191655
H51   H     H_    0.818648 0.869881 0.654650 0.124759
H52   H     H_    0.874878 0.898119 0.547976 0.198111
H53   H     H_    0.974421 0.869218 0.634642 0.244589
O42   O     O_3   0.872661 0.439640 0.658739 -0.580407
C40   C     C_3   0.780934 0.352485 0.696999 -0.333284
H54   H     H_    0.812197 0.246327 0.712537 0.142353
H55   H     H_    0.703302 0.344197 0.655951 0.188937
H56   H     H_    0.750733 0.396953 0.756220 0.230097

loop_
_geom_bond_atom_site_label_1
_geom_bond_atom_site_label_2
_ccdc_geom_bond_type
C14   O4    A    
C32   H26   S    
S8    O36   D    
C8    O40   S    
S2    O13   D    
C40   H54   S    
C24   C27   S    
Cu2   O6    S    
Cu1   N2    S    
C19   O22   S    
C22   O5    A    
C35   H38   S    
O21   C31   S    
Cu2   N1    S    
C23   O7    A    
C38   H49   S    
C21   S4    S    
O29   C33   S    
C11   H4    S    
C40   H55   S    
S4    O19   D    
O42   C40   S    
C20   N1    S    
C36   H41   S    
C5    C6    T    
S2    O14   S    
S5    O24   D    
O30   C34   S    
S6    O28   S    
C18   O21   S    
O32   C36   S    
C33   H33   S    
S1    O10   D    
C18   C19   S    
Cu1   O7    S    
C3    C29   S    
C1    O1    A    
C17   H10   S    
C15   H5    S    
S7    O35   S    
C9    C13   S    
C27   S1    S    
C24   C29   S    
C2    O32   S    
C19   N2    S    
O28   H30   S    
C16   C17   S    
S6    O27   D    
C34   H34   S    
S4    O20   S    
C20   S3    S    
C7    O39   S    
C20   H13   S    
C27   H18   S    
C3    O29   S    
C14   O3    A    
C27   C30   S    
C9    H1    S    
C34   H35   S    
C39   H53   S    
C33   H31   S    
C1    C12   S    
C11   C15   S    
C7    S7    S    
C17   N2    S    
Cu2   O2    S    
C35   H37   S    
C4    C28   T    
C18   N1    S    
C5    C29   S    
C3    O30   S    
C25   C29   S    
C23   O8    A    
C38   H50   S    
C2    O31   S    
C25   S5    S    
O17   H21   S    
C26   S2    S    
C40   H56   S    
S4    O18   D    
C36   H42   S    
S5    O23   D    
S3    O16   D    
C9    O41   S    
O22   C32   S    
C37   H45   S    
S8    O38   S    
C25   C26   S    
O41   C39   S    
C17   H8    S    
S1    O11   S    
C1    O2    A    
C15   H6    S    
C6    C14   S    
Cu1   Cu2   S    
C13   C15   S    
C8    C12   S    
S1    O9    D    
S6    O26   D    
O25   H29   S    
C10   H2    S    
C23   C28   S    
Cu1   O1    S    
C33   H32   S    
C25   H16   S    
S7    O33   D    
C10   O42   S    
C37   H46   S    
C8    S8    S    
C26   C30   S    
C31   H24   S    
C32   H27   S    
C34   H36   S    
C39   H52   S    
C7    C12   S    
C26   H17   S    
Cu2   O8    S    
O39   C37   S    
C19   H12   S    
O38   H44   S    
C7    C9    S    
C16   N1    S    
S8    O37   D    
O31   C35   S    
C24   H15   S    
O40   C38   S    
C10   C13   S    
C22   O6    A    
S3    O17   S    
C11   C12   S    
C31   H25   S    
C38   H48   S    
C2    C30   S    
O11   H19   S    
Cu1   O5    S    
C24   S6    S    
C2    C3    S    
S3    O15   D    
C36   H40   S    
S5    O25   S    
C37   H47   S    
C11   H3    S    
C13   C22   S    
S2    O12   D    
C35   H39   S    
O14   H20   S    
S7    O34   D    
C16   H7    S    
O20   H22   S    
C21   H14   S    
C20   C21   S    
C8    C10   S    
C31   H23   S    
C32   H28   S    
C39   H51   S    
Cu1   O3    S    
C18   H11   S    
C16   H9    S    
Cu2   O4    S    
C21   N2    S    
C4    C30   S    
O35   H43   S    
