data_mof_unit_17693.cif
_audit_creation_date              2012-10-26T17:10:30-0400
_audit_creation_method            fapswitch 2.2
_symmetry_space_group_name_H-M    P1
_symmetry_Int_Tables_number       1
_space_group_crystal_system       triclinic
_cell_length_a                    16.898716
_cell_length_b                    16.876758
_cell_length_c                    16.862862
_cell_angle_alpha                 67.565559
_cell_angle_beta                  67.593515
_cell_angle_gamma                 67.554449
_cell_volume                      3949.3317829

loop_
_atom_site_label
_atom_site_type_symbol
_atom_type_description
_atom_site_fract_x
_atom_site_fract_y
_atom_site_fract_z
_atom_type_partial_charge
C1    C     C_R   0.588895 0.046315 0.592016 0.052769
C2    C     C_R   0.170598 0.434183 0.973971 0.618199
C3    C     C_3   0.784561 0.795318 0.124615 -0.337863
C4    C     C_3   0.216726 0.212823 0.102533 0.023096
C5    C     C_3   0.172750 0.140881 0.123535 -0.334260
C6    C     C_R   0.566792 0.022776 0.830008 0.599816
C7    C     C_R   0.435999 0.969670 0.171175 0.591772
C8    C     C_R   0.430314 0.168136 0.986203 0.605490
C9    C     C_R   0.565410 0.829045 0.027259 0.573977
C10   C     C_R   0.979282 0.431530 0.170171 0.603438
C11   C     C_R   0.027533 0.565261 0.828851 0.587992
C12   C     C_R   0.169620 0.982221 0.430989 0.600602
C13   C     C_R   0.829537 0.023239 0.566782 0.608440
C14   C     C_R   0.541890 0.023507 0.545717 0.015084
C15   C     C_R   0.407391 0.979950 0.397854 0.067850
C16   C     C_R   0.458848 0.989706 0.447995 0.042577
C17   C     C_R   0.025560 0.544050 0.539661 0.017358
C18   C     C_R   0.993208 0.444576 0.456504 0.038604
C19   C     C_R   0.548052 0.544686 0.014970 0.020587
C20   C     C_R   0.452207 0.461170 0.979379 0.039737
C21   C     C_R   0.586380 0.013018 0.458628 0.235998
C22   C     C_R   0.432649 0.963390 0.542273 0.227004
C23   C     C_R   0.015173 0.456846 0.584229 0.238065
C24   C     C_R   0.966930 0.538658 0.429717 0.230058
C25   C     C_R   0.460689 0.588371 0.005281 0.239666
C26   C     C_R   0.046800 0.591129 0.587944 0.055474
C27   C     C_R   0.546293 0.437109 0.951192 0.230382
C28   C     C_R   0.536510 0.019143 0.404288 0.294829
C29   C     C_R   0.463049 0.993965 0.590655 0.247758
C30   C     C_R   0.407565 0.537971 0.010207 0.284579
C31   C     C_R   0.594132 0.467363 0.982564 0.247831
C32   C     C_R   0.022123 0.401755 0.534511 0.286112
C33   C     C_R   0.997056 0.587427 0.459667 0.241955
C34   C     C_R   0.550357 0.055785 0.678679 0.218192
C35   C     C_R   0.450722 0.948081 0.321374 0.199018
C36   C     C_R   0.056791 0.678132 0.548454 0.211190
C37   C     C_R   0.982410 0.393899 0.406269 0.065808
C38   C     C_R   0.947080 0.320013 0.450614 0.204679
C39   C     C_R   0.678569 0.549840 0.054027 0.217345
C40   C     C_R   0.322976 0.446770 0.947318 0.203451
C41   C     C_R   0.312827 0.002661 0.426587 0.201656
C42   C     C_R   0.676065 0.056462 0.551876 0.214493
C43   C     C_R   0.432895 0.312078 0.998969 0.200829
C44   C     C_R   0.550967 0.677057 0.054382 0.214511
C45   C     C_R   0.005997 0.420577 0.311788 0.192910
C46   C     C_R   0.057744 0.549795 0.675714 0.210556
C47   C     C_R   0.605406 0.029052 0.734678 -0.016862
C48   C     C_R   0.592866 0.590584 0.041337 0.056464
C49   C     C_R   0.399809 0.954214 0.268894 -0.001829
C50   C     C_R   0.041395 0.731950 0.602276 -0.016598
C51   C     C_R   0.948047 0.269198 0.400682 0.034136
C52   C     C_R   0.732210 0.602622 0.041204 -0.019155
C53   C     C_R   0.266040 0.394242 0.967403 0.020744
C54   C     C_R   0.265625 0.978190 0.389894 -0.011176
C55   C     C_R   0.733549 0.029703 0.605787 -0.009474
C56   C     C_R   0.388570 0.261970 0.988984 -0.013180
C57   C     C_R   0.603028 0.731571 0.041310 -0.022420
C58   C     C_R   0.974795 0.388468 0.265908 -0.015171
C59   C     C_R   0.402450 0.406548 0.974223 0.068046
C60   C     C_R   0.042231 0.602462 0.730955 -0.023567
C61   C     C_R   0.698339 0.005887 0.698841 0.152755
C62   C     C_R   0.310224 0.954705 0.309329 0.142818
C63   C     C_R   0.038995 0.692805 0.692497 0.143402
C64   C     C_R   0.944078 0.310922 0.311695 0.173317
C65   C     C_R   0.693160 0.692842 0.038942 0.143219
C66   C     C_R   0.299461 0.300997 0.988950 0.176440
C67   C     C_3   0.333443 0.998624 0.711031 0.056120
C68   C     C_3   0.294515 0.024847 0.798228 -0.352650
C69   C     C_3   0.648650 0.054835 0.271123 0.062457
C70   C     C_R   0.027199 0.829167 0.565323 0.581750
C71   C     C_3   0.664737 0.095375 0.171060 -0.337342
C72   C     C_3   0.024706 0.699269 0.329165 0.065312
C73   C     C_3   0.012999 0.799355 0.290261 -0.377310
C74   C     C_3   0.054696 0.269378 0.648697 0.070558
C75   C     C_3   0.092460 0.168957 0.666345 -0.333493
C76   C     C_3   0.715258 0.338542 0.987526 0.067450
C77   C     C_3   0.804558 0.301146 0.009573 -0.366245
C78   C     C_3   0.272901 0.647373 0.049224 0.062885
C79   C     C_3   0.173168 0.660989 0.089752 -0.346016
C80   C     C_3   0.433545 0.817994 0.592230 -0.030797
C81   C     C_R   0.967173 0.171218 0.436620 0.608502
C82   C     C_3   0.379062 0.753513 0.656413 -0.355329
C83   C     C_3   0.695355 0.882923 0.483875 -0.044567
C84   C     C_3   0.791898 0.835878 0.446566 -0.336320
C85   C     C_3   0.594172 0.437356 0.805901 -0.035908
C86   C     C_3   0.657634 0.382458 0.741401 -0.326196
C87   C     C_3   0.478952 0.698777 0.875718 -0.050623
C88   C     C_3   0.452804 0.798701 0.834698 -0.340663
C89   C     C_3   0.821359 0.588246 0.432095 -0.019107
C90   C     C_3   0.756037 0.648850 0.377426 -0.346619
C91   C     C_3   0.881360 0.480085 0.688077 -0.051508
C92   C     C_R   0.829220 0.565299 0.027348 0.589165
C93   C     C_3   0.834816 0.456112 0.786865 -0.336316
C94   C     C_3   0.777110 0.878212 0.777431 -0.006594
C95   C     C_3   0.837990 0.841207 0.837823 -0.288345
C96   C     C_3   0.282237 0.849281 0.279236 0.045738
C97   C     C_3   0.235327 0.835474 0.226517 -0.306804
C98   C     C_3   0.126104 0.734296 0.735992 0.046847
C99   C     C_3   0.124374 0.784631 0.794944 -0.339220
C100  C     C_3   0.925110 0.235170 0.230529 0.048760
C101  C     C_3   0.870909 0.169875 0.258488 -0.314543
C102  C     C_3   0.734460 0.736239 0.126397 0.045789
Cl1   Cl    Cl    0.446420 0.135664 0.699716 -0.510867
Cl2   Cl    Cl    0.439679 0.702136 0.121836 -0.597454
Cl3   Cl    Cl    0.079616 0.488357 0.252006 -0.599637
Cl4   Cl    Cl    0.124056 0.437975 0.703428 -0.507948
Cl5   Cl    Cl    0.564459 0.886598 0.298624 -0.682046
Cl6   Cl    Cl    0.134619 0.698684 0.443207 -0.631964
Cl7   Cl    Cl    0.886379 0.299053 0.564756 -0.628707
Cl8   Cl    Cl    0.697363 0.442672 0.129562 -0.535787
Cl9   Cl    Cl    0.299316 0.558815 0.880773 -0.670578
Cl10  Cl    Cl    0.253754 0.072705 0.498077 -0.588466
Cl11  Cl    Cl    0.700253 0.129066 0.443397 -0.548978
Cl12  Cl    Cl    0.513320 0.256060 0.059255 -0.601204
Cu1   Cu    Cu3+1 0.995180 0.995180 0.424630 0.922617
Cu2   Cu    Cu3+1 0.004820 0.004820 0.575370 1.028347
Cu3   Cu    Cu3+1 0.995180 0.424630 0.995180 0.987355
Cu4   Cu    Cu3+1 0.004820 0.575370 0.004820 0.982428
Cu5   Cu    Cu3+1 0.424630 0.995180 0.995180 0.983482
Cu6   Cu    Cu3+1 0.575370 0.004820 0.004820 1.022712
H1    H     H_    0.315277 0.936942 0.725592 0.174035
H2    H     H_    0.637911 0.064078 0.143402 0.221942
H3    H     H_    0.997056 0.680431 0.291234 0.198260
H4    H     H_    0.097212 0.664255 0.316223 0.189017
H5    H     H_    0.026640 0.826364 0.332719 0.217809
H6    H     H_    0.059222 0.812957 0.222182 0.074372
H7    H     H_    0.944141 0.834407 0.284847 0.119692
H8    H     H_    0.985074 0.282471 0.692139 0.192176
H9    H     H_    0.096850 0.293471 0.666345 0.213075
H10   H     H_    0.164710 0.152954 0.632777 0.204790
H11   H     H_    0.082780 0.137081 0.739153 0.065800
H12   H     H_    0.301286 0.053249 0.660667 0.191668
H13   H     H_    0.058785 0.142180 0.641225 0.218639
H14   H     H_    0.727194 0.318673 0.927540 0.183807
H15   H     H_    0.666565 0.306387 0.044784 0.196561
H16   H     H_    0.794757 0.291248 0.081155 0.186999
H17   H     H_    0.839255 0.234883 0.996354 0.067070
H18   H     H_    0.847868 0.346214 0.968335 0.184426
H19   H     H_    0.283289 0.693095 0.980377 0.183517
H20   H     H_    0.297054 0.664420 0.091831 0.204678
H21   H     H_    0.159421 0.625101 0.161759 0.202650
H22   H     H_    0.139018 0.733081 0.082744 0.052737
H23   H     H_    0.287976 0.096225 0.785386 0.218400
H24   H     H_    0.146653 0.636143 0.055576 0.218895
H25   H     H_    0.491087 0.803860 0.617488 0.104213
H26   H     H_    0.459065 0.805458 0.525490 0.156303
H27   H     H_    0.321362 0.765080 0.633071 0.163888
H28   H     H_    0.421010 0.683757 0.660009 0.126459
H29   H     H_    0.354677 0.763241 0.724111 0.156557
H30   H     H_    0.652954 0.849391 0.478190 0.126523
H31   H     H_    0.684278 0.875012 0.555594 0.107163
H32   H     H_    0.836582 0.869543 0.447357 0.195760
H33   H     H_    0.807783 0.765555 0.487664 0.128696
H34   H     H_    0.226764 0.015237 0.831232 0.062466
H35   H     H_    0.802547 0.836886 0.377142 0.151306
H36   H     H_    0.618681 0.495783 0.790362 0.100676
H37   H     H_    0.526906 0.461655 0.795015 0.162597
H38   H     H_    0.634204 0.324560 0.753610 0.199602
H39   H     H_    0.660665 0.424275 0.671609 0.124539
H40   H     H_    0.725509 0.357833 0.750539 0.172324
H41   H     H_    0.457966 0.666967 0.842858 0.136383
H42   H     H_    0.552842 0.675752 0.862018 0.105150
H43   H     H_    0.486617 0.814059 0.762116 0.128436
H44   H     H_    0.473120 0.832500 0.865798 0.191170
H45   H     H_    0.336895 0.983249 0.844258 0.179790
H46   H     H_    0.379581 0.823294 0.845358 0.149164
H47   H     H_    0.807161 0.616259 0.487815 0.107886
H48   H     H_    0.809936 0.520903 0.460406 0.156467
H49   H     H_    0.768251 0.623004 0.321121 0.166930
H50   H     H_    0.686742 0.651507 0.420097 0.122278
H51   H     H_    0.764020 0.717298 0.350853 0.163548
H52   H     H_    0.851420 0.459112 0.653408 0.140863
H53   H     H_    0.869151 0.553908 0.664080 0.105796
H54   H     H_    0.863039 0.476313 0.823471 0.190334
H55   H     H_    0.762758 0.491353 0.797944 0.126383
H56   H     H_    0.692965 0.985407 0.282287 0.188334
H57   H     H_    0.843899 0.383040 0.811980 0.156319
H58   H     H_    0.813551 0.853221 0.717122 0.111989
H59   H     H_    0.716939 0.853282 0.814456 0.112032
H60   H     H_    0.803181 0.864800 0.898725 0.189890
H61   H     H_    0.857397 0.767160 0.857275 0.159139
H62   H     H_    0.898738 0.864784 0.802446 0.190781
H63   H     H_    0.256935 0.816060 0.351264 0.181383
H64   H     H_    0.354978 0.817542 0.255969 0.173237
H65   H     H_    0.263823 0.862833 0.153881 0.167783
H66   H     H_    0.243634 0.763239 0.241114 0.174802
H67   H     H_    0.666082 0.096386 0.296249 0.204281
H68   H     H_    0.163355 0.870608 0.245080 0.145779
H69   H     H_    0.162098 0.763230 0.666060 0.137082
H70   H     H_    0.163712 0.663262 0.758771 0.182450
H71   H     H_    0.088963 0.756890 0.865312 0.160885
H72   H     H_    0.193364 0.778044 0.791602 0.114899
H73   H     H_    0.089693 0.856429 0.772097 0.140577
H74   H     H_    0.995724 0.199058 0.229397 0.116702
H75   H     H_    0.922491 0.271340 0.160981 0.169233
H76   H     H_    0.801902 0.206999 0.253681 0.207998
H77   H     H_    0.901696 0.125820 0.213480 0.039383
H78   H     H_    0.632204 0.168016 0.157206 0.208863
H79   H     H_    0.868260 0.127545 0.327421 0.242855
H80   H     H_    0.763450 0.666380 0.162504 0.141695
H81   H     H_    0.663488 0.758958 0.163966 0.175627
H82   H     H_    0.756809 0.865591 0.088966 0.161375
H83   H     H_    0.777887 0.792175 0.193695 0.118583
H84   H     H_    0.856282 0.772521 0.089987 0.140918
H85   H     H_    0.167372 0.266475 0.133452 0.136256
H86   H     H_    0.273137 0.181784 0.133432 0.136912
H87   H     H_    0.220866 0.086372 0.093606 0.193262
H88   H     H_    0.150321 0.112593 0.196930 0.136877
H89   H     H_    0.737316 0.085034 0.138271 0.059556
H90   H     H_    0.114570 0.169577 0.095838 0.121683
O1    O     O_R   0.124540 0.978640 0.385460 -0.477330
O2    O     O_R   0.124540 0.385460 0.978640 -0.460695
O3    O     O_R   0.021360 0.875460 0.614540 -0.488418
O4    O     O_R   0.978640 0.124540 0.385460 -0.546918
O5    O     O_R   0.013780 0.867370 0.487190 -0.495593
O6    O     O_R   0.986220 0.132630 0.512810 -0.449337
O7    O     O_R   0.867370 0.487190 0.013780 -0.489463
O8    O     O_R   0.132630 0.512810 0.986220 -0.470185
O9    O     O_R   0.487190 0.013780 0.867370 -0.493031
O10   O     O_R   0.512810 0.986220 0.132630 -0.467953
O11   O     O_R   0.512810 0.132630 0.986220 -0.461840
O12   O     O_R   0.875460 0.021360 0.614540 -0.452890
O13   O     O_R   0.487190 0.867370 0.013780 -0.489095
O14   O     O_R   0.986220 0.512810 0.132630 -0.464316
O15   O     O_R   0.013780 0.487190 0.867370 -0.473625
O16   O     O_R   0.132630 0.986220 0.512810 -0.472334
O17   O     O_R   0.867370 0.013780 0.487190 -0.506154
O18   O     O_3   0.427685 0.981166 0.682851 -0.549332
O19   O     O_3   0.558451 0.054234 0.311230 -0.497667
O20   O     O_3   0.981320 0.679211 0.422351 -0.538108
O21   O     O_3   0.055797 0.308649 0.557850 -0.500301
O22   O     O_3   0.686404 0.433178 0.968465 -0.549903
O23   O     O_R   0.978640 0.385460 0.124540 -0.535065
O24   O     O_3   0.314893 0.557798 0.046615 -0.501018
O25   O     O_3   0.378878 0.906402 0.586935 -0.548141
O26   O     O_3   0.677558 0.974307 0.435734 -0.554325
O27   O     O_3   0.591160 0.383256 0.894197 -0.539895
O28   O     O_3   0.436581 0.679772 0.968378 -0.545391
O29   O     O_3   0.909246 0.583503 0.376496 -0.538405
O30   O     O_3   0.973336 0.435950 0.674825 -0.547884
O31   O     O_3   0.753695 0.972175 0.753872 -0.511203
O32   O     O_3   0.263843 0.941708 0.265305 -0.546106
O33   O     O_3   0.037401 0.742387 0.742575 -0.546544
O34   O     O_R   0.021360 0.614540 0.875460 -0.484784
O35   O     O_3   0.883997 0.295532 0.284215 -0.494106
O36   O     O_3   0.742700 0.742738 0.037519 -0.545921
O37   O     O_3   0.245363 0.247673 0.008770 -0.504089
O38   O     O_R   0.385460 0.124540 0.978640 -0.462314
O39   O     O_R   0.614540 0.875460 0.021360 -0.487416
O40   O     O_R   0.614540 0.021360 0.875460 -0.463110
O41   O     O_R   0.385460 0.978640 0.124540 -0.495316
O42   O     O_R   0.875460 0.614540 0.021360 -0.488211

loop_
_geom_bond_atom_site_label_1
_geom_bond_atom_site_label_2
_ccdc_geom_bond_type
C16   C28   A    
C97   H68   S    
C65   O36   S    
Cu6   O11   S    
C3    H84   S    
C22   C29   A    
C36   Cl6   S    
C3    H83   S    
C47   C61   A    
C89   O29   S    
C71   H2    S    
C67   H12   S    
C102  O36   S    
C13   O12   A    
Cu2   O6    S    
C43   C56   A    
C19   C31   A    
C78   H19   S    
C8    C56   S    
C82   H27   S    
C44   Cl2   S    
C4    H85   S    
C4    O37   S    
C20   C30   A    
C85   C86   S    
C97   H65   S    
C5    H90   S    
C101  H76   S    
Cu3   O15   S    
C17   C23   A    
C72   O20   S    
C91   H52   S    
C60   C63   A    
C18   C24   A    
C17   C26   S    
C67   O18   S    
C14   C21   A    
C10   C58   S    
C18   C37   S    
Cu6   O40   S    
C68   H34   S    
C85   H37   S    
C43   Cl12  S    
C99   H72   S    
C84   H35   S    
C101  H77   S    
C79   H22   S    
C5    H87   S    
C15   C16   S    
C98   C99   S    
C55   C61   A    
C93   H54   S    
Cu6   O10   S    
C91   H53   S    
C68   H23   S    
C94   H58   S    
C69   C71   S    
C89   H47   S    
C100  O35   S    
C39   Cl8   S    
C74   H8    S    
C76   O22   S    
C81   O4    A    
C45   Cl3   S    
C71   H89   S    
C41   Cl10  S    
C91   O30   S    
C35   C49   A    
C16   C22   A    
C56   C66   A    
Cu3   O7    S    
Cu4   O8    S    
C69   H56   S    
C86   H39   S    
C69   H67   S    
C85   O27   S    
C75   H10   S    
C10   O14   A    
C94   H59   S    
C83   H30   S    
C46   C60   A    
C68   H45   S    
C80   H26   S    
C39   C52   A    
C32   O21   S    
C40   C59   A    
C11   C60   S    
C72   H4    S    
C8    O38   A    
Cu5   O9    S    
C11   O34   A    
C52   C65   A    
C80   O25   S    
C92   O7    A    
C17   C33   A    
C96   H64   S    
C98   H69   S    
C67   H1    S    
C15   C35   A    
C76   H15   S    
Cu4   O34   S    
C1    C34   A    
C62   O32   S    
C40   Cl9   S    
C83   H31   S    
C66   O37   S    
C92   O42   A    
C61   O31   S    
C97   H66   S    
C45   C58   A    
C74   C75   S    
C64   O35   S    
C27   C31   A    
C67   C68   S    
C69   O19   S    
C77   H18   S    
C7    C49   S    
C80   C82   S    
C6    C47   S    
C101  H79   S    
C6    O40   A    
C78   C79   S    
C95   H61   S    
C38   C51   A    
C54   C62   A    
C58   C64   A    
C73   H7    S    
Cu4   O14   S    
C93   H55   S    
C30   O24   S    
C6    O9    A    
Cu1   O4    S    
Cu2   O16   S    
C20   C59   S    
C85   H36   S    
C90   H51   S    
C9    O39   A    
Cu5   O38   S    
C89   H48   S    
Cu1   O17   S    
C37   C38   A    
Cu5   O41   S    
C42   C55   A    
C91   C93   S    
C84   H33   S    
C9    O13   A    
C42   Cl11  S    
C12   O16   A    
C83   C84   S    
Cu3   O23   S    
C44   C57   A    
C78   O24   S    
C63   O33   S    
C31   O22   S    
C90   H50   S    
Cu5   O13   S    
C51   C64   A    
Cu1   O5    S    
C81   O6    A    
Cu6   O39   S    
C38   Cl7   S    
C53   C66   A    
C86   H38   S    
C15   C41   A    
C98   O33   S    
C24   O29   S    
C98   H70   S    
C7    O10   A    
C84   H32   S    
C3    C102  S    
C26   C36   A    
C80   H25   S    
C77   H16   S    
C21   C28   A    
C96   O32   S    
C88   H46   S    
C77   H17   S    
C72   H3    S    
C100  H74   S    
C52   C92   S    
C18   C32   A    
C70   O5    A    
C14   C29   A    
C37   C45   A    
C33   O20   S    
C36   C50   A    
C11   O15   A    
C27   O27   S    
C71   H78   S    
C2    O8    A    
C100  H75   S    
C25   C30   A    
C51   C81   S    
C10   O23   A    
C76   H14   S    
C49   C62   A    
C96   C97   S    
C87   H41   S    
C19   C48   S    
C70   O3    A    
C95   H60   S    
C102  H81   S    
Cu3   O2    S    
C102  H80   S    
C34   Cl1   S    
C12   O1    A    
C57   C65   A    
C72   C73   S    
C2    C53   S    
C78   H20   S    
C13   O17   A    
C82   H28   S    
Cu5   Cu6   S    
C75   H13   S    
C95   H62   S    
C4    H86   S    
C34   C47   A    
C20   C27   A    
C43   C59   A    
C88   H43   S    
C99   H73   S    
C2    O2    A    
C24   C33   A    
C79   H24   S    
Cu1   O1    S    
C74   O21   S    
C23   C32   A    
C50   C70   S    
C88   H44   S    
Cu3   Cu4   S    
Cu2   O3    S    
C5    H88   S    
C99   H71   S    
C76   C77   S    
C94   O31   S    
Cu1   Cu2   S    
C79   H21   S    
C25   O28   S    
C73   H5    S    
C46   Cl4   S    
C90   H49   S    
C100  C101  S    
C9    C57   S    
C50   C63   A    
Cu2   O12   S    
C94   C95   S    
C19   C25   A    
C41   C54   A    
C82   H29   S    
C35   Cl5   S    
C26   C46   A    
C22   O25   S    
C21   O26   S    
C44   C48   A    
C1    C42   A    
C4    C5    S    
C87   H42   S    
C83   O26   S    
C75   H11   S    
C87   C88   S    
C40   C53   A    
C74   H9    S    
C7    O41   A    
C87   O28   S    
C3    H82   S    
Cu4   O42   S    
C1    C14   S    
C96   H63   S    
C29   O18   S    
C93   H57   S    
C89   C90   S    
C86   H40   S    
C28   O19   S    
C12   C54   S    
C8    O11   A    
C73   H6    S    
C23   O30   S    
C39   C48   A    
C13   C55   S    
