data_mof_unit_50548.cif
_audit_creation_date              2012-12-10T16:57:12-0500
_audit_creation_method            fapswitch 2.2
_symmetry_space_group_name_H-M    P1
_symmetry_Int_Tables_number       1
_space_group_crystal_system       triclinic
_cell_length_a                    15.893774
_cell_length_b                    10.942766
_cell_length_c                    9.765734
_cell_angle_alpha                 89.092928
_cell_angle_beta                  89.528919
_cell_angle_gamma                 89.637563
_cell_volume                      1698.17167507

loop_
_atom_site_label
_atom_site_type_symbol
_atom_type_description
_atom_site_fract_x
_atom_site_fract_y
_atom_site_fract_z
_atom_type_partial_charge
C1    C     C_R   0.503976 0.266003 0.501022 0.861800
C2    C     C_3   0.948762 0.449648 0.643762 0.347075
C3    C     C_3   0.917185 0.509863 0.499689 0.019354
C4    C     C_3   0.954524 0.646494 0.470695 0.195488
C5    C     C_3   0.051934 0.636453 0.498429 -0.478431
C6    C     C_1   0.824652 0.508651 0.496110 0.019968
C7    C     C_1   0.175334 0.499877 0.506340 0.038097
C8    C     C_1   0.250829 0.499679 0.503546 -0.120514
C9    C     C_2   0.528175 0.937476 0.396942 0.002116
C10   C     C_2   0.490282 0.866501 0.495020 0.191701
C11   C     C_2   0.510461 0.069001 0.392612 -0.100214
C12   C     C_R   0.340433 0.499864 0.500812 0.850748
C13   C     C_2   0.518805 0.135731 0.504640 -0.266260
C14   C     C_2   0.463579 0.579811 0.924795 0.010110
C15   C     C_2   0.477911 0.590701 0.076295 -0.105465
C16   C     C_R   0.499824 0.734517 0.498681 0.779767
C17   C     C_R   0.659585 0.501460 0.499234 0.797734
C18   C     C_3   0.047575 0.442930 0.640360 -0.356253
C19   C     C_3   0.050241 0.430021 0.379566 0.177632
C20   C     C_3   0.952884 0.420499 0.386620 0.130634
C21   C     C_1   0.749168 0.505556 0.497054 -0.136104
C22   C     C_3   0.082967 0.501224 0.506018 0.041562
Cu1   Cu    Cu3+1 0.500020 0.500020 0.638630 0.960544
Cu2   Cu    Cu3+1 0.499980 0.499980 0.361370 0.951960
H1    H     H_    0.076523 0.487911 0.728950 0.154851
H2    H     H_    0.493091 0.111280 0.295436 0.162109
H3    H     H_    0.539304 0.094055 0.600584 0.180785
H4    H     H_    0.423742 0.648652 0.876755 0.160005
H5    H     H_    0.469345 0.679418 0.121692 0.155733
H6    H     H_    0.069893 0.346577 0.648159 0.251947
H7    H     H_    0.478345 0.415888 0.119481 0.220715
H8    H     H_    0.070067 0.479213 0.284480 0.150381
H9    H     H_    0.937432 0.325108 0.413564 0.255891
H10   H     H_    0.069991 0.681893 0.593810 0.177117
H11   H     H_    0.089163 0.683718 0.417086 0.177256
N1    N     N_2   0.499090 0.498660 0.846910 -0.182793
N2    N     N_2   0.499070 0.498630 0.153040 -0.286461
O1    O     O_R   0.500010 0.321960 0.617040 -0.589025
O2    O     O_R   0.499990 0.321920 0.382900 -0.585847
O3    O     O_R   0.379450 0.500030 0.617120 -0.563073
O4    O     O_R   0.379420 0.499980 0.382980 -0.559857
O5    O     O_R   0.500010 0.678080 0.617100 -0.551319
O6    O     O_R   0.499990 0.678040 0.382960 -0.608201
O7    O     O_R   0.620580 0.500020 0.617020 -0.607278
O8    O     O_R   0.620550 0.499970 0.382880 -0.555485
Cl1   Cl    Cl    0.911327 0.292717 0.658745 -0.700151
C23   C     C_3   0.911256 0.504840 0.779982 -0.341348
C24   C     C_3   0.960980 0.603993 0.854258 -0.391162
C25   C     C_3   0.903359 0.683008 0.942943 -0.845062
H12   H     H_    0.846154 0.712620 0.886933 0.241467
H13   H     H_    0.883345 0.631422 0.035887 0.290051
H14   H     H_    0.937563 0.765979 0.973390 0.252069
H15   H     H_    0.009074 0.560577 0.921688 0.240952
H16   H     H_    0.994997 0.662897 0.781580 0.221896
H17   H     H_    0.845279 0.534021 0.761804 0.187048
H18   H     H_    0.904810 0.431504 0.859619 0.268083
C26   C     C_3   0.942793 0.688912 0.315742 -0.338944
C27   C     C_3   0.977939 0.815607 0.270103 -0.370929
C28   C     C_3   0.909877 0.913449 0.250612 -0.773039
H19   H     H_    0.869113 0.888872 0.164011 0.241000
H20   H     H_    0.870594 0.924431 0.343741 0.257319
H21   H     H_    0.939837 0.002528 0.225612 0.278861
H22   H     H_    0.028184 0.848625 0.337064 0.226806
H23   H     H_    0.010295 0.806190 0.169469 0.209838
H24   H     H_    0.977755 0.626283 0.249075 0.207964
H25   H     H_    0.875431 0.681982 0.287019 0.218346
C29   C     C_3   0.584865 0.883465 0.285835 -0.410105
C30   C     C_3   0.642244 0.975336 0.210249 -0.336468
C31   C     C_3   0.692359 0.912101 0.097268 -0.855340
H26   H     H_    0.727807 0.832564 0.139747 0.251339
H27   H     H_    0.649263 0.879445 0.016851 0.256614
H28   H     H_    0.737373 0.977577 0.049518 0.255058
H29   H     H_    0.604587 0.049638 0.161487 0.221731
H30   H     H_    0.686495 0.016143 0.284069 0.231540
H31   H     H_    0.626607 0.812759 0.332982 0.193792
H32   H     H_    0.544225 0.839702 0.209283 0.218163
Cl2   Cl    Cl    0.415560 0.923713 0.614292 -0.622630
C32   C     C_3   0.571238 0.424521 0.893155 -0.067539
C33   C     C_3   0.648322 0.501060 0.933115 -0.410338
C34   C     C_3   0.722889 0.418229 0.967962 -0.794599
H33   H     H_    0.706172 0.354344 0.053322 0.274455
H34   H     H_    0.742502 0.365004 0.877047 0.266063
H35   H     H_    0.776393 0.474883 0.000687 0.282657
H36   H     H_    0.666528 0.563995 0.847902 0.232544
H37   H     H_    0.635169 0.558117 0.023392 0.236597
H38   H     H_    0.554774 0.354326 0.970508 0.109662
H39   H     H_    0.591429 0.365948 0.807719 0.210084
Cl3   Cl    Cl    0.096424 0.279889 0.367930 -0.575712
Cl4   Cl    Cl    0.903677 0.425254 0.221378 -0.701927
C35   C     C_3   0.905171 0.744301 0.559498 -0.350494
C36   C     C_3   0.950704 0.861363 0.606172 -0.356351
C37   C     C_3   0.889676 0.947284 0.679430 -0.759477
H40   H     H_    0.840161 0.980187 0.607931 0.256554
H41   H     H_    0.859433 0.900712 0.768408 0.237581
H42   H     H_    0.924520 0.027362 0.717311 0.300063
H43   H     H_    0.002632 0.840137 0.677422 0.213388
H44   H     H_    0.977766 0.914175 0.520208 0.258204
H45   H     H_    0.847737 0.773005 0.503065 0.185789
H46   H     H_    0.877479 0.702012 0.650893 0.197538

loop_
_geom_bond_atom_site_label_1
_geom_bond_atom_site_label_2
_ccdc_geom_bond_type
C32   H39   S    
C2    C18   S    
C19   C20   S    
C26   H25   S    
C3    C6    S    
C35   C36   S    
C7    C8    T    
C2    Cl1   S    
C24   H16   S    
Cu1   O5    S    
Cu2   O8    S    
C17   O8    A    
C14   N1    D    
C33   H36   S    
C30   H30   S    
Cu1   O3    S    
Cu2   O2    S    
C31   H27   S    
C15   N2    D    
C36   H43   S    
C5    C22   S    
C30   C31   S    
C25   H13   S    
C4    C26   S    
Cu1   Cu2   S    
C18   H6    S    
C9    C10   D    
C32   H38   S    
C28   H19   S    
Cu2   O4    S    
C18   H1    S    
C34   H35   S    
C19   H8    S    
C10   Cl2   S    
C15   H5    S    
C4    C35   S    
C27   H23   S    
C24   H15   S    
C28   H20   S    
C29   C30   S    
C19   C22   S    
C34   H34   S    
C19   Cl3   S    
C36   C37   S    
C32   C33   S    
C34   H33   S    
C11   H2    S    
C30   H29   S    
C6    C21   T    
C37   H42   S    
C17   C21   S    
Cu1   O7    S    
H7    N2    S    
C12   O3    A    
C31   H28   S    
C9    C29   S    
C12   O4    A    
C23   C24   S    
C8    C12   S    
C25   H14   S    
C5    H10   S    
C37   H41   S    
Cu2   N2    S    
C3    C20   S    
C36   H44   S    
C9    C11   S    
C16   O6    A    
C1    O1    A    
C20   H9    S    
C24   C25   S    
C25   H12   S    
C1    C13   S    
C3    C4    S    
Cu1   O1    S    
C16   O5    A    
C35   H46   S    
C33   H37   S    
C23   H17   S    
C27   H22   S    
C28   H21   S    
C18   C22   S    
C26   H24   S    
C4    C5    S    
C2    C23   S    
C7    C22   S    
C20   Cl4   S    
C2    C3    S    
C27   C28   S    
C17   O7    A    
C10   C16   S    
C11   C13   D    
C26   C27   S    
C5    H11   S    
C37   H40   S    
C31   H26   S    
C1    O2    A    
C33   C34   S    
C29   H31   S    
Cu1   N1    S    
Cu2   O6    S    
C14   C15   S    
C13   H3    S    
N1    C32   S    
C29   H32   S    
C14   H4    S    
C35   H45   S    
C23   H18   S    
