data_mof_unit_20051.cif
_audit_creation_date              2012-12-11T14:17:47-0500
_audit_creation_method            fapswitch 2.2
_symmetry_space_group_name_H-M    P1
_symmetry_Int_Tables_number       1
_space_group_crystal_system       triclinic
_cell_length_a                    6.943588
_cell_length_b                    13.609047
_cell_length_c                    20.44249
_cell_angle_alpha                 102.243259
_cell_angle_beta                  90.255716
_cell_angle_gamma                 90.414015
_cell_volume                      1887.70581516

loop_
_atom_site_label
_atom_site_type_symbol
_atom_type_description
_atom_site_fract_x
_atom_site_fract_y
_atom_site_fract_z
_atom_type_partial_charge
O1    O     O_R   0.506860 0.599390 0.449240 -0.533819
O2    O     O_R   0.180220 0.594600 0.586780 -0.548128
O3    O     O_R   0.004500 0.400610 0.550760 -0.542932
C1    C     C_R   0.349205 0.616181 0.613436 0.728358
O4    O     O_R   0.177490 0.611290 0.451970 -0.541867
O5    O     O_R   0.001750 0.417420 0.414990 -0.534816
C2    C     C_R   0.346076 0.638067 0.435474 0.774183
O6    O     O_R   0.509610 0.582580 0.585010 -0.547698
O7    O     O_3   0.337420 0.436370 0.488020 -0.365865
V1    V     V_3+5 0.064680 0.511800 0.502220 1.472971
O8    O     O_R   0.671710 0.405400 0.413220 -0.530005
C3    C     C_R   0.839323 0.386386 0.385913 0.767603
O9    O     O_R   0.674440 0.388710 0.548030 -0.543218
C4    C     C_R   0.842766 0.361997 0.564826 0.701780
V2    V     V_3+5 0.564010 0.488200 0.497780 1.495474
O10   O     O_3   0.841140 0.563630 0.511980 -0.380859
C5    C     C_R   0.797892 0.108951 0.610088 0.002692
H1    H     H_    0.817888 0.982392 0.697076 0.159183
C6    C     C_R   0.847382 0.283580 0.603982 -0.063503
C7    C     C_R   0.876603 0.314702 0.926980 -0.125818
C8    C     C_R   0.876923 0.390396 0.890915 -0.061041
C9    C     C_R   0.866600 0.366824 0.821241 -0.173084
C10   C     C_R   0.856133 0.265534 0.785354 0.087513
C11   C     C_R   0.852181 0.188437 0.822870 0.069364
C12   C     C_R   0.847280 0.238536 0.713718 0.069974
C13   C     C_R   0.821108 0.135528 0.681027 0.065185
C14   C     C_R   0.823707 0.061642 0.719731 -0.154871
C15   C     C_R   0.839375 0.087457 0.788957 -0.199096
C16   C     C_R   0.864147 0.310809 0.673470 -0.211412
C17   C     C_R   0.812960 0.183735 0.572702 -0.204030
C18   C     C_R   0.863450 0.214005 0.893812 -0.091813
H2    H     H_    0.840194 0.026888 0.815806 0.114156
C19   C     C_2   0.001903 0.292264 0.283537 -0.088283
C20   C     C_2   0.840185 0.325154 0.317040 -0.253086
C21   C     C_2   0.999799 0.233857 0.212973 -0.188380
C22   C     C_2   0.865109 0.164065 0.186074 -0.156475
C23   C     C_2   0.204419 0.791283 0.782019 -0.129189
C24   C     C_2   0.363374 0.815687 0.819925 -0.294212
C25   C     C_2   0.202972 0.722719 0.714526 -0.121592
C26   C     C_2   0.361286 0.684659 0.680133 -0.281133
H3    H     H_    0.061706 0.703708 0.692210 0.134523
H4    H     H_    0.504446 0.703391 0.700335 0.126604
C27   C     C_R   0.348516 0.888933 0.388014 0.007500
C28   C     C_R   0.352801 0.712414 0.393380 -0.131534
C29   C     C_R   0.418567 0.687694 0.072618 -0.215206
C30   C     C_R   0.460570 0.614782 0.109376 0.030915
C31   C     C_R   0.442689 0.639337 0.179130 -0.165219
C32   C     C_R   0.370156 0.733404 0.212857 0.086732
C33   C     C_R   0.339614 0.808343 0.175131 0.060005
C34   C     C_R   0.345283 0.757851 0.283973 0.026931
C35   C     C_R   0.333513 0.861218 0.317003 0.041130
C36   C     C_R   0.299171 0.933240 0.278242 -0.136113
C37   C     C_R   0.296367 0.906673 0.208792 -0.159731
C38   C     C_R   0.329856 0.683414 0.323366 -0.067444
C39   C     C_R   0.364933 0.813622 0.424654 -0.236423
C40   C     C_R   0.363419 0.784461 0.104788 -0.106688
O11   O     O_R   0.203230 0.917310 0.915020 -0.542079
O12   O     O_R   0.535500 0.888690 0.048040 -0.536821
O13   O     O_R   0.711080 0.082610 0.085000 -0.519060
C41   C     C_R   0.367199 0.862635 0.065310 0.710264
O14   O     O_R   0.532630 0.905370 0.913230 -0.551279
O15   O     O_R   0.708190 0.099410 0.949230 -0.538961
C42   C     C_R   0.364235 0.884234 0.886506 0.735685
O16   O     O_R   0.206120 0.900510 0.050790 -0.543912
O17   O     O_3   0.375360 0.063570 0.011990 -0.363291
V3    V     V_3+5 0.648170 0.988200 0.997780 1.461802
O18   O     O_R   0.038240 0.111390 0.951940 -0.540368
C43   C     C_R   0.869863 0.136996 0.934332 0.684268
O19   O     O_R   0.041120 0.094710 0.086750 -0.541874
C44   C     C_R   0.873220 0.112692 0.114447 0.688914
V4    V     V_3+5 0.148810 0.011930 0.002180 1.457439
O20   O     O_3   0.871750 0.936430 0.988010 -0.378337
H5    H     H_    0.792241 0.164768 0.518845 0.160867
H6    H     H_    0.701144 0.309431 0.292441 0.158123
H7    H     H_    0.116193 0.250337 0.181514 0.157867
C45   C     C_2   0.723112 0.124619 0.228418 0.761335
O21   O     O_2   0.555534 0.110511 0.210016 -0.566927
O22   O     O_R   0.783346 0.100755 0.288473 -0.650644
H8    H     H_    0.675778 0.071057 0.311581 0.331404
H9    H     H_    0.066725 0.821884 0.801115 0.129991
H10   H     H_    0.501841 0.785394 0.802113 0.127742
H11   H     H_    0.379954 0.833812 0.478715 0.165803
H12   H     H_    0.269531 0.010767 0.300884 0.183903
C46   C     C_2   0.352491 0.994743 0.426672 0.775126
O23   O     O_2   0.437055 0.060276 0.405237 -0.581027
O24   O     O_R   0.266571 0.018358 0.489779 -0.634064
H13   H     H_    0.281044 0.092116 0.511954 0.304750
C47   C     C_2   0.256677 0.580048 0.293892 0.714549
O25   O     O_2   0.330774 0.506559 0.308959 -0.571026
O26   O     O_R   0.103113 0.567386 0.248284 -0.652590
H14   H     H_    0.066542 0.494093 0.231401 0.303259
H15   H     H_    0.438817 0.671123 0.018835 0.141384
H16   H     H_    0.495628 0.585883 0.206864 0.163294
C48   C     C_2   0.530213 0.513933 0.075349 0.753292
O27   O     O_2   0.547438 0.492967 0.014452 -0.573624
O28   O     O_R   0.575637 0.442211 0.112813 -0.663417
H17   H     H_    0.621151 0.376568 0.083941 0.288759
H18   H     H_    0.267611 0.965287 0.181713 0.156197
C49   C     C_2   0.748006 0.005716 0.572758 0.762099
O29   O     O_2   0.632489 0.953917 0.595689 -0.570655
O30   O     O_R   0.825479 0.969946 0.509193 -0.638604
H19   H     H_    0.778139 0.899708 0.487979 0.298644
H20   H     H_    0.889076 0.389425 0.694388 0.097358
H21   H     H_    0.886358 0.334710 0.981115 0.115301
H22   H     H_    0.864422 0.430011 0.797285 0.108776
H23   H     H_    0.885315 0.468270 0.917194 0.142718
H24   H     H_    0.141440 0.314365 0.306341 0.179452

loop_
_geom_bond_atom_site_label_1
_geom_bond_atom_site_label_2
_ccdc_geom_bond_type
O30   H19   S    
C27   C46   S    
C21   C22   D    
C19   H24   S    
C1    O6    A    
C25   H3    S    
C29   C30   A    
C21   H7    S    
C13   C14   A    
C34   C38   A    
C5    C13   A    
C45   O22   S    
O13   V3    S    
O5    C3    A    
O12   C41   A    
V2    O10   S    
C16   H20   S    
O19   V4    S    
O16   V4    S    
O14   C42   A    
C29   H15   S    
C22   C45   S    
O8    V2    S    
C46   O23   D    
O12   V3    S    
V3    O20   S    
C1    C26   S    
C29   C40   A    
C10   C11   A    
O1    V2    S    
O7    V1    S    
C8    H23   S    
C47   O25   D    
C26   H4    S    
O1    C2    A    
C8    C9    A    
C5    C17   A    
C48   O27   D    
O14   V3    S    
C22   C44   S    
O11   C42   A    
C12   C16   A    
C18   C43   S    
C23   H9    S    
O15   V3    S    
C35   C36   A    
C15   H2    S    
C45   O21   D    
C25   C26   D    
O4    C2    A    
C17   H5    S    
O24   H13   S    
C34   C35   A    
C12   C13   A    
O17   V4    S    
O18   C43   A    
C36   H12   S    
O2    C1    A    
C23   C24   D    
C31   C32   A    
C30   C48   S    
O28   H17   S    
C19   C20   D    
C31   H16   S    
C2    C28   S    
O11   V4    S    
C39   H11   S    
C48   O28   S    
C5    C49   S    
O3    C4    A    
C20   H6    S    
C27   C39   A    
C32   C33   A    
C49   O30   S    
C47   O26   S    
O6    V2    S    
O9    V2    S    
C24   H10   S    
C3    C20   S    
O2    V1    S    
C36   C37   A    
C24   C42   S    
C30   C31   A    
O22   H8    S    
C4    C6    S    
H1    C14   S    
C11   C15   A    
C46   O24   S    
O5    V1    S    
O8    C3    A    
C7    H21   S    
C37   H18   S    
C33   C40   A    
C49   O29   D    
O15   C43   A    
C41   O16   A    
O7    V2    S    
C11   C18   A    
O4    V1    S    
C23   C25   S    
O3    V1    S    
V1    O10   S    
C38   C47   S    
C28   C39   A    
C27   C35   A    
O26   H14   S    
C33   C37   A    
C32   C34   A    
C19   C21   S    
O18   V4    S    
C10   C12   A    
C9    H22   S    
O19   C44   A    
O13   C44   A    
C28   C38   A    
V4    O20   S    
C40   C41   S    
C7    C8    A    
O17   V3    S    
C14   C15   A    
C9    C10   A    
O9    C4    A    
C6    C17   A    
C7    C18   A    
C6    C16   A    
