data_mof_unit_63702.cif
_audit_creation_date              2013-03-05T15:43:08-0500
_audit_creation_method            fapswitch 2.2
_symmetry_space_group_name_H-M    P1
_symmetry_Int_Tables_number       1
_space_group_crystal_system       triclinic
_cell_length_a                    6.943522
_cell_length_b                    14.286721
_cell_length_c                    18.015908
_cell_angle_alpha                 113.481135
_cell_angle_beta                  95.325602
_cell_angle_gamma                 90.454159
_cell_volume                      1630.13644273

loop_
_atom_site_label
_atom_site_type_symbol
_atom_site_description
_atom_site_fract_x
_atom_site_fract_y
_atom_site_fract_z
_atom_type_partial_charge
O1    O     O_R   0.484560 0.544530 0.414330 -0.534879
O2    O     O_R   0.197040 0.638810 0.585080 -0.574216
O3    O     O_R   0.026800 0.455470 0.585670 -0.549669
C1    C     C_R   0.372255 0.682853 0.594788 0.777711
O4    O     O_R   0.155000 0.556150 0.414940 -0.535963
O5    O     O_R   0.984450 0.372220 0.414320 -0.536123
C2    C     C_R   0.320678 0.566390 0.387597 0.844876
O6    O     O_R   0.526900 0.627780 0.585680 -0.513589
O7    O     O_3   0.339170 0.439750 0.499990 -0.263097
V1    V     V_3+5 0.064350 0.511180 0.500000 1.249156
O8    O     O_R   0.654880 0.361190 0.414920 -0.491426
C3    C     C_R   0.818761 0.323897 0.386958 0.926527
O9    O     O_R   0.696930 0.443850 0.585060 -0.563376
C4    C     C_R   0.872520 0.428249 0.609661 0.902215
V2    V     V_3+5 0.564340 0.488820 0.500000 1.277592
O10   O     O_3   0.839390 0.560250 0.500010 -0.223733
C5    C     C_R   0.046943 0.875366 0.829423 -0.230181
C6    C     C_R   0.902291 0.387254 0.675514 -0.169172
C7    C     C_R   0.958692 0.838525 0.686313 -0.031716
C8    C     C_R   0.016769 0.807624 0.747844 -0.081305
C9    C     C_R   0.025300 0.981167 0.847105 -0.102777
C10   C     C_R   0.985092 0.015088 0.780449 0.051280
C11   C     C_R   0.935135 0.939231 0.700596 0.026427
C12   C     C_R   0.998482 0.118775 0.787100 -0.039717
C13   C     C_R   0.937971 0.143873 0.718519 0.034322
C14   C     C_R   0.857486 0.065574 0.647221 -0.082850
C15   C     C_R   0.868568 0.964466 0.634724 -0.042889
C16   C     C_R   0.077553 0.197700 0.858840 -0.027010
C17   C     C_R   0.066226 0.298001 0.870190 0.288677
C18   C     C_R   0.008854 0.322914 0.803931 -0.075246
C19   C     C_R   0.951932 0.247289 0.724799 0.023538
C20   C     C_R   0.008973 0.424141 0.817285 -0.045612
C21   C     C_R   0.946569 0.455575 0.756467 -0.111032
C22   C     C_R   0.912988 0.281296 0.658251 0.196151
H1    H     H_    0.943937 0.781366 0.624730 0.165103
H2    H     H_    0.772810 0.081017 0.601250 0.120917
H3    H     H_    0.155394 0.184575 0.907609 0.130298
H4    H     H_    0.048587 0.481768 0.877802 0.180596
C23   C     C_2   0.125182 0.032575 0.188027 -0.172025
C24   C     C_2   0.978023 0.058274 0.237525 -0.110873
C25   C     C_2   0.820574 0.222840 0.315482 -0.203318
C26   C     C_2   0.977485 0.161283 0.305401 -0.131304
H5    H     H_    0.240918 0.089023 0.197669 0.126048
C27   C     C_R   0.408996 0.792285 0.657296 -0.048216
C28   C     C_R   0.532401 0.474485 0.823568 -0.124960
C29   C     C_R   0.521593 0.894294 0.797848 -0.079156
C30   C     C_R   0.488424 0.800703 0.732368 -0.127788
C31   C     C_R   0.378773 0.885169 0.645598 -0.072507
C32   C     C_R   0.436295 0.986375 0.709537 0.030174
C33   C     C_R   0.493858 0.987199 0.787620 0.007148
C34   C     C_R   0.434188 0.086559 0.702490 -0.066182
C35   C     C_R   0.488717 0.182348 0.774771 -0.028096
C36   C     C_R   0.525257 0.173917 0.850783 0.228950
C37   C     C_R   0.515952 0.079937 0.855157 -0.066836
C38   C     C_R   0.383680 0.096937 0.627322 -0.035759
C39   C     C_R   0.373152 0.193454 0.625086 -0.037787
C40   C     C_R   0.420009 0.283741 0.693092 0.016578
C41   C     C_R   0.490524 0.281730 0.768401 0.052689
C42   C     C_R   0.398996 0.376754 0.684296 -0.050763
C43   C     C_R   0.446530 0.470266 0.749166 -0.080745
C44   C     C_R   0.559810 0.380026 0.831722 -0.072679
H6    H     H_    0.518700 0.082306 0.915379 0.192986
H7    H     H_    0.647596 0.387211 0.885543 0.153244
H8    H     H_    0.421235 0.540038 0.740349 0.064505
H9    H     H_    0.334036 0.198377 0.567032 0.142193
H10   H     H_    0.516749 0.730647 0.740762 0.040817
H11   H     H_    0.303560 0.874424 0.587981 0.041369
H12   H     H_    0.341820 0.377150 0.626476 0.124077
C45   C     C_2   0.328924 0.604492 0.321313 -0.155217
C46   C     C_2   0.497363 0.630699 0.297537 -0.034848
C47   C     C_2   0.626662 0.649666 0.177612 0.086100
C48   C     C_2   0.493296 0.673288 0.233705 0.177715
H13   H     H_    0.191233 0.610936 0.290264 0.159647
O11   O     O_R   0.421600 0.630430 0.917010 -0.529792
O12   O     O_R   0.793840 0.702190 0.087630 -0.527064
O13   O     O_R   0.964010 0.886170 0.088190 -0.530811
C49   C     C_R   0.630075 0.694763 0.116306 0.917805
O14   O     O_R   0.751460 0.619510 0.917500 -0.562091
O15   O     O_R   0.921330 0.802900 0.916840 -0.544466
C50   C     C_R   0.573404 0.578998 0.892679 0.790889
O16   O     O_R   0.464290 0.713700 0.088350 -0.525273
O17   O     O_3   0.609200 0.818520 0.002630 -0.257968
V3    V     V_3+5 0.884140 0.747190 0.002530 1.265296
O18   O     O_R   0.251150 0.814630 0.917340 -0.585627
C51   C     C_R   0.075805 0.832910 0.894592 0.828941
O19   O     O_R   0.293530 0.897310 0.087470 -0.523797
C52   C     C_R   0.130668 0.931517 0.118337 0.868719
V4    V     V_3+5 0.384070 0.769710 0.002370 1.256744
O20   O     O_3   0.109180 0.698190 0.002460 -0.217586
C53   C     C_2   0.805718 0.888974 0.550478 0.395489
H14   H     H_    0.834264 0.906867 0.499211 0.078825
O21   O     O_2   0.710936 0.810627 0.537265 -0.621616
C54   C     C_2   0.145928 0.184728 0.367552 0.551731
H15   H     H_    0.160054 0.143662 0.406869 0.063176
O22   O     O_2   0.276005 0.244580 0.371075 -0.499332
C55   C     C_2   0.838321 0.980624 0.239918 0.504154
H16   H     H_    0.859082 0.954146 0.288660 0.035897
O23   O     O_2   0.695675 0.949682 0.190319 -0.546708
C56   C     C_2   0.656929 0.196680 0.249693 0.556154
H17   H     H_    0.654393 0.127787 0.194637 0.069018
O24   O     O_2   0.525451 0.254443 0.254723 -0.498630
C57   C     C_2   0.587701 0.884384 0.874296 0.525237
H18   H     H_    0.585125 0.807947 0.872565 0.054611
O25   O     O_2   0.649234 0.955025 0.937354 -0.555539
Br1   Br    Br    0.906205 0.195998 0.543065 -0.713185
Br2   Br    Br    0.566444 0.280893 0.959191 -0.440742
C58   C     C_2   0.356057 0.011300 0.546480 0.492872
H19   H     H_    0.460754 0.953099 0.528576 0.015135
O26   O     O_2   0.218349 0.006869 0.497636 -0.550826
Br3   Br    Br    0.310904 0.778552 0.245097 -0.576279
C59   C     C_2   0.691190 0.634713 0.341384 0.608334
H20   H     H_    0.772148 0.707420 0.372224 -0.010651
O27   O     O_2   0.767753 0.556432 0.337342 -0.492683
Br4   Br    Br    0.804140 0.541992 0.162734 -0.393573
C60   C     C_2   0.922972 0.562900 0.783791 0.502651
H21   H     H_    0.793001 0.591346 0.763641 -0.006681
O28   O     O_2   0.043023 0.621024 0.835536 -0.564383
Br5   Br    Br    0.127449 0.397708 0.980612 -0.406460
C61   C     C_2   0.041679 0.700532 0.721146 0.501854
H22   H     H_    0.172038 0.672617 0.741503 0.004201
O29   O     O_2   0.920784 0.642018 0.669910 -0.564982
C62   C     C_2   0.027201 0.048449 0.934830 0.572087
H23   H     H_    0.128816 0.036550 0.979442 -0.036617
O30   O     O_2   0.909662 0.114205 0.958702 -0.491445

loop_
_geom_bond_atom_site_label_1
_geom_bond_atom_site_label_2
_geom_bond_distance
_ccdc_geom_bond_type
C13   C19   1.437917 A    
C18   C20   1.368234 A    
C38   C39   1.397728 A    
C28   C43   1.393758 A    
C54   H15   1.083873 S    
C26   C54   1.478407 S    
C25   C26   1.384958 D    
C4    C6    1.517693 S    
O2    C1    1.329407 A    
C7    C8    1.377017 A    
C23   C52   1.492495 S    
C1    O6    1.319937 A    
C53   H14   1.085834 S    
C36   C37   1.377329 A    
C29   C57   1.471984 S    
C14   C15   1.374406 A    
C33   C37   1.391715 A    
C5    C51   1.520625 S    
C16   C17   1.368462 A    
O5    C3    1.286122 A    
C18   C19   1.420268 A    
O19   V4    2.009700 S    
C40   C42   1.406701 A    
C39   H9    1.085746 S    
C5    C8    1.395259 A    
C39   C40   1.389522 A    
C15   C53   1.490765 S    
C9    C62   1.485698 S    
C44   H7    1.064072 S    
O8    V2    2.009804 S    
C36   Br2   1.934630 S    
C59   H20   1.084672 S    
C32   C34   1.486519 A    
C55   O23   1.220199 D    
C58   H19   1.078556 S    
C25   C56   1.491929 S    
C45   H13   1.085629 S    
O1    V2    2.037081 S    
C11   C15   1.412009 A    
C17   C18   1.401029 A    
O7    V1    2.171062 S    
C30   H10   1.086958 S    
C34   C38   1.432326 A    
C27   C30   1.370679 A    
C41   C44   1.454552 A    
C24   C26   1.492631 S    
C42   C43   1.391688 A    
C54   O22   1.218528 D    
O11   C50   1.297875 A    
O9    C4    1.309701 A    
C58   O26   1.221106 D    
C45   C46   1.380353 D    
C24   C55   1.484020 S    
O14   V3    2.001858 S    
O13   V3    2.003361 S    
C61   O29   1.218876 D    
V3    O20   1.717178 S    
C48   Br3   1.933940 S    
C21   C60   1.427481 S    
V2    O10   2.158173 S    
C34   C35   1.480563 A    
O18   V4    2.034877 S    
C12   C13   1.445955 A    
C23   C24   1.374150 D    
O4    C2    1.321898 A    
O19   C52   1.317492 A    
C23   H5    1.085601 S    
C1    C27   1.521463 S    
C60   O28   1.217105 D    
C13   C14   1.387580 A    
C5    C9    1.427453 A    
C47   Br4   1.928632 S    
C38   C58   1.476260 S    
C7    C11   1.370960 A    
O5    V1    2.003334 S    
C3    C25   1.504862 S    
C42   H12   1.081991 S    
O12   C49   1.312246 A    
C53   O21   1.220482 D    
C56   H17   1.082312 S    
C49   O16   1.287582 A    
O8    C3    1.317049 A    
C55   H16   1.084919 S    
C19   C22   1.467206 A    
C59   O27   1.220825 D    
O18   C51   1.310040 A    
C57   O25   1.216997 D    
C6    C22   1.422914 A    
O13   C52   1.282520 A    
O3    C4    1.303431 A    
C35   C41   1.469396 A    
C14   H2    1.066574 S    
C31   C32   1.468070 A    
C56   O24   1.220804 D    
O17   V3    2.170947 S    
O6    V2    2.008042 S    
C20   H4    1.080550 S    
O9    V2    2.034889 S    
C10   C12   1.439331 A    
C62   O30   1.220221 D    
O2    V1    2.001779 S    
O15   C51   1.305533 A    
C35   C36   1.421828 A    
C60   H21   1.083481 S    
C29   C30   1.385731 A    
O1    C2    1.283790 A    
C22   Br1   1.938904 S    
C12   C16   1.393000 A    
C2    C45   1.501957 S    
C46   C48   1.498456 S    
C61   H22   1.083285 S    
C37   H6    1.070288 S    
C17   Br5   1.934567 S    
C29   C33   1.423067 A    
C43   H8    1.083283 S    
C20   C21   1.377336 A    
O7    V2    1.708329 S    
C47   C48   1.378246 D    
O3    V1    2.033211 S    
V1    O10   1.717170 S    
O15   V3    2.033057 S    
O12   V3    2.028433 S    
C40   C41   1.410430 A    
C47   C49   1.485680 S    
C16   H3    1.069572 S    
O17   V4    1.705471 S    
C28   C44   1.426831 A    
C28   C50   1.518793 S    
O14   C50   1.320322 A    
C31   H11   1.070006 S    
C57   H18   1.079941 S    
C6    C21   1.397116 A    
O16   V4    2.045647 S    
C46   C59   1.484555 S    
O4    V1    2.028429 S    
V4    O20   2.158284 S    
C32   C33   1.421685 A    
C10   C11   1.422472 A    
C7    H1    1.078821 S    
O11   V4    2.009086 S    
C62   H23   1.085448 S    
C9    C10   1.469194 A    
C8    C61   1.426663 S    
C27   C31   1.438212 A    
