data_mof_unit_17408.cif
_audit_creation_date              2012-12-11T16:19:07-0500
_audit_creation_method            fapswitch 2.2
_symmetry_space_group_name_H-M    P1
_symmetry_Int_Tables_number       1
_space_group_crystal_system       triclinic
_cell_length_a                    6.92705
_cell_length_b                    31.52951
_cell_length_c                    34.977669
_cell_angle_alpha                 90.001854
_cell_angle_beta                  90.018466
_cell_angle_gamma                 90.009163
_cell_volume                      7639.34949475

loop_
_atom_site_label
_atom_site_type_symbol
_atom_type_description
_atom_site_fract_x
_atom_site_fract_y
_atom_site_fract_z
_atom_type_partial_charge
O1    O     O_R   0.417270 0.211480 0.210950 -0.539891
O2    O     O_R   0.582730 0.788520 0.789050 -0.516271
O3    O     O_R   0.582730 0.788520 0.710950 -0.539961
O4    O     O_R   0.417270 0.211480 0.289050 -0.516165
O5    O     O_R   0.917270 0.288520 0.289050 -0.539550
O6    O     O_R   0.082730 0.711480 0.710950 -0.516327
O7    O     O_R   0.082730 0.711480 0.789050 -0.539990
O8    O     O_R   0.917270 0.288520 0.210950 -0.516394
O9    O     O_R   0.746940 0.206370 0.288750 -0.547718
O10   O     O_R   0.253060 0.793630 0.711250 -0.541801
O11   O     O_R   0.253060 0.793630 0.788750 -0.547732
O12   O     O_R   0.746940 0.206370 0.211250 -0.541724
O13   O     O_R   0.246940 0.293630 0.211250 -0.547789
O14   O     O_R   0.753060 0.706370 0.788750 -0.541804
O15   O     O_R   0.753060 0.706370 0.711250 -0.547745
O16   O     O_R   0.246940 0.293630 0.288750 -0.542377
C1    C     C_R   0.577966 0.196277 0.302232 0.763771
C2    C     C_R   0.421576 0.803779 0.697796 0.739580
C3    C     C_R   0.422087 0.803772 0.802198 0.763327
C4    C     C_R   0.578379 0.196220 0.197797 0.739938
C5    C     C_R   0.077929 0.303771 0.197800 0.762766
C6    C     C_R   0.921605 0.696218 0.802203 0.739588
C7    C     C_R   0.922014 0.696198 0.697822 0.763280
C8    C     C_R   0.078336 0.303829 0.302175 0.739694
O17   O     O_3   0.583760 0.276950 0.250000 -0.369821
O18   O     O_3   0.416240 0.723050 0.750000 -0.369585
O19   O     O_3   0.083760 0.223050 0.250000 -0.369395
O20   O     O_3   0.916240 0.776950 0.750000 -0.369524
V1    V     V_3+5 0.858600 0.245000 0.250000 1.432672
V2    V     V_3+5 0.141400 0.755000 0.750000 1.432923
V3    V     V_3+5 0.358600 0.255000 0.250000 1.431797
V4    V     V_3+5 0.641400 0.745000 0.750000 1.432948
C9    C     C_R   0.921830 0.586786 0.538132 0.665654
C10   C     C_R   0.979824 0.411411 0.461814 0.657977
C11   C     C_R   0.072928 0.412564 0.037729 0.666103
C12   C     C_R   0.016983 0.587597 0.960852 0.653226
C13   C     C_R   0.427010 0.912567 0.962262 0.666019
C14   C     C_R   0.482951 0.087603 0.039144 0.653255
C15   C     C_R   0.571649 0.087695 0.462498 0.666333
C16   C     C_R   0.516096 0.912587 0.539244 0.653114
N1    N     N_R   0.937258 0.572873 0.575223 -0.535131
N2    N     N_R   0.999315 0.425814 0.424964 -0.551891
N3    N     N_R   0.060979 0.426666 0.074820 -0.535281
N4    N     N_R   0.991182 0.573056 0.924190 -0.550296
N5    N     N_R   0.439033 0.926669 0.925173 -0.535357
N6    N     N_R   0.508696 0.073063 0.075806 -0.550312
N7    N     N_R   0.559824 0.073624 0.425393 -0.535411
N8    N     N_R   0.490184 0.927088 0.575912 -0.550219
C17   C     C_R   0.958495 0.530525 0.583095 0.639276
C18   C     C_R   0.003291 0.468441 0.417277 0.576822
C19   C     C_R   0.042205 0.469105 0.082576 0.639190
C20   C     C_R   0.981414 0.530421 0.916792 0.580486
C21   C     C_R   0.457851 0.969108 0.917419 0.639489
C22   C     C_R   0.518413 0.030429 0.083205 0.580471
C23   C     C_R   0.540946 0.031190 0.417608 0.639272
C24   C     C_R   0.480075 0.969713 0.583334 0.580519
C25   C     C_R   0.960378 0.500411 0.553367 -0.053957
C26   C     C_R   0.980334 0.498288 0.446862 -0.042727
C27   C     C_R   0.039814 0.499079 0.052735 -0.053868
C28   C     C_R   0.007266 0.500672 0.946362 -0.041979
C29   C     C_R   0.460210 0.999082 0.947260 -0.054028
C30   C     C_R   0.492581 0.000678 0.053634 -0.041959
C31   C     C_R   0.538541 0.001191 0.447426 -0.053931
C32   C     C_R   0.505853 0.999497 0.553790 -0.041944
C33   C     C_R   0.956625 0.514280 0.515141 -0.069261
C34   C     C_R   0.969759 0.484229 0.484984 -0.064820
C35   C     C_R   0.038911 0.485000 0.014568 -0.069768
C36   C     C_R   0.024131 0.514912 0.984340 -0.065009
C37   C     C_R   0.461036 0.985004 0.985426 -0.069786
C38   C     C_R   0.475786 0.014917 0.015655 -0.064999
C39   C     C_R   0.537573 0.015236 0.485602 -0.069821
C40   C     C_R   0.522854 0.985294 0.515806 -0.064965
C41   C     C_R   0.940977 0.558114 0.507088 -0.032842
C42   C     C_R   0.973529 0.440241 0.492953 -0.030267
C43   C     C_R   0.051314 0.441095 0.006650 -0.032743
C44   C     C_R   0.024462 0.558944 0.992107 -0.028810
C45   C     C_R   0.448590 0.941099 0.993343 -0.032691
C46   C     C_R   0.475497 0.058949 0.007889 -0.028803
C47   C     C_R   0.549877 0.059136 0.493552 -0.032860
C48   C     C_R   0.523394 0.941269 0.508009 -0.028770
C49   C     C_R   0.968467 0.456817 0.561192 -0.189510
C50   C     C_R   0.969132 0.541839 0.439014 -0.193069
C51   C     C_R   0.035468 0.542737 0.060391 -0.189791
C52   C     C_R   0.014682 0.457047 0.938669 -0.193328
C53   C     C_R   0.464596 0.042740 0.939604 -0.189556
C54   C     C_R   0.485122 0.957054 0.061325 -0.193380
C55   C     C_R   0.534314 0.957538 0.439738 -0.189582
C56   C     C_R   0.513060 0.043118 0.561513 -0.193339
C57   C     C_R   0.971826 0.426758 0.531636 0.203144
C58   C     C_R   0.946445 0.571652 0.468434 0.204161
C59   C     C_R   0.031362 0.572642 0.030708 0.203384
C60   C     C_R   0.040031 0.427347 0.968102 0.204570
C61   C     C_R   0.468668 0.072646 0.969289 0.203313
C62   C     C_R   0.459799 0.927353 0.031891 0.204590
C63   C     C_R   0.530333 0.927606 0.469400 0.203325
C64   C     C_R   0.538417 0.072849 0.532106 0.204573
O21   O     O_2   0.887655 0.628238 0.531473 -0.485578
O22   O     O_2   0.966214 0.369325 0.468122 -0.483820
O23   O     O_2   0.106002 0.371064 0.031098 -0.485553
O24   O     O_2   0.035675 0.629644 0.966867 -0.485587
O25   O     O_2   0.393895 0.871066 0.968889 -0.485590
O26   O     O_2   0.464299 0.129649 0.033130 -0.485565
O27   O     O_2   0.604839 0.129185 0.469169 -0.485327
O28   O     O_2   0.535073 0.870553 0.533202 -0.485666
O29   O     O_2   0.979777 0.517522 0.619604 -0.517868
O30   O     O_2   0.029246 0.481962 0.381043 -0.524382
O31   O     O_2   0.023689 0.482346 0.119071 -0.518275
O32   O     O_2   0.945072 0.516765 0.880956 -0.526624
O33   O     O_2   0.476441 0.982348 0.880925 -0.517762
O34   O     O_2   0.554683 0.016776 0.119044 -0.526659
O35   O     O_2   0.522393 0.017977 0.381101 -0.517870
O36   O     O_2   0.443426 0.983327 0.619166 -0.526623
H1    H     H_    0.970431 0.445631 0.590484 0.170401
H2    H     H_    0.975948 0.553134 0.409785 0.170381
H3    H     H_    0.037216 0.554086 0.089634 0.170150
H4    H     H_    0.003087 0.445611 0.909541 0.170168
H5    H     H_    0.462905 0.054087 0.910362 0.170353
H6    H     H_    0.496663 0.945620 0.090454 0.170136
H7    H     H_    0.536110 0.946215 0.410487 0.170306
H8    H     H_    0.501335 0.054527 0.590646 0.170165
C65   C     C_R   0.878303 0.391758 0.364949 0.195021
C66   C     C_R   0.788606 0.602951 0.634029 0.183593
C67   C     C_R   0.113201 0.606725 0.864279 0.182821
C68   C     C_R   0.210676 0.396775 0.133668 0.184291
C69   C     C_R   0.386674 0.106732 0.135713 0.182851
C70   C     C_R   0.289382 0.896774 0.866320 0.184128
C71   C     C_R   0.612584 0.893386 0.635785 0.182497
C72   C     C_R   0.710099 0.103418 0.366578 0.184462
C73   C     C_R   0.902411 0.362010 0.335589 -0.217940
C74   C     C_R   0.786124 0.633421 0.663305 -0.338218
C75   C     C_R   0.094175 0.637304 0.835468 -0.203569
C76   C     C_R   0.213537 0.366409 0.163034 -0.339647
C77   C     C_R   0.405732 0.137310 0.164525 -0.203597
C78   C     C_R   0.286530 0.866408 0.836954 -0.338669
C79   C     C_R   0.593886 0.862754 0.664558 -0.203223
C80   C     C_R   0.713212 0.133701 0.337145 -0.338628
H9    H     H_    0.790887 0.359456 0.313967 0.157335
H10   H     H_    0.670422 0.632507 0.684137 0.156308
H11   H     H_    0.206144 0.639563 0.813926 0.159965
H12   H     H_    0.329551 0.367384 0.183811 0.155635
H13   H     H_    0.293754 0.139569 0.186065 0.159981
H14   H     H_    0.170536 0.867379 0.816173 0.156248
H15   H     H_    0.705954 0.860503 0.686094 0.160057
H16   H     H_    0.829137 0.132617 0.316368 0.156278
C81   C     C_R   0.066604 0.335958 0.333483 -0.180010
C82   C     C_R   0.931600 0.664284 0.666330 -0.089874
C83   C     C_R   0.932274 0.664085 0.833505 -0.183008
C84   C     C_R   0.068057 0.335576 0.166221 -0.089888
C85   C     C_R   0.567674 0.164090 0.166493 -0.183074
C86   C     C_R   0.431986 0.835580 0.833773 -0.089924
C87   C     C_R   0.432123 0.835920 0.666500 -0.183028
C88   C     C_R   0.568086 0.164593 0.333898 -0.090232
C89   C     C_R   0.210987 0.340236 0.362054 0.118101
C90   C     C_R   0.082980 0.664364 0.639129 0.116901
C91   C     C_R   0.787370 0.660215 0.862022 0.117471
C92   C     C_R   0.916245 0.335413 0.139097 0.116874
C93   C     C_R   0.712592 0.160220 0.137980 0.117446
C94   C     C_R   0.583773 0.835422 0.860902 0.116965
C95   C     C_R   0.287138 0.839761 0.637978 0.117470
C96   C     C_R   0.416587 0.164967 0.361065 0.116796
C97   C     C_R   0.185358 0.369339 0.392351 0.230674
C98   C     C_R   0.083577 0.634320 0.608914 0.124394
C99   C     C_R   0.809637 0.630620 0.892016 0.234289
C100  C     C_R   0.915156 0.365347 0.108803 0.124266
C101  C     C_R   0.690298 0.130626 0.107985 0.234300
C102  C     C_R   0.584855 0.865357 0.891196 0.124435
C103  C     C_R   0.309083 0.869414 0.608023 0.234353
C104  C     C_R   0.415013 0.135058 0.391379 0.124480
C105  C     C_R   0.020340 0.395535 0.393924 0.292665
C106  C     C_R   0.936254 0.603489 0.606293 0.369596
C107  C     C_R   0.970660 0.603263 0.893097 0.287130
C108  C     C_R   0.062539 0.396161 0.105995 0.368609
C109  C     C_R   0.529232 0.103271 0.106899 0.287151
C110  C     C_R   0.437490 0.896165 0.893998 0.368589
C111  C     C_R   0.469887 0.896845 0.606981 0.286976
C112  C     C_R   0.561913 0.104140 0.394224 0.368307
N9    N     N_3   0.978298 0.382657 0.541459 -0.577674
H17   H     H_    0.100928 0.377440 0.558255 0.236031
H18   H     H_    0.856880 0.375687 0.558068 0.237705
N10   N     N_3   0.934236 0.615685 0.458576 -0.578120
H19   H     H_    0.059259 0.623936 0.443569 0.236542
H20   H     H_    0.816410 0.619729 0.440242 0.236657
N11   N     N_3   0.029112 0.616817 0.040335 -0.578016
H21   H     H_    0.908666 0.622562 0.057588 0.235707
H22   H     H_    0.152734 0.623451 0.056425 0.237651
N12   N     N_3   0.048429 0.383225 0.958411 -0.578135
H23   H     H_    0.920893 0.375220 0.944125 0.236754
H24   H     H_    0.163395 0.378757 0.939468 0.236782
N13   N     N_3   0.470961 0.116821 0.959663 -0.577938
H25   H     H_    0.591447 0.122571 0.942420 0.235821
H26   H     H_    0.347377 0.123448 0.943563 0.237751
N14   N     N_3   0.451358 0.883230 0.041580 -0.578180
H27   H     H_    0.578870 0.875230 0.055872 0.236711
H28   H     H_    0.336366 0.878758 0.060516 0.236739
N15   N     N_3   0.528254 0.883439 0.459741 -0.578015
H29   H     H_    0.407832 0.877677 0.442468 0.235754
H30   H     H_    0.651903 0.876850 0.443663 0.237713
N16   N     N_3   0.546628 0.116965 0.541828 -0.577948
H31   H     H_    0.419020 0.124928 0.556087 0.236828
H32   H     H_    0.661515 0.121446 0.560803 0.236860
N17   N     N_3   0.706173 0.417132 0.364640 -0.655499
H33   H     H_    0.683117 0.431795 0.390998 0.241271
H34   H     H_    0.724879 0.440996 0.344231 0.267213
N18   N     N_3   0.641274 0.571098 0.632633 -0.618650
H35   H     H_    0.506891 0.586052 0.633161 0.226001
H36   H     H_    0.651623 0.553036 0.657615 0.263226
N19   N     N_3   0.279779 0.579736 0.863621 -0.648923
H37   H     H_    0.324160 0.573222 0.891540 0.234961
H38   H     H_    0.240158 0.551026 0.850984 0.276872
N20   N     N_3   0.358072 0.428608 0.132140 -0.618177
H39   H     H_    0.492445 0.413660 0.132750 0.225458
H40   H     H_    0.347840 0.446790 0.157054 0.262850
N21   N     N_3   0.220055 0.079743 0.136365 -0.648962
H41   H     H_    0.175737 0.073209 0.108445 0.234979
H42   H     H_    0.259600 0.051043 0.149021 0.276837
N22   N     N_3   0.142004 0.928601 0.867844 -0.617939
H43   H     H_    0.007623 0.913648 0.867225 0.225567
H44   H     H_    0.152282 0.946785 0.842933 0.263622
N23   N     N_3   0.779023 0.920425 0.636451 -0.648693
H45   H     H_    0.824067 0.926676 0.608527 0.234866
H46   H     H_    0.738991 0.949247 0.648816 0.277015
N24   N     N_3   0.857302 0.071557 0.368205 -0.618044
H47   H     H_    0.991760 0.086481 0.367670 0.225792
H48   H     H_    0.847250 0.053353 0.343300 0.263553
N25   N     N_3   0.382996 0.314920 0.361670 -0.654316
H49   H     H_    0.344611 0.282960 0.360078 0.246846
H50   H     H_    0.465017 0.323067 0.337711 0.253287
N26   N     N_3   0.233924 0.695384 0.641866 -0.663950
H51   H     H_    0.365299 0.679667 0.645773 0.231675
H52   H     H_    0.240160 0.712409 0.616274 0.230339
N27   N     N_3   0.618281 0.686474 0.861920 -0.657829
H53   H     H_    0.660175 0.718209 0.860282 0.247655
H54   H     H_    0.534137 0.678782 0.838115 0.252725
N28   N     N_3   0.765278 0.304416 0.141996 -0.663776
H55   H     H_    0.634021 0.320154 0.145973 0.231489
H56   H     H_    0.758445 0.287327 0.116443 0.230218
N29   N     N_3   0.881725 0.186477 0.138088 -0.657799
H57   H     H_    0.839886 0.218214 0.139727 0.247696
H58   H     H_    0.965848 0.178784 0.161892 0.252749
N30   N     N_3   0.734714 0.804429 0.858008 -0.663781
H59   H     H_    0.865991 0.820170 0.854040 0.231545
H60   H     H_    0.741496 0.787340 0.883560 0.230148
N31   N     N_3   0.118327 0.813404 0.638029 -0.657996
H61   H     H_    0.160562 0.781690 0.639653 0.247693
H62   H     H_    0.034039 0.821027 0.661819 0.252696
N32   N     N_3   0.266580 0.196189 0.358206 -0.663614
H63   H     H_    0.134659 0.180657 0.354391 0.231649
H64   H     H_    0.261086 0.213413 0.383699 0.230366
N33   N     N_3   0.326551 0.372204 0.422238 -0.619079
H65   H     H_    0.460597 0.378600 0.409988 0.268027
H66   H     H_    0.335517 0.342631 0.435642 0.276621
N34   N     N_3   0.231660 0.635166 0.580219 -0.630264
H67   H     H_    0.366637 0.633561 0.593346 0.231392
H68   H     H_    0.222825 0.663992 0.565579 0.267173
N35   N     N_3   0.669599 0.628583 0.922146 -0.618998
H69   H     H_    0.533506 0.624267 0.910026 0.259874
H70   H     H_    0.668639 0.657884 0.936140 0.276530
N36   N     N_3   0.766496 0.364382 0.080203 -0.630092
H71   H     H_    0.631746 0.365939 0.093402 0.230920
H72   H     H_    0.775279 0.335525 0.065611 0.267716
N37   N     N_3   0.830358 0.128586 0.077859 -0.618999
H73   H     H_    0.966432 0.124267 0.089983 0.259910
H74   H     H_    0.831384 0.157886 0.063866 0.276545
N38   N     N_3   0.733484 0.864399 0.919802 -0.630086
H75   H     H_    0.868249 0.865964 0.906609 0.230929
H76   H     H_    0.724673 0.835542 0.934392 0.267664
N39   N     N_3   0.168960 0.871429 0.577890 -0.618987
H77   H     H_    0.032841 0.875631 0.590012 0.259612
H78   H     H_    0.168303 0.842156 0.563847 0.276550
N40   N     N_3   0.266270 0.136137 0.419937 -0.629746
H79   H     H_    0.131570 0.134590 0.406697 0.230633
H80   H     H_    0.275221 0.165023 0.434479 0.267850

loop_
_geom_bond_atom_site_label_1
_geom_bond_atom_site_label_2
_ccdc_geom_bond_type
O17   V3    S    
C65   C105  A    
C16   O28   S    
C56   C64   A    
N32   H64   S    
O18   V4    S    
N15   H30   S    
C59   N11   S    
O12   V1    S    
O19   V1    S    
C28   C52   A    
N17   H33   S    
C37   C45   A    
C10   N2    A    
C10   O22   S    
C69   C109  A    
C11   N3    A    
C68   C108  A    
N26   H52   S    
N18   H36   S    
C71   N23   S    
O15   V4    S    
O14   V4    S    
C29   C37   A    
N21   H41   S    
C99   N35   S    
O16   V3    S    
C64   N16   S    
C30   C54   A    
C22   O34   S    
N33   H65   S    
C52   H4    S    
N28   H56   S    
O8    V1    S    
C42   C57   A    
C89   N25   S    
C71   C79   A    
C41   C58   A    
C100  N36   S    
C8    C81   S    
N11   H22   S    
N37   H73   S    
C60   N12   S    
C88   C96   A    
C32   C56   A    
C38   C46   A    
C46   C61   A    
C69   C77   A    
N31   H61   S    
C34   C42   A    
C85   C93   A    
C45   C62   A    
O1    V3    S    
C3    C86   S    
C17   C25   A    
C4    C85   S    
C30   C38   A    
O3    C2    A    
C16   N8    A    
N1    C17   A    
C98   C106  A    
N13   H26   S    
C98   N34   S    
C20   C28   A    
C27   C35   A    
C69   N21   S    
C26   C34   A    
C22   C30   A    
O11   V2    S    
C92   N28   S    
N38   H75   S    
N31   H62   S    
C23   C31   A    
C31   C55   A    
C16   C48   A    
C75   C83   A    
N16   H31   S    
C102  N38   S    
C56   H8    S    
C54   C62   A    
C73   C81   A    
N7    C112  S    
C70   C110  A    
O9    V1    S    
C93   N29   S    
N8    C111  S    
C49   C57   A    
N35   H70   S    
N4    C20   A    
O15   C7    A    
N7    C23   A    
N5    C21   A    
O16   C8    A    
O7    V2    S    
N29   H57   S    
C71   C111  A    
N18   H35   S    
N17   H34   S    
O12   C4    A    
C37   C38   A    
C96   N32   S    
C21   C29   A    
C95   C103  A    
C19   O31   S    
C11   O23   S    
C95   N31   S    
N26   H51   S    
C80   C88   A    
C40   C48   A    
N10   H20   S    
O8    C5    A    
C19   C27   A    
O5    V1    S    
C91   N27   S    
N21   H42   S    
O17   V1    S    
C7    C82   S    
C58   N10   S    
N33   H66   S    
C102  C110  A    
O13   C5    A    
C35   C36   A    
C76   C84   A    
C5    C84   S    
C51   H3    S    
O20   V4    S    
C77   C85   A    
N22   H43   S    
C50   H2    S    
N27   H54   S    
C97   N33   S    
C33   C41   A    
C93   C101  A    
N23   H45   S    
N37   H74   S    
C75   H11   S    
C17   O29   S    
C99   C107  A    
C14   C46   A    
N9    H18   S    
C72   C112  A    
O19   V3    S    
C94   N30   S    
C39   C47   A    
N19   H37   S    
C89   C97   A    
N14   H28   S    
N36   H72   S    
N11   H21   S    
C55   H7    S    
C27   C51   A    
N2    C105  S    
C104  N40   S    
C78   H14   S    
C103  N39   S    
O10   V2    S    
C52   C60   A    
C90   N26   S    
C53   C61   A    
C82   C90   A    
N38   H76   S    
C72   N24   S    
C53   H5    S    
O11   C3    A    
N6    C22   A    
N30   H60   S    
N25   H49   S    
N6    C109  S    
C67   N19   S    
N13   H25   S    
C54   H6    S    
C36   C44   A    
O9    C1    A    
C48   C63   A    
N24   H48   S    
C70   C78   A    
C15   C47   A    
C29   C53   A    
C43   C60   A    
C10   C42   A    
C104  C112  A    
O4    C1    A    
C15   N7    A    
C9    C41   A    
C18   C26   A    
O6    V2    S    
C72   C80   A    
N2    C18   A    
C33   C34   A    
C9    N1    A    
N20   H40   S    
C57   N9    S    
N29   H58   S    
C12   C44   A    
N40   H80   S    
C12   N4    A    
C23   O35   S    
C35   C43   A    
N28   H55   S    
N12   H24   S    
N35   H69   S    
C74   H10   S    
C90   C98   A    
C18   O30   S    
C83   C91   A    
N10   H19   S    
C94   C102  A    
N34   H68   S    
C21   O33   S    
C81   C89   A    
N8    C24   A    
C13   C45   A    
N32   H63   S    
C65   C73   A    
O1    C4    A    
C63   N15   S    
C86   C94   A    
C67   C75   A    
O2    C3    A    
C74   C82   A    
O13   V3    S    
C11   C43   A    
C96   C104  A    
N22   H44   S    
C55   C63   A    
N3    C108  S    
C12   O24   S    
O18   V2    S    
C61   N13   S    
C76   H12   S    
O7    C6    A    
C51   C59   A    
N1    C106  S    
C77   H13   S    
C50   C58   A    
C70   N22   S    
N39   H77   S    
C91   C99   A    
N14   H27   S    
O14   C6    A    
C26   C50   A    
N36   H71   S    
N4    C107  S    
C97   C105  A    
O20   V2    S    
C80   H16   S    
N5    C110  S    
C92   C100  A    
C13   O25   S    
N39   H78   S    
O2    V4    S    
N3    C19   A    
C24   C32   A    
O5    C8    A    
C68   N20   S    
O10   C2    A    
C79   C87   A    
O6    C7    A    
C79   H15   S    
N30   H59   S    
N25   H50   S    
C24   O36   S    
C103  C111  A    
C101  N37   S    
N23   H46   S    
C32   C40   A    
O3    V4    S    
N24   H47   S    
C25   C49   A    
C62   N14   S    
C14   N6    A    
O4    V3    S    
C100  C108  A    
C66   N18   S    
N9    H17   S    
C44   C59   A    
C65   N17   S    
N15   H29   S    
C1    C88   S    
C39   C40   A    
C47   C64   A    
C73   H9    S    
C6    C83   S    
C28   C36   A    
C14   O26   S    
N20   H39   S    
C49   H1    S    
N27   H53   S    
N19   H38   S    
C15   O27   S    
N40   H79   S    
C68   C76   A    
C20   O32   S    
N16   H32   S    
C84   C92   A    
C9    O21   S    
C66   C106  A    
N12   H23   S    
C101  C109  A    
C13   N5    A    
C31   C39   A    
C66   C74   A    
C67   C107  A    
C2    C87   S    
C87   C95   A    
N34   H67   S    
C25   C33   A    
C78   C86   A    
