data_mof_unit_33607.cif
_audit_creation_date              2012-12-10T16:44:38-0500
_audit_creation_method            fapswitch 2.2
_symmetry_space_group_name_H-M    P1
_symmetry_Int_Tables_number       1
_space_group_crystal_system       triclinic
_cell_length_a                    15.050835
_cell_length_b                    8.679437
_cell_length_c                    7.463065
_cell_angle_alpha                 103.178472
_cell_angle_beta                  94.207595
_cell_angle_gamma                 92.923802
_cell_volume                      944.38153699

loop_
_atom_site_label
_atom_site_type_symbol
_atom_type_description
_atom_site_fract_x
_atom_site_fract_y
_atom_site_fract_z
_atom_type_partial_charge
C1    C     C_R   0.497259 0.199655 0.453046 0.859759
C2    C     C_R   0.502741 0.800345 0.546954 0.859757
C3    C     C_R   0.035596 0.301586 0.213951 -0.232491
C4    C     C_R   0.964403 0.698427 0.786040 -0.232491
C5    C     C_2   0.496015 0.031521 0.426861 -0.289494
C6    C     C_2   0.503985 0.968479 0.573139 -0.289496
C7    C     C_R   0.329180 0.503853 0.503190 0.825639
C8    C     C_R   0.670819 0.496148 0.496810 0.825641
C9    C     C_R   0.820360 0.594083 0.635223 -0.192807
C10   C     C_R   0.179639 0.405924 0.364772 -0.192807
C11   C     C_R   0.767140 0.492620 0.491262 -0.143892
C12   C     C_R   0.232860 0.507382 0.508737 -0.143894
C13   C     C_R   0.805745 0.389153 0.348187 0.377258
C14   C     C_R   0.194255 0.610847 0.651815 0.377255
C15   C     C_R   0.899845 0.392878 0.348345 -0.086731
C16   C     C_R   0.100154 0.607128 0.651652 -0.086732
C17   C     C_R   0.953042 0.497443 0.496753 -0.037053
C18   C     C_R   0.046957 0.502564 0.503244 -0.037053
C19   C     C_R   0.912544 0.596823 0.639601 0.041060
C20   C     C_R   0.087456 0.403185 0.360394 0.041058
C21   C     C_R   0.943039 0.295941 0.206530 0.660525
C22   C     C_R   0.056961 0.704071 0.793462 0.660525
Cu1   Cu    Cu3+1 0.510010 0.517380 0.684380 1.180135
Cu2   Cu    Cu3+1 0.489990 0.482620 0.315620 1.180134
H1    H     H_    0.789493 0.672482 0.744498 0.192722
H2    H     H_    0.210506 0.327529 0.255495 0.192725
H3    H     H_    0.066965 0.225876 0.103483 0.203479
H4    H     H_    0.933035 0.774143 0.896504 0.203479
H5    H     H_    0.488546 0.959335 0.286178 0.215795
H6    H     H_    0.511454 0.040665 0.713822 0.215795
N1    N     N_2   0.474890 0.456420 0.038520 0.245255
N2    N     N_2   0.525110 0.543580 0.961480 0.245255
O1    O     O_R   0.506510 0.286130 0.619770 -0.554528
O2    O     O_R   0.493490 0.713870 0.380230 -0.554527
O3    O     O_R   0.489600 0.256770 0.308360 -0.560371
O4    O     O_R   0.510400 0.743230 0.691640 -0.560371
O5    O     O_R   0.378710 0.514640 0.655720 -0.514424
O6    O     O_R   0.621290 0.485360 0.344280 -0.514427
O7    O     O_R   0.361800 0.485290 0.344300 -0.574233
O8    O     O_R   0.638200 0.514710 0.655700 -0.574232
Cl1   Cl    Cl    0.735249 0.248670 0.180656 -0.480490
Cl2   Cl    Cl    0.264752 0.751319 0.819358 -0.480486
F1    F     F_    0.897665 0.196321 0.057689 -0.601315
F2    F     F_    0.102334 0.803701 0.942297 -0.601315
F3    F     F_    0.413811 0.356407 0.925334 -0.533795
F4    F     F_    0.586189 0.643593 0.074666 -0.533795

loop_
_geom_bond_atom_site_label_1
_geom_bond_atom_site_label_2
_ccdc_geom_bond_type
Cu2   O6    S    
Cu1   Cu2   S    
C4    C22   A    
C18   C20   A    
N1    N2    D    
C14   Cl2   S    
C9    C11   A    
Cu1   N2    S    
C2    O2    A    
C3    H3    S    
C17   C18   A    
C7    O5    A    
Cu2   N1    S    
C1    O1    A    
C3    C20   A    
Cu1   O5    S    
C11   C13   A    
C10   H2    S    
C2    C6    S    
C10   C12   A    
C8    O6    A    
C8    C11   S    
C1    C5    S    
C13   Cl1   S    
C17   C19   A    
C12   C14   A    
C5    H5    S    
C13   C15   A    
C5    C6    D    
C14   C16   A    
C7    C12   S    
C3    C21   A    
Cu2   O3    S    
C9    H1    S    
Cu1   O8    S    
C15   C21   A    
Cu2   O7    S    
C1    O3    A    
C16   C18   A    
Cu1   O4    S    
N1    F3    S    
C2    O4    A    
C15   C17   A    
C7    O7    A    
C16   C22   A    
C8    O8    A    
C4    H4    S    
C21   F1    S    
C4    C19   A    
N2    F4    S    
C6    H6    S    
C22   F2    S    
C9    C19   A    
C10   C20   A    
Cu1   O1    S    
Cu2   O2    S    
