data_mof_unit_10393.cif
_audit_creation_date              2013-03-05T16:11:54-0500
_audit_creation_method            fapswitch 2.2
_symmetry_space_group_name_H-M    P1
_symmetry_Int_Tables_number       1
_space_group_crystal_system       triclinic
_cell_length_a                    15.754795
_cell_length_b                    10.653415
_cell_length_c                    9.850606
_cell_angle_alpha                 90.335046
_cell_angle_beta                  89.916915
_cell_angle_gamma                 90.043455
_cell_volume                      1653.31857943

loop_
_atom_site_label
_atom_site_type_symbol
_atom_site_description
_atom_site_fract_x
_atom_site_fract_y
_atom_site_fract_z
_atom_type_partial_charge
O1    O     O_R   0.499990 0.316750 0.614620 -0.598628
O2    O     O_R   0.500010 0.683250 0.385380 -0.598681
O3    O     O_R   0.500000 0.316780 0.385290 -0.627182
O4    O     O_R   0.500000 0.683220 0.614710 -0.628018
C1    C     C_R   0.502620 0.260233 0.499511 0.947940
C2    C     C_R   0.497381 0.739767 0.500489 0.947234
O5    O     O_R   0.376780 0.499970 0.614640 -0.624994
O6    O     O_R   0.623220 0.500030 0.385360 -0.623413
O7    O     O_R   0.376780 0.500000 0.385310 -0.583703
O8    O     O_R   0.623220 0.500000 0.614690 -0.583530
C3    C     C_R   0.337996 0.499470 0.500070 0.924588
C4    C     C_R   0.662004 0.500527 0.499929 0.924846
Zn1   Zn    Zn3+2 0.500000 0.499980 0.653120 1.025907
Zn2   Zn    Zn3+2 0.500000 0.500020 0.346880 1.027048
C5    C     C_3   0.972729 0.421911 0.594112 0.231201
C6    C     C_3   0.027278 0.577858 0.405747 0.233827
C7    C     C_3   0.028129 0.384413 0.472645 0.317603
C8    C     C_3   0.971878 0.615340 0.527158 0.319777
H1    H     H_    0.947429 0.431816 0.274822 0.234705
H2    H     H_    0.052571 0.568041 0.724981 0.224077
C9    C     C_1   0.249363 0.499570 0.500261 -0.063454
C10   C     C_1   0.750636 0.500364 0.499724 -0.060420
C11   C     C_3   0.028750 0.537784 0.623944 -0.367743
C12   C     C_3   0.971260 0.462023 0.375869 -0.337272
C13   C     C_3   0.083659 0.500347 0.499781 -0.124641
C14   C     C_3   0.916340 0.499443 0.500058 -0.121974
C15   C     C_1   0.174288 0.499903 0.500165 0.157813
C16   C     C_1   0.825712 0.499963 0.499766 0.164575
C17   C     C_R   0.449180 0.066822 0.409524 -0.251482
C18   C     C_R   0.550823 0.933179 0.590475 -0.252337
H3    H     H_    0.408008 0.120243 0.343231 0.202279
H4    H     H_    0.591994 0.879757 0.656767 0.202056
C19   C     C_R   0.442687 0.937935 0.411678 0.317456
C20   C     C_R   0.557317 0.062066 0.588319 0.317981
C21   C     C_R   0.495096 0.872229 0.502051 -0.198935
C22   C     C_R   0.504906 0.127771 0.497948 -0.198424
C23   C     C_R   0.549250 0.582863 0.072280 -0.014675
C24   C     C_R   0.450750 0.417137 0.927720 -0.015788
H5    H     H_    0.588659 0.649124 0.127000 0.150367
H6    H     H_    0.411340 0.350877 0.873000 0.149933
C25   C     C_R   0.549234 0.582829 0.928453 -0.017066
C26   C     C_R   0.450766 0.417171 0.071547 -0.017319
H7    H     H_    0.588625 0.649071 0.874308 0.148945
H8    H     H_    0.411374 0.350930 0.125692 0.148838
N1    N     N_R   0.499980 0.499970 0.857200 -0.095985
N2    N     N_R   0.500020 0.500030 0.142800 -0.095992
S1    S     S_3+6 0.066143 0.230252 0.436076 0.137166
O9    O     O_2   0.118709 0.233413 0.308777 -0.208339
O10   O     O_2   0.119984 0.184347 0.551365 -0.229793
O11   O     O_3   0.983548 0.132523 0.412738 -0.411340
H9    H     H_    0.955048 0.128298 0.502367 0.400079
S2    S     S_3+6 0.934282 0.769933 0.562620 0.122634
O12   O     O_2   0.875230 0.810369 0.451566 -0.200844
O13   O     O_2   0.887467 0.771111 0.695624 -0.243738
O14   O     O_3   0.016802 0.869793 0.570623 -0.422828
H10   H     H_    0.055494 0.833333 0.639019 0.365328
N3    N     N_R   0.943621 0.335108 0.698185 0.232734
O15   O     O_R   0.998602 0.278881 0.775049 -0.280014
O16   O     O_R   0.863053 0.314373 0.716112 -0.302282
N4    N     N_R   0.056349 0.664973 0.301955 0.260808
O17   O     O_R   0.001319 0.721770 0.225673 -0.259889
O18   O     O_R   0.136913 0.685660 0.283926 -0.289700
N5    N     N_R   0.380810 0.876307 0.326997 0.230975
O19   O     O_R   0.334937 0.785084 0.374913 -0.347783
O20   O     O_R   0.361470 0.922890 0.209191 -0.325698
N6    N     N_R   0.619195 0.123693 0.672996 0.229941
O21   O     O_R   0.665072 0.214910 0.625073 -0.348980
O22   O     O_R   0.638536 0.077113 0.790804 -0.325778

loop_
_geom_bond_atom_site_label_1
_geom_bond_atom_site_label_2
_geom_bond_distance
_ccdc_geom_bond_type
C5    N3    1.457929 S    
C18   H4    1.084995 S    
O7    Zn2   1.977334 S    
N5    O20   1.301455 A    
C24   C26   1.416785 A    
C4    C10   1.396383 S    
C13   C15   1.427865 S    
C25   H7    1.081852 S    
C6    C12   1.543776 S    
O11   H9    0.991181 S    
N6    O22   1.301459 A    
S1    O9    1.502292 D    
C8    C14   1.535104 S    
S2    O14   1.680909 S    
C19   N5    1.439506 S    
O6    C4    1.284132 A    
C7    C13   1.535417 S    
C20   N6    1.439507 S    
O14   H10   0.990463 S    
C5    C11   1.544028 S    
N6    O21   1.301115 A    
C9    C15   1.182804 T    
H2    C11   1.110167 S    
C8    S2    1.783099 S    
C23   H5    1.081756 S    
C6    C8    1.530856 S    
C10   C16   1.182809 T    
C2    C21   1.411657 S    
O5    C3    1.284140 A    
O7    C3    1.284288 A    
C17   C22   1.394938 A    
N3    O15   1.300162 A    
O2    C2    1.281356 A    
O3    Zn2   1.990632 S    
C26   H8    1.081852 S    
C18   C21   1.394938 A    
O1    C1    1.281357 A    
O8    C4    1.284298 A    
N4    O18   1.300209 A    
C24   H6    1.081756 S    
C12   C14   1.547856 S    
H1    C12   1.110159 S    
S1    O11   1.681115 S    
C20   C22   1.405194 A    
C11   C13   1.547618 S    
C23   C25   1.416784 A    
O2    Zn2   1.986346 S    
N3    O16   1.300212 A    
C7    C12   1.551756 S    
O1    Zn1   1.986346 S    
C18   C20   1.377100 A    
C8    C11   1.551539 S    
O3    C1    1.280101 A    
C1    C22   1.411656 S    
C17   C19   1.377099 A    
O5    Zn1   1.978506 S    
S2    O12   1.502303 D    
Zn1   N1    2.010312 S    
S1    O10   1.502780 D    
O4    C2    1.280101 A    
C26   N2    1.366495 A    
C6    C13   1.530146 S    
C5    C7    1.531327 S    
C25   N1    1.366495 A    
N4    O17   1.300174 A    
C5    C14   1.530468 S    
O6    Zn2   1.978503 S    
Zn2   N2    2.010312 S    
C19   C21   1.405195 A    
C23   N2    1.366538 A    
C17   H3    1.084996 S    
C6    N4    1.457915 S    
C14   C16   1.427849 S    
C3    C9    1.396385 S    
O4    Zn1   1.990632 S    
C7    S1    1.783167 S    
S2    O13   1.502564 D    
N5    O19   1.301112 A    
C24   N1    1.366538 A    
O8    Zn1   1.977333 S    
