data_mof_unit_37059.cif
_audit_creation_date              2012-10-26T18:40:14-0400
_audit_creation_method            fapswitch 2.2
_symmetry_space_group_name_H-M    P1
_symmetry_Int_Tables_number       1
_space_group_crystal_system       triclinic
_cell_length_a                    8.786308
_cell_length_b                    15.045265
_cell_length_c                    14.081516
_cell_angle_alpha                 90.99406
_cell_angle_beta                  97.882779
_cell_angle_gamma                 93.803673
_cell_volume                      1839.15849411

loop_
_atom_site_label
_atom_site_type_symbol
_atom_type_description
_atom_site_fract_x
_atom_site_fract_y
_atom_site_fract_z
_atom_type_partial_charge
C1    C     C_R   0.503623 0.330703 0.499662 0.528764
C2    C     C_R   0.564205 0.568658 0.902203 -0.125143
C3    C     C_R   0.503294 0.495844 0.054887 -0.003172
C4    C     C_R   0.503833 0.495217 0.946656 -0.001672
C5    C     C_R   0.204466 0.496791 0.475869 0.572311
C6    C     C_R   0.795152 0.498756 0.524423 0.578968
C7    C     C_2   0.039267 0.483090 0.465040 0.165797
C8    C     C_2   0.960544 0.504723 0.537789 0.167810
C9    C     C_R   0.636258 0.100375 0.544002 -0.100494
C10   C     C_R   0.371477 0.902389 0.518583 -0.102828
C11   C     C_R   0.640104 0.193517 0.544985 0.006124
C12   C     C_R   0.498377 0.669420 0.500548 0.513588
C13   C     C_R   0.365706 0.809316 0.520526 0.004249
C14   C     C_R   0.510554 0.234703 0.498989 0.037816
C15   C     C_R   0.496510 0.765721 0.501644 0.032567
C16   C     C_R   0.382934 0.183271 0.452363 -0.158510
C17   C     C_R   0.628468 0.814867 0.481354 -0.151172
C18   C     C_R   0.381515 0.091031 0.451290 -0.131035
C19   C     C_R   0.632707 0.907251 0.480405 -0.126172
C20   C     C_R   0.507708 0.049049 0.497536 0.015107
C21   C     C_R   0.504152 0.951480 0.498869 0.014699
C22   C     C_3   0.783353 0.245640 0.595029 -0.280336
C23   C     C_R   0.604624 0.553421 0.116833 -0.115335
C24   C     C_3   0.920244 0.236631 0.540250 -0.429455
C25   C     C_3   0.216496 0.759794 0.537753 -0.267404
C26   C     C_3   0.184648 0.774581 0.640555 -0.406699
C27   C     C_3   0.709489 0.629195 0.272766 -0.234283
C28   C     C_3   0.876087 0.630338 0.251017 -0.439851
C29   C     C_3   0.320297 0.357197 0.729572 -0.217714
C30   C     C_3   0.386883 0.265632 0.736748 -0.447636
C31   C     C_3   0.293444 0.369523 0.233417 -0.227624
C32   C     C_3   0.343671 0.275774 0.216333 -0.447932
C33   C     C_3   0.622297 0.663082 0.769799 -0.230979
C34   C     C_R   0.436918 0.424782 0.885694 -0.116240
C35   C     C_3   0.779197 0.664292 0.734926 -0.363198
C36   C     C_R   0.601877 0.556873 0.217015 0.184049
C37   C     C_R   0.428122 0.429017 0.784508 0.181394
C38   C     C_R   0.402469 0.440075 0.198543 0.162472
C39   C     C_R   0.563621 0.571957 0.801869 0.169153
C40   C     C_R   0.399941 0.440751 0.097894 -0.119041
Cl1   Cl    Cl    0.954406 0.421995 0.359946 -0.693531
Cl2   Cl    Cl    0.046596 0.549488 0.651774 -0.704865
Cu1   Cu    Cu3+1 0.500000 0.499990 0.596430 0.950184
Cu2   Cu    Cu3+1 0.500000 0.500010 0.403570 0.955070
H1    H     H_    0.732930 0.067777 0.580880 0.104455
H2    H     H_    0.606853 0.626974 0.945812 0.085651
H3    H     H_    0.890915 0.257699 0.465175 0.211333
H4    H     H_    0.020574 0.279720 0.575213 0.144236
H5    H     H_    0.953210 0.166652 0.539852 0.134463
H6    H     H_    0.766519 0.317466 0.602982 0.186782
H7    H     H_    0.811899 0.220676 0.668710 0.133198
H8    H     H_    0.070124 0.742405 0.648830 0.177919
H9    H     H_    0.273540 0.744920 0.691699 0.177674
H10   H     H_    0.183406 0.846675 0.658285 0.126717
H11   H     H_    0.120083 0.783821 0.487403 0.121523
H12   H     H_    0.271964 0.936757 0.532594 0.102653
H13   H     H_    0.216615 0.687186 0.523243 0.185512
H14   H     H_    0.910370 0.561958 0.239028 0.225796
H15   H     H_    0.889657 0.669465 0.186215 0.124381
H16   H     H_    0.955845 0.662473 0.311888 0.139108
H17   H     H_    0.664400 0.694996 0.254629 0.113260
H18   H     H_    0.716233 0.624490 0.350140 0.211422
H19   H     H_    0.384232 0.239224 0.809669 0.127343
H20   H     H_    0.316789 0.218206 0.684232 0.137842
H21   H     H_    0.507878 0.269371 0.721799 0.180146
H22   H     H_    0.210038 0.352808 0.760316 0.127410
H23   H     H_    0.283135 0.214769 0.418021 0.111090
H24   H     H_    0.284407 0.372867 0.654502 0.212253
H25   H     H_    0.344565 0.261585 0.138803 0.136148
H26   H     H_    0.460606 0.268338 0.255439 0.191187
H27   H     H_    0.261608 0.225750 0.242457 0.137597
H28   H     H_    0.281159 0.376124 0.309041 0.230304
H29   H     H_    0.175868 0.374999 0.194096 0.149197
H30   H     H_    0.850947 0.614891 0.773859 0.206990
H31   H     H_    0.768216 0.652340 0.656732 0.205853
H32   H     H_    0.840264 0.731255 0.749332 0.103909
H33   H     H_    0.534082 0.696485 0.723137 0.170361
H34   H     H_    0.728533 0.781468 0.466412 0.091684
H35   H     H_    0.640211 0.711863 0.831229 0.084896
H36   H     H_    0.281774 0.052427 0.414322 0.108495
H37   H     H_    0.735518 0.944128 0.463919 0.106694
H38   H     H_    0.688882 0.596420 0.088008 0.097956
H39   H     H_    0.384916 0.366576 0.915720 0.091169
H40   H     H_    0.315022 0.397159 0.053695 0.094716
N1    N     N_R   0.500000 0.500020 0.258690 -0.203737
N2    N     N_R   0.500000 0.499980 0.741310 -0.190673
O1    O     O_R   0.500010 0.371450 0.581430 -0.536167
O2    O     O_R   0.499990 0.628550 0.418570 -0.529435
O3    O     O_R   0.500010 0.371460 0.418560 -0.501506
O4    O     O_R   0.499990 0.628540 0.581440 -0.514789
O5    O     O_R   0.274840 0.499990 0.562640 -0.472418
O6    O     O_R   0.725160 0.500010 0.437360 -0.474866
O7    O     O_R   0.274840 0.500000 0.399770 -0.499802
O8    O     O_R   0.725160 0.500000 0.600230 -0.483735

loop_
_geom_bond_atom_site_label_1
_geom_bond_atom_site_label_2
_ccdc_geom_bond_type
C1    O1    A    
C35   H30   S    
C9    H1    S    
C23   H38   S    
C30   H20   S    
C34   C37   A    
C40   H40   S    
C3    C23   A    
C7    C8    D    
C2    H2    S    
C35   H31   S    
C33   C39   S    
C12   O4    A    
C19   C21   A    
C8    Cl2   S    
C11   C14   A    
C31   H29   S    
Cu1   O8    S    
Cu2   O7    S    
C27   H17   S    
C17   C19   A    
C2    C39   A    
C6    O8    A    
C10   H12   S    
C18   C20   A    
Cu2   O6    S    
C22   H6    S    
C30   H19   S    
Cu1   N2    S    
C13   C25   S    
C25   H13   S    
C26   H10   S    
C32   H27   S    
C28   H16   S    
C10   C21   A    
C4    C34   A    
C35   H32   S    
Cu1   O4    S    
C12   O2    A    
C38   N1    A    
C24   H4    S    
C37   N2    A    
C5    C7    S    
C32   H26   S    
C33   H35   S    
C6    C8    S    
C25   C26   S    
Cu1   O5    S    
C2    C4    A    
Cu1   Cu2   S    
C29   C30   S    
C27   H18   S    
C26   H8    S    
C29   H24   S    
C9    C20   A    
C31   C32   S    
C12   C15   S    
C16   H23   S    
C9    C11   A    
C5    O5    A    
C18   H36   S    
C31   H28   S    
C3    C40   A    
C13   C15   A    
C36   N1    A    
C22   C24   S    
C34   H39   S    
C3    C4    S    
C26   H9    S    
C28   H15   S    
C24   H5    S    
C15   C17   A    
C1    O3    A    
C24   H3    S    
C25   H11   S    
C10   C13   A    
C5    O7    A    
C32   H25   S    
C28   H14   S    
C27   C36   S    
C11   C22   S    
C31   C38   S    
Cu1   O1    S    
Cu2   O2    S    
C38   C40   A    
C33   H33   S    
C6    O6    A    
C17   H34   S    
C33   C35   S    
C14   C16   A    
C7    Cl1   S    
C30   H21   S    
C29   H22   S    
C20   C21   S    
C16   C18   A    
C23   C36   A    
C29   C37   S    
C27   C28   S    
C1    C14   S    
C39   N2    A    
C19   H37   S    
Cu2   O3    S    
Cu2   N1    S    
C22   H7    S    
