data_mof_unit_30009.cif
_audit_creation_date              2012-12-10T18:52:16-0500
_audit_creation_method            fapswitch 2.2
_symmetry_space_group_name_H-M    P1
_symmetry_Int_Tables_number       1
_space_group_crystal_system       triclinic
_cell_length_a                    15.729747
_cell_length_b                    10.635451
_cell_length_c                    10.006376
_cell_angle_alpha                 90.308348
_cell_angle_beta                  89.955346
_cell_angle_gamma                 93.80076
_cell_volume                      1670.29005096

loop_
_atom_site_label
_atom_site_type_symbol
_atom_type_description
_atom_site_fract_x
_atom_site_fract_y
_atom_site_fract_z
_atom_type_partial_charge
C1    C     C_R   0.501307 0.260888 0.499470 0.874638
C2    C     C_R   0.445188 0.418549 0.071329 0.198465
C3    C     C_R   0.338309 0.499431 0.500044 0.881660
C4    C     C_R   0.661691 0.500569 0.499956 0.881681
C5    C     C_3   0.967975 0.421771 0.594825 0.158124
C6    C     C_3   0.032026 0.578244 0.405171 0.158255
C7    C     C_3   0.022753 0.382677 0.475592 0.164003
C8    C     C_3   0.977247 0.617337 0.524405 0.164102
C9    C     C_1   0.249504 0.499446 0.500339 -0.185751
C10   C     C_1   0.750496 0.500558 0.499661 -0.185752
C11   C     C_3   0.029120 0.539147 0.620953 0.126295
C12   C     C_R   0.498695 0.739113 0.500529 0.874607
C13   C     C_3   0.970880 0.460867 0.379043 0.126307
C14   C     C_3   0.083363 0.499914 0.501266 -0.001092
C15   C     C_3   0.916637 0.500098 0.498731 -0.001108
C16   C     C_1   0.174300 0.499584 0.500813 -0.027303
C17   C     C_1   0.825701 0.500423 0.499186 -0.027318
C18   C     C_R   0.562999 0.067862 0.422985 0.196822
C19   C     C_R   0.436997 0.932136 0.577012 0.196819
C20   C     C_3   0.051628 0.250369 0.453071 -0.899109
C21   C     C_3   0.948363 0.749639 0.546922 -0.899139
C22   C     C_3   0.928810 0.330876 0.698433 -0.895913
C23   C     C_R   0.559849 0.938040 0.425286 -0.244484
C24   C     C_3   0.071199 0.669147 0.301578 -0.895948
C25   C     C_3   0.929879 0.419146 0.245614 -0.375232
C26   C     C_3   0.994444 0.378990 0.142619 -0.863934
C27   C     C_3   0.070113 0.580816 0.754403 -0.375182
C28   C     C_3   0.005564 0.621288 0.857269 -0.863695
C29   C     C_3   0.632425 0.139250 0.344421 -0.877875
C30   C     C_3   0.367564 0.860750 0.655573 -0.877833
C31   C     C_3   0.617208 0.673335 0.143078 -0.831864
C32   C     C_3   0.382768 0.326700 0.856922 -0.831839
C33   C     C_3   0.616731 0.673797 0.858266 -0.816433
C34   C     C_R   0.440150 0.061959 0.574717 -0.244484
C35   C     C_3   0.383307 0.326153 0.141735 -0.816514
C36   C     C_R   0.497906 0.871706 0.501585 -0.061496
C37   C     C_R   0.502094 0.128293 0.498413 -0.061497
C38   C     C_R   0.554911 0.581383 0.071995 0.212835
C39   C     C_R   0.445086 0.418620 0.928005 0.212839
C40   C     C_R   0.554817 0.581444 0.928671 0.198459
H1    H     H_    0.606306 0.888101 0.369325 0.144214
H2    H     H_    0.882849 0.379047 0.761576 0.242625
H3    H     H_    0.894446 0.249921 0.647082 0.246724
H4    H     H_    0.020231 0.704140 0.237815 0.240152
H5    H     H_    0.105547 0.750109 0.352943 0.246726
H6    H     H_    0.117178 0.620986 0.238460 0.242657
H7    H     H_    0.043886 0.455851 0.123686 0.266032
H8    H     H_    0.025149 0.293967 0.176400 0.262829
H9    H     H_    0.961163 0.355630 0.046958 0.246268
H10   H     H_    0.882458 0.338980 0.263915 0.207495
H11   H     H_    0.895706 0.498509 0.204584 0.205426
H12   H     H_    0.393696 0.111897 0.630685 0.144224
H13   H     H_    0.975200 0.706637 0.823519 0.262738
H14   H     H_    0.955842 0.544722 0.875942 0.266036
H15   H     H_    0.038802 0.644284 0.953062 0.246170
H16   H     H_    0.104126 0.501335 0.795543 0.205395
H17   H     H_    0.117676 0.660815 0.736110 0.207461
H18   H     H_    0.668042 0.208582 0.410353 0.229738
H19   H     H_    0.678774 0.075286 0.302313 0.224772
H20   H     H_    0.604365 0.189104 0.259683 0.263103
H21   H     H_    0.332022 0.791308 0.589690 0.229757
H22   H     H_    0.395615 0.811048 0.740412 0.263059
H23   H     H_    0.996062 0.185719 0.425549 0.243861
H24   H     H_    0.321139 0.924688 0.697521 0.224745
H25   H     H_    0.604335 0.771476 0.116706 0.215518
H26   H     H_    0.614938 0.668984 0.251182 0.284677
H27   H     H_    0.683495 0.654848 0.114982 0.212389
H28   H     H_    0.395586 0.228547 0.883341 0.215515
H29   H     H_    0.316486 0.345274 0.884969 0.212391
H30   H     H_    0.385070 0.331008 0.748817 0.284676
H31   H     H_    0.614046 0.669809 0.750099 0.287882
H32   H     H_    0.603758 0.771784 0.886275 0.215898
H33   H     H_    0.683158 0.655481 0.885340 0.213259
H34   H     H_    0.099888 0.251353 0.372171 0.241746
H35   H     H_    0.385943 0.330203 0.249896 0.287883
H36   H     H_    0.316878 0.344341 0.114594 0.213264
H37   H     H_    0.396360 0.228191 0.113800 0.215925
H38   H     H_    0.080705 0.216519 0.546106 0.242630
H39   H     H_    0.003929 0.814303 0.574416 0.243848
H40   H     H_    0.919266 0.783473 0.453897 0.242632
H41   H     H_    0.900117 0.748649 0.627842 0.241797
H42   H     H_    0.979785 0.295871 0.762173 0.240142
N1    N     N_R   0.499980 0.499970 0.857200 -0.116447
N2    N     N_R   0.500020 0.500030 0.142800 -0.116442
O1    O     O_R   0.499990 0.316750 0.614620 -0.623407
O2    O     O_R   0.500010 0.683250 0.385380 -0.623394
O3    O     O_R   0.500000 0.316780 0.385290 -0.624212
O4    O     O_R   0.500000 0.683220 0.614710 -0.624184
O5    O     O_R   0.376780 0.499970 0.614640 -0.622015
O6    O     O_R   0.623220 0.500030 0.385360 -0.622027
O7    O     O_R   0.376780 0.500000 0.385310 -0.614841
O8    O     O_R   0.623220 0.500000 0.614690 -0.614845
Zn1   Zn    Zn3+2 0.500000 0.499980 0.653120 0.931214
Zn2   Zn    Zn3+2 0.500000 0.500020 0.346880 0.931204

loop_
_geom_bond_atom_site_label_1
_geom_bond_atom_site_label_2
_ccdc_geom_bond_type
C2    C35   S    
C1    O3    A    
C31   H26   S    
C30   H24   S    
C34   C37   A    
C2    N2    A    
C31   H27   S    
C35   H35   S    
C24   H5    S    
C22   H42   S    
C18   C37   A    
C5    C11   S    
C19   C36   A    
C11   C14   S    
C10   C17   T    
N1    Zn1   S    
O3    Zn2   S    
C3    O7    A    
C32   C39   S    
C25   H10   S    
O2    Zn2   S    
C33   H32   S    
O1    Zn1   S    
C2    C39   A    
C7    C14   S    
C5    C22   S    
C29   H19   S    
C12   C36   S    
C1    C37   S    
C32   H28   S    
C40   N1    A    
C13   C25   S    
C28   H15   S    
O6    Zn2   S    
C4    O6    A    
C1    O1    A    
C35   H36   S    
C33   C40   S    
C12   O4    A    
C18   C23   A    
C26   H8    S    
C27   H17   S    
C26   H9    S    
C5    C7    S    
C31   H25   S    
C27   H16   S    
C6    C8    S    
C25   C26   S    
C35   H37   S    
C25   H11   S    
C3    C9    S    
C6    C14   S    
C22   H3    S    
C29   H20   S    
C11   C27   S    
C6    C24   S    
C21   H39   S    
C8    C21   S    
C20   H34   S    
C18   C29   S    
N2    Zn2   S    
C26   H7    S    
C33   H33   S    
C21   H41   S    
C23   C36   A    
C8    C15   S    
C13   C15   S    
C24   H4    S    
C14   C16   S    
C4    C10   S    
C15   C17   S    
O4    Zn1   S    
C28   H14   S    
C38   N2    A    
C9    C16   T    
C19   C34   A    
C32   H30   S    
C28   H13   S    
C32   H29   S    
C20   H38   S    
C34   H12   S    
C23   H1    S    
C31   C38   S    
C12   O2    A    
C3    O5    A    
C24   H6    S    
C20   H23   S    
C30   H22   S    
C39   N1    A    
C6    C13   S    
C38   C40   A    
C22   H2    S    
C8    C11   S    
C21   H40   S    
O8    Zn1   S    
O5    Zn1   S    
C5    C15   S    
C33   H31   S    
C7    C13   S    
C29   H18   S    
C7    C20   S    
C30   H21   S    
C27   C28   S    
C4    O8    A    
C19   C30   S    
O7    Zn2   S    
