data_mof_unit_32058.cif
_audit_creation_date              2013-03-05T16:36:14-0500
_audit_creation_method            fapswitch 2.2
_symmetry_space_group_name_H-M    P1
_symmetry_Int_Tables_number       1
_space_group_crystal_system       triclinic
_cell_length_a                    27.879664
_cell_length_b                    9.082475
_cell_length_c                    7.774008
_cell_angle_alpha                 89.963114
_cell_angle_beta                  89.991309
_cell_angle_gamma                 90.017946
_cell_volume                      1968.50541345

loop_
_atom_site_label
_atom_site_type_symbol
_atom_site_description
_atom_site_fract_x
_atom_site_fract_y
_atom_site_fract_z
_atom_type_partial_charge
O1    O     O_R   0.500000 0.288390 0.642760 -0.580684
O2    O     O_R   0.500000 0.711610 0.357240 -0.580696
O3    O     O_R   0.500000 0.711610 0.642760 -0.576287
O4    O     O_R   0.500000 0.288390 0.357240 -0.576295
C1    C     C_R   0.500006 0.219995 0.500031 0.838531
C2    C     C_R   0.499994 0.780004 0.499969 0.838587
O5    O     O_R   0.430260 0.500000 0.642770 -0.564122
O6    O     O_R   0.569740 0.500000 0.357230 -0.564177
O7    O     O_R   0.569740 0.500000 0.642770 -0.557016
O8    O     O_R   0.430260 0.500000 0.357230 -0.556982
C3    C     C_R   0.407158 0.500371 0.500013 0.830366
C4    C     C_R   0.592840 0.499623 0.499987 0.830368
Cu1   Cu    Cu3+1 0.500000 0.500000 0.669080 1.031071
Cu2   Cu    Cu3+1 0.500000 0.500000 0.330920 1.031063
C5    C     C_R   0.177724 0.370607 0.523175 0.542864
C6    C     C_R   0.822272 0.629261 0.476732 0.542863
C7    C     C_R   0.177685 0.630104 0.477020 0.541037
C8    C     C_R   0.822310 0.369785 0.523053 0.541041
O9    O     O_2   0.202522 0.244595 0.546895 -0.523298
O10   O     O_2   0.797476 0.755263 0.452919 -0.523373
O11   O     O_2   0.202446 0.756238 0.453302 -0.524835
O12   O     O_2   0.797551 0.243664 0.546870 -0.524905
N1    N     N_R   0.201738 0.500419 0.500157 -0.459358
N2    N     N_R   0.798257 0.499460 0.499838 -0.459324
C9    C     C_R   0.278151 0.564354 0.636877 -0.141587
C10   C     C_R   0.721837 0.435268 0.363304 -0.141482
C11   C     C_R   0.278214 0.437348 0.363627 -0.161130
C12   C     C_R   0.721781 0.562821 0.636213 -0.161025
C13   C     C_R   0.328442 0.566108 0.638301 0.076432
C14   C     C_R   0.671546 0.433542 0.361885 0.076388
C15   C     C_R   0.328375 0.436823 0.362186 0.072725
C16   C     C_R   0.671621 0.563382 0.637647 0.072781
C17   C     C_R   0.253162 0.500579 0.500281 0.303518
C18   C     C_R   0.746830 0.499306 0.499726 0.303329
C19   C     C_R   0.101746 0.500171 0.500029 -0.043957
C20   C     C_R   0.898251 0.499705 0.499950 -0.043951
C21   C     C_R   0.127374 0.368080 0.523492 -0.023220
C22   C     C_R   0.872622 0.631786 0.476417 -0.023206
C23   C     C_R   0.127337 0.632382 0.476593 -0.022383
C24   C     C_R   0.872659 0.367505 0.523462 -0.022372
C25   C     C_R   0.102388 0.236585 0.547226 -0.146106
C26   C     C_R   0.897608 0.763273 0.452610 -0.146125
C27   C     C_R   0.102316 0.763756 0.452794 -0.146099
C28   C     C_R   0.897679 0.236138 0.547325 -0.146117
C29   C     C_R   0.354070 0.501249 0.500082 -0.049923
C30   C     C_R   0.645925 0.498709 0.499920 -0.049959
C31   C     C_R   0.974498 0.365259 0.524299 0.044963
C32   C     C_R   0.025497 0.634619 0.475702 0.044963
C33   C     C_R   0.974462 0.634500 0.475665 0.045009
C34   C     C_R   0.025533 0.365371 0.524279 0.045008
C35   C     C_R   0.949302 0.499822 0.499972 0.067572
C36   C     C_R   0.050693 0.500053 0.500003 0.067568
C37   C     C_R   0.947450 0.234678 0.547932 -0.206776
C38   C     C_R   0.052546 0.765212 0.452163 -0.206752
C39   C     C_R   0.947379 0.764962 0.452048 -0.206598
C40   C     C_R   0.052617 0.234897 0.547804 -0.206573
H1    H     H_    0.963368 0.128243 0.567703 0.130971
H2    H     H_    0.036628 0.871657 0.432472 0.130935
H3    H     H_    0.963269 0.871476 0.432327 0.130956
H4    H     H_    0.036727 0.128373 0.567438 0.130920
C41   C     C_1   0.500003 0.065385 0.500042 -0.167530
C42   C     C_1   0.499998 0.934615 0.499957 -0.167518
N3    N     N_1   0.500000 0.500000 0.076820 -0.032375
N4    N     N_1   0.500000 0.500000 0.923180 -0.032378
N5    N     N_3   0.353009 0.367661 0.222044 -0.552883
H5    H     H_    0.341918 0.257802 0.215850 0.229935
H6    H     H_    0.342437 0.419540 0.108059 0.238640
N6    N     N_3   0.646988 0.632834 0.777595 -0.553013
H7    H     H_    0.658084 0.742699 0.783496 0.229913
H8    H     H_    0.657553 0.581175 0.891724 0.238704
N7    N     N_3   0.353468 0.636247 0.777729 -0.553709
H9    H     H_    0.369090 0.732312 0.729081 0.222701
H10   H     H_    0.329480 0.669073 0.873759 0.220282
N8    N     N_3   0.646511 0.363127 0.222661 -0.553657
H11   H     H_    0.630797 0.267339 0.271670 0.222579
H12   H     H_    0.670506 0.329791 0.126892 0.220433
H13   H     H_    0.258585 0.388010 0.258074 0.153890
H14   H     H_    0.741413 0.612359 0.741634 0.153988
H15   H     H_    0.258154 0.613428 0.741672 0.147872
H16   H     H_    0.741831 0.385979 0.258638 0.147973
H17   H     H_    0.121261 0.133541 0.565900 0.185251
H18   H     H_    0.878735 0.866309 0.433869 0.185271
H19   H     H_    0.121162 0.866887 0.434123 0.185236
H20   H     H_    0.878834 0.133016 0.566066 0.185257

loop_
_geom_bond_atom_site_label_1
_geom_bond_atom_site_label_2
_geom_bond_distance
_ccdc_geom_bond_type
C39   H3    1.074784 S    
C27   H19   1.083508 S    
C19   C23   1.408292 A    
C26   H18   1.083515 S    
O3    C2    1.271698 A    
C11   H13   1.083547 S    
C11   C17   1.395359 A    
C5    O9    1.349860 S    
C7    N1    1.367344 A    
N8    H12   1.045823 S    
C8    N2    1.367363 A    
C19   C21   1.408328 A    
C22   C26   1.394573 A    
C32   C36   1.422383 A    
C14   N8    1.438202 S    
N5    H6    1.045815 S    
C7    C23   1.403857 A    
O7    Cu1   1.955023 S    
C5    C21   1.403912 A    
C20   C24   1.408303 A    
C8    C24   1.403868 A    
C28   C37   1.387664 A    
C10   C18   1.396180 A    
N6    H7    1.045639 S    
N1    C17   1.433699 S    
C34   C36   1.422359 A    
C12   H14   1.083562 S    
O3    Cu1   1.932673 S    
C6    O10   1.349854 S    
C16   N6    1.433211 S    
C5    N1    1.367310 A    
C12   C18   1.395387 A    
C6    N2    1.367330 A    
C9    H15   1.083356 S    
Cu1   Cu2   2.628859 S    
O4    Cu2   1.932673 S    
O2    C2    1.271979 A    
O5    C3    1.283241 A    
C31   C34   1.422841 A    
C9    C13   1.402249 A    
N8    H11   1.045599 S    
C11   C15   1.398544 A    
C12   C16   1.398509 A    
C4    C30   1.480001 S    
O8    Cu2   1.955025 S    
N7    H10   1.045817 S    
C37   H1    1.074786 S    
C31   C35   1.422387 A    
C33   C35   1.422362 A    
C33   C39   1.417110 A    
C34   C40   1.417105 A    
C40   H4    1.074774 S    
C13   C29   1.418782 A    
C32   C38   1.417086 A    
C25   C40   1.387699 A    
C26   C39   1.387682 A    
C27   C38   1.387673 A    
C24   C28   1.394580 A    
O6    C4    1.283217 A    
C25   H17   1.083507 S    
C1    C41   1.404247 S    
C20   C35   1.423296 A    
C32   C33   1.422839 A    
C10   C14   1.402244 A    
O1    C1    1.271979 A    
C3    C29   1.480086 S    
O1    Cu1   1.932935 S    
C38   H2    1.074777 S    
C15   N5    1.433221 S    
O6    Cu2   1.955084 S    
C8    O12   1.349863 S    
C16   C30   1.416127 A    
C14   C30   1.418770 A    
O4    C1    1.271697 A    
C28   H20   1.083515 S    
C10   H16   1.083361 S    
C23   C27   1.394573 A    
C31   C37   1.417090 A    
C2    C42   1.404247 S    
C20   C22   1.408337 A    
N7    H9    1.045596 S    
Cu1   N4    1.975375 S    
Cu2   N3    1.975375 S    
C21   C25   1.394565 A    
C41   C42   1.187713 T    
O2    Cu2   1.932935 S    
O7    C4    1.283229 A    
N2    C18   1.433757 S    
O8    C3    1.283258 A    
N3    N4    1.194399 T    
O5    Cu1   1.955087 S    
N6    H8    1.045805 S    
N5    H5    1.045658 S    
C15   C29   1.416169 A    
C9    C17   1.396156 A    
C19   C36   1.423324 A    
C6    C22   1.403915 A    
C13   N7    1.438163 S    
C7    O11   1.349872 S    
