data_mof_unit_38942.cif
_audit_creation_date              2012-12-10T20:45:35-0500
_audit_creation_method            fapswitch 2.2
_symmetry_space_group_name_H-M    P1
_symmetry_Int_Tables_number       1
_space_group_crystal_system       triclinic
_cell_length_a                    10.684913
_cell_length_b                    10.668409
_cell_length_c                    9.842048
_cell_angle_alpha                 89.659611
_cell_angle_beta                  90.393768
_cell_angle_gamma                 90.178848
_cell_volume                      1121.8534936

loop_
_atom_site_label
_atom_site_type_symbol
_atom_type_description
_atom_site_fract_x
_atom_site_fract_y
_atom_site_fract_z
_atom_type_partial_charge
C1    C     C_R   0.503509 0.259850 0.500562 0.870203
C2    C     C_R   0.813402 0.348138 0.949685 -0.141433
C3    C     C_R   0.769943 0.226260 0.928295 -0.162358
C4    C     C_R   0.260234 0.504409 0.499462 0.869131
C5    C     C_R   0.781996 0.170868 0.800680 -0.097126
C6    C     C_R   0.836368 0.237340 0.692972 0.120092
C7    C     C_R   0.880082 0.360904 0.714383 0.096672
C8    C     C_R   0.510823 0.062631 0.624838 0.149162
C9    C     C_R   0.522688 0.128437 0.502889 -0.122619
C10   C     C_R   0.558693 0.065821 0.384395 -0.227045
C11   C     C_R   0.559460 0.936078 0.383855 -0.242915
C12   C     C_R   0.228089 0.818848 0.101247 -0.115545
C13   C     C_R   0.522935 0.871331 0.501351 -0.095513
C14   C     C_R   0.509190 0.934803 0.623151 0.089775
C15   C     C_3   0.407998 0.924459 0.726714 -0.547404
C16   C     C_R   0.504132 0.739988 0.499771 0.875074
C17   C     C_3   0.410260 0.066974 0.730446 -0.102896
C18   C     C_R   0.438597 0.407787 0.071465 0.209062
C19   C     C_R   0.570448 0.583521 0.072061 -0.141287
C20   C     C_R   0.570754 0.583273 0.927910 -0.136417
C21   C     C_R   0.436694 0.409382 0.928726 0.284484
C22   C     C_3   0.298997 0.385795 0.924253 -0.528357
C23   C     C_R   0.931962 0.567341 0.400478 -0.249878
C24   C     C_3   0.302323 0.379050 0.078229 -0.511469
C25   C     C_R   0.739877 0.497783 0.500656 0.862224
C26   C     C_R   0.254627 0.835682 0.239156 -0.125984
C27   C     C_R   0.201002 0.756247 0.336368 -0.093658
C28   C     C_R   0.119932 0.659086 0.296045 0.132665
C29   C     C_R   0.090917 0.645256 0.157258 -0.195734
C30   C     C_R   0.146085 0.723844 0.060341 -0.137022
C31   C     C_R   0.872368 0.497988 0.501888 -0.074641
C32   C     C_R   0.939705 0.434382 0.604103 -0.007775
C33   C     C_R   0.067904 0.439690 0.600856 -0.267776
C34   C     C_R   0.127802 0.508592 0.499273 -0.078376
C35   C     C_R   0.060632 0.575671 0.398892 -0.001734
C36   C     C_R   0.868957 0.415035 0.843515 -0.144733
H1    H     H_    0.270253 0.880059 0.026218 0.119488
H2    H     H_    0.316272 0.910762 0.270732 0.133876
H3    H     H_    0.626085 0.651839 0.873332 0.145176
H4    H     H_    0.245683 0.467849 0.884874 0.214452
H5    H     H_    0.274297 0.295265 0.875867 0.204197
H6    H     H_    0.248276 0.454210 0.127607 0.238341
H7    H     H_    0.284417 0.283262 0.118865 0.196230
H8    H     H_    0.221881 0.771017 0.442935 0.088697
H9    H     H_    0.027559 0.571978 0.123904 0.126875
H10   H     H_    0.125024 0.711200 0.953542 0.128962
H11   H     H_    0.877675 0.619267 0.325531 0.153558
H12   H     H_    0.727420 0.174451 0.010927 0.124055
H13   H     H_    0.121173 0.387616 0.676475 0.154979
H14   H     H_    0.902579 0.509452 0.861506 0.122723
H15   H     H_    0.804248 0.390756 0.048680 0.139623
H16   H     H_    0.942581 0.176864 0.537500 0.182867
H17   H     H_    0.799268 0.230129 0.491389 0.178028
H18   H     H_    0.536774 0.068024 0.891165 0.185501
H19   H     H_    0.388249 0.098973 0.933110 0.176638
H20   H     H_    0.749403 0.075767 0.785493 0.132300
H21   H     H_    0.578315 0.116047 0.290891 0.164592
H22   H     H_    0.579550 0.887497 0.290170 0.161753
H23   H     H_    0.319464 0.885839 0.683831 0.186543
H24   H     H_    0.441028 0.877614 0.821560 0.204003
H25   H     H_    0.322429 0.112660 0.694683 0.152935
H26   H     H_    0.625314 0.652456 0.126588 0.139030
N1    N     N_R   0.499160 0.499140 0.142800 -0.103018
N2    N     N_R   0.499160 0.499180 0.857150 -0.106647
N3    N     N_3   0.847990 0.177207 0.563965 -0.470832
N4    N     N_3   0.456585 0.116508 0.859839 -0.436833
O1    O     O_R   0.500020 0.316790 0.614690 -0.596099
O2    O     O_R   0.500000 0.316760 0.385350 -0.626580
O3    O     O_R   0.316770 0.500030 0.614670 -0.628173
O4    O     O_R   0.316750 0.499990 0.385330 -0.609569
O5    O     O_R   0.500000 0.683240 0.614650 -0.619307
O6    O     O_R   0.499980 0.683210 0.385310 -0.621330
O7    O     O_R   0.683250 0.500010 0.614670 -0.609780
O8    O     O_R   0.683230 0.499970 0.385330 -0.632548
Zn1   Zn    Zn3+2 0.500010 0.500020 0.653130 0.955664
Zn2   Zn    Zn3+2 0.499990 0.499980 0.346870 0.940782

loop_
_geom_bond_atom_site_label_1
_geom_bond_atom_site_label_2
_ccdc_geom_bond_type
C25   C31   S    
C18   C21   A    
C24   H6    S    
C7    C36   A    
C5    H20   S    
C19   C20   A    
C16   O6    A    
O6    Zn2   S    
C4    O4    A    
C26   C27   A    
O8    Zn2   S    
C18   C24   S    
C28   C29   A    
C34   C35   A    
C5    C6    A    
C18   N1    A    
C22   H5    S    
N1    Zn2   S    
C19   H26   S    
C33   H13   S    
C3    H12   S    
C1    O2    A    
C25   O8    A    
C15   H24   S    
C12   H1    S    
C21   N2    A    
C17   H25   S    
C27   H8    S    
C6    N3    S    
C28   C35   S    
C19   N1    A    
C8    C9    A    
C11   H22   S    
H17   N3    S    
C9    C10   A    
C13   C14   A    
O7    Zn1   S    
C16   O5    A    
C4    O3    A    
C4    C34   S    
C23   H11   S    
C10   H21   S    
C1    C9    S    
C2    H15   S    
C20   H3    S    
C26   H2    S    
C12   C26   A    
C23   C31   A    
C20   N2    A    
C29   C30   A    
C31   C32   A    
C22   H4    S    
C33   C34   A    
C17   N4    S    
C23   C35   A    
O4    Zn2   S    
C22   C24   S    
O1    Zn1   S    
H19   N4    S    
C36   H14   S    
C2    C36   A    
C15   C17   S    
C8    C14   A    
C7    C32   S    
C12   C30   A    
C15   H23   S    
C30   H10   S    
C3    C5    A    
C6    C7    A    
H18   N4    S    
O2    Zn2   S    
C8    C17   S    
C32   C33   A    
C2    C3    A    
O5    Zn1   S    
C11   C13   A    
C1    O1    A    
N2    Zn1   S    
O3    Zn1   S    
C25   O7    A    
C10   C11   A    
C13   C16   S    
C29   H9    S    
C27   C28   A    
C24   H7    S    
C14   C15   S    
C21   C22   S    
H16   N3    S    
