data_mof_unit_21864.cif
_audit_creation_date              2012-12-11T15:27:42-0500
_audit_creation_method            fapswitch 2.2
_symmetry_space_group_name_H-M    P1
_symmetry_Int_Tables_number       1
_space_group_crystal_system       triclinic
_cell_length_a                    23.12569
_cell_length_b                    7.297469
_cell_length_c                    15.122339
_cell_angle_alpha                 90.0
_cell_angle_beta                  107.918095
_cell_angle_gamma                 89.999959
_cell_volume                      2428.25047632

loop_
_atom_site_label
_atom_site_type_symbol
_atom_type_description
_atom_site_fract_x
_atom_site_fract_y
_atom_site_fract_z
_atom_type_partial_charge
O1    O     O_R   0.711000 0.648610 0.341170 -0.529522
O2    O     O_R   0.289000 0.351390 0.658830 -0.529522
O3    O     O_R   0.789000 0.148610 0.158830 -0.529522
O4    O     O_R   0.211000 0.851390 0.841170 -0.529522
O5    O     O_R   0.829650 0.322030 0.336650 -0.531780
O6    O     O_R   0.170350 0.677970 0.663350 -0.531780
O7    O     O_R   0.670350 0.822030 0.163350 -0.531780
O8    O     O_R   0.329650 0.177970 0.836650 -0.531780
C1    C     C_R   0.854307 0.485806 0.356676 0.738624
C2    C     C_R   0.145693 0.514194 0.643324 0.738623
C3    C     C_R   0.645693 0.985806 0.143324 0.738623
C4    C     C_R   0.354307 0.014194 0.856676 0.738624
O9    O     O_R   0.713950 0.319280 0.352070 -0.537207
O10   O     O_R   0.286050 0.680720 0.647930 -0.537207
O11   O     O_R   0.786050 0.819280 0.147930 -0.537207
O12   O     O_R   0.213950 0.180720 0.852070 -0.537207
O13   O     O_R   0.672470 0.142870 0.174360 -0.534618
O14   O     O_R   0.327530 0.857130 0.825640 -0.534618
O15   O     O_R   0.827530 0.642870 0.325640 -0.534618
O16   O     O_R   0.172470 0.357130 0.674360 -0.534618
C5    C     C_R   0.701764 0.487648 0.376125 0.721614
C6    C     C_R   0.298236 0.512352 0.623875 0.721615
C7    C     C_R   0.798236 0.987648 0.123875 0.721615
C8    C     C_R   0.201764 0.012352 0.876125 0.721614
O17   O     O_3   0.736530 0.478650 0.191680 -0.375932
O18   O     O_3   0.263470 0.521350 0.808320 -0.375932
O19   O     O_3   0.763470 0.978650 0.308320 -0.375932
O20   O     O_3   0.236530 0.021350 0.691680 -0.375932
V1    V     V_3+5 0.752500 0.206170 0.260820 1.544534
V2    V     V_3+5 0.247500 0.793830 0.739180 1.544534
V3    V     V_3+5 0.747500 0.706170 0.239180 1.544534
V4    V     V_3+5 0.252500 0.293830 0.760820 1.544534
C9    C     C_R   0.827042 0.998243 0.050552 -0.092445
C10   C     C_R   0.172958 0.001757 0.949448 -0.092445
C11   C     C_R   0.672958 0.498243 0.449448 -0.092445
C12   C     C_R   0.327042 0.501757 0.550552 -0.092445
C13   C     C_R   0.822653 0.047514 0.890754 -0.091824
C14   C     C_R   0.177347 0.952486 0.109245 -0.091824
C15   C     C_R   0.677347 0.547516 0.609245 -0.091824
C16   C     C_R   0.322653 0.452483 0.390755 -0.091824
C17   C     C_R   0.793262 0.036971 0.958493 0.139374
C18   C     C_R   0.206738 0.963029 0.041507 0.139374
C19   C     C_R   0.706738 0.536972 0.541507 0.139374
C20   C     C_R   0.293262 0.463028 0.458493 0.139374
C21   C     C_R   0.889961 0.978602 0.074598 -0.173560
C22   C     C_R   0.110039 0.021398 0.925402 -0.173560
C23   C     C_R   0.610039 0.478603 0.425402 -0.173561
C24   C     C_R   0.389961 0.521397 0.574598 -0.173561
C25   C     C_R   0.921137 0.010007 0.009376 0.075394
C26   C     C_R   0.078863 0.989993 0.990624 0.075394
C27   C     C_R   0.578863 0.510008 0.490624 0.075395
C28   C     C_R   0.421137 0.489992 0.509376 0.075394
C29   C     C_R   0.886295 0.027102 0.914491 -0.013254
C30   C     C_R   0.113705 0.972898 0.085509 -0.013254
C31   C     C_R   0.613705 0.527104 0.585508 -0.013254
C32   C     C_R   0.386295 0.472896 0.414492 -0.013254
C33   C     C_R   0.985783 0.012248 0.035232 -0.057027
C34   C     C_R   0.014217 0.987752 0.964768 -0.057026
C35   C     C_R   0.514217 0.512248 0.464768 -0.057027
C36   C     C_R   0.485783 0.487752 0.535232 -0.057026
C37   C     C_R   0.976943 0.961646 0.871211 0.134952
C38   C     C_R   0.023057 0.038354 0.128789 0.134953
C39   C     C_R   0.523057 0.461647 0.628789 0.134952
C40   C     C_R   0.476943 0.538353 0.371211 0.134952
C41   C     C_R   0.915007 0.007491 0.845436 0.267589
C42   C     C_R   0.084993 0.992509 0.154564 0.267589
C43   C     C_R   0.584993 0.507494 0.654564 0.267589
C44   C     C_R   0.415007 0.492506 0.345435 0.267589
H1    H     H_    0.085985 0.065857 0.855632 0.148169
H2    H     H_    0.914015 0.934143 0.144368 0.148169
H3    H     H_    0.414015 0.565857 0.644368 0.148169
H4    H     H_    0.585985 0.434143 0.355632 0.148169
H5    H     H_    0.794766 0.066922 0.819592 0.193608
H6    H     H_    0.205234 0.933077 0.180408 0.193608
H7    H     H_    0.705234 0.566925 0.680408 0.193608
H8    H     H_    0.294766 0.433075 0.319592 0.193608
C45   C     C_1   0.416784 0.006932 0.918658 -0.106985
C46   C     C_1   0.583216 0.993068 0.081342 -0.106986
C47   C     C_1   0.083216 0.506933 0.581342 -0.106986
C48   C     C_1   0.916784 0.493067 0.418658 -0.106985
C49   C     C_1   0.469154 0.002377 0.969936 0.087320
C50   C     C_1   0.530846 0.997623 0.030063 0.087320
C51   C     C_1   0.030846 0.502377 0.530064 0.087319
C52   C     C_1   0.969154 0.497623 0.469936 0.087320
Br1   Br    Br    0.869468 0.026786 0.715010 -0.439602
Br2   Br    Br    0.130532 0.973213 0.284990 -0.439602
Br3   Br    Br    0.630532 0.526791 0.784990 -0.439602
Br4   Br    Br    0.369468 0.473208 0.215010 -0.439602
I1    I     I_    0.302697 0.935782 0.083359 -0.244353
I2    I     I_    0.697303 0.064217 0.916641 -0.244352
I3    I     I_    0.197303 0.435782 0.416641 -0.244352
I4    I     I_    0.802697 0.564218 0.583359 -0.244353
I5    I     I_    0.004886 0.791938 0.774953 -0.323071
I6    I     I_    0.995115 0.208062 0.225047 -0.323072
I7    I     I_    0.495115 0.291941 0.725048 -0.323071
I8    I     I_    0.504885 0.708059 0.274952 -0.323071

loop_
_geom_bond_atom_site_label_1
_geom_bond_atom_site_label_2
_ccdc_geom_bond_type
O17   V3    S    
O1    C5    A    
O19   V1    S    
C9    C21   A    
O3    C7    A    
C10   C18   A    
C48   C52   T    
O15   V3    S    
C49   C50   S    
C25   C33   A    
C33   C38   A    
O7    C3    A    
C35   C40   A    
C26   C30   A    
C36   C39   A    
C40   C44   A    
O9    V1    S    
C14   C18   A    
O16   V4    S    
O4    C8    A    
C37   I5    S    
C39   I7    S    
O1    V3    S    
O13   V1    S    
O2    V4    S    
O3    V1    S    
C22   H1    S    
C28   C36   A    
C1    O15   A    
C15   C31   A    
C2    O16   A    
C7    C9    S    
O2    C6    A    
C10   C22   A    
C15   H7    S    
C11   C19   A    
C16   C20   A    
C13   C29   A    
C34   C37   A    
O11   C7    A    
C17   I2    S    
C11   C23   A    
C35   C36   A    
O12   C8    A    
O10   V2    S    
O5    V1    S    
C39   C43   A    
O7    V3    S    
C38   C42   A    
O8    V4    S    
C40   I8    S    
O18   V4    S    
C23   C27   A    
C16   C32   A    
C32   C44   A    
C8    C10   S    
C16   H8    S    
C1    C48   S    
C26   C34   A    
O5    C1    A    
C3    C46   S    
C46   C50   T    
C31   C43   A    
C51   C52   S    
C14   C30   A    
C21   C25   A    
O8    C4    A    
C4    C45   S    
O9    C5    A    
C41   Br1   S    
C20   I3    S    
O14   V2    S    
O6    V2    S    
C38   I6    S    
C44   Br4   S    
C12   C20   A    
C27   C35   A    
C24   H3    S    
C29   C41   A    
C14   H6    S    
C13   H5    S    
C3    O13   A    
C21   H2    S    
C42   Br2   S    
C15   C19   A    
C2    C47   S    
O11   V3    S    
C5    C11   S    
O12   V4    S    
C6    C12   S    
C22   C26   A    
C43   Br3   S    
C19   I4    S    
C18   I1    S    
C9    C17   A    
O10   C6    A    
O20   V2    S    
C47   C51   T    
C33   C34   A    
C25   C29   A    
C12   C24   A    
C27   C31   A    
C13   C17   A    
C23   H4    S    
O6    C2    A    
C37   C41   A    
C24   C28   A    
C45   C49   T    
C4    O14   A    
C30   C42   A    
O4    V2    S    
C28   C32   A    
