data_mof_unit_34309.cif
_audit_creation_date              2013-03-05T15:55:01-0500
_audit_creation_method            fapswitch 2.2
_symmetry_space_group_name_H-M    P1
_symmetry_Int_Tables_number       1
_space_group_crystal_system       triclinic
_cell_length_a                    23.3642
_cell_length_b                    10.567225
_cell_length_c                    9.974463
_cell_angle_alpha                 90.124715
_cell_angle_beta                  88.484682
_cell_angle_gamma                 91.818339
_cell_volume                      2460.53960156

loop_
_atom_site_label
_atom_site_type_symbol
_atom_site_description
_atom_site_fract_x
_atom_site_fract_y
_atom_site_fract_z
_atom_type_partial_charge
O1    O     O_R   0.500000 0.316780 0.614690 -0.673491
O2    O     O_R   0.500000 0.316750 0.385360 -0.534536
C1    C     C_R   0.510601 0.263452 0.500457 0.953727
O3    O     O_R   0.416160 0.499970 0.614690 -0.604214
O4    O     O_R   0.416150 0.499950 0.385360 -0.587750
C2    C     C_R   0.389797 0.504758 0.500602 1.001974
Zn1   Zn    Zn3+2 0.500000 0.500020 0.653130 1.035070
Zn2   Zn    Zn3+2 0.500000 0.499980 0.346870 1.102998
O5    O     O_R   0.500000 0.683250 0.614640 -0.583942
O6    O     O_R   0.500000 0.683220 0.385310 -0.593989
O7    O     O_R   0.583850 0.500050 0.614640 -0.604339
O8    O     O_R   0.583840 0.500030 0.385310 -0.566867
C3    C     C_R   0.496487 0.740905 0.501207 0.952324
C4    C     C_R   0.610343 0.502182 0.498267 0.862314
C5    C     C_R   0.882386 0.581032 0.381427 0.594545
N1    N     N_R   0.852160 0.539849 0.492623 -0.370808
C6    C     C_R   0.878192 0.502710 0.606123 0.567474
C7    C     C_R   0.938087 0.496960 0.608411 -0.107561
C8    C     C_R   0.970370 0.543644 0.495259 -0.060752
C9    C     C_R   0.942636 0.590507 0.382077 -0.164573
C10   C     C_R   0.966807 0.447997 0.719923 0.325834
C11   C     C_R   0.026398 0.453794 0.720556 -0.134724
C12   C     C_R   0.058264 0.496611 0.608263 -0.066929
C13   C     C_R   0.030494 0.540328 0.494217 -0.050995
C14   C     C_R   0.063049 0.579846 0.379495 -0.186762
C15   C     C_R   0.036095 0.644535 0.274900 0.344498
C16   C     C_R   0.975645 0.645401 0.274177 0.221724
C17   C     C_R   0.117850 0.493650 0.606129 0.632328
N2    N     N_R   0.147849 0.515496 0.489085 -0.351341
C18   C     C_R   0.121638 0.551988 0.375322 0.663639
O9    O     O_2   0.853707 0.611409 0.270991 -0.439963
O10   O     O_2   0.845741 0.472400 0.715940 -0.447319
H1    H     H_    0.047778 0.416383 0.806365 0.235560
O11   O     O_2   0.145699 0.468304 0.719383 -0.430922
O12   O     O_2   0.152032 0.555831 0.258566 -0.401226
C19   C     C_R   0.240688 0.623037 0.470464 -0.177328
H2    H     H_    0.218434 0.709758 0.453613 0.221138
C20   C     C_R   0.300321 0.624203 0.467741 0.307107
C21   C     C_R   0.327840 0.510718 0.497945 -0.225856
C22   C     C_R   0.295937 0.396928 0.509228 -0.213851
H3    H     H_    0.317792 0.309331 0.519832 0.251509
C23   C     C_R   0.236469 0.394530 0.500920 0.532648
C24   C     C_R   0.208787 0.509992 0.487767 0.076904
C25   C     C_R   0.763563 0.443318 0.409076 -0.054828
H4    H     H_    0.788283 0.379950 0.346705 0.180981
C26   C     C_R   0.704119 0.433817 0.410273 -0.125675
H5    H     H_    0.683164 0.363539 0.347988 0.217775
C27   C     C_R   0.672282 0.512998 0.494162 -0.043286
C28   C     C_R   0.699854 0.605270 0.572405 -0.118524
H6    H     H_    0.675443 0.670359 0.633162 0.213063
C29   C     C_R   0.759235 0.615743 0.570119 -0.044512
H7    H     H_    0.780557 0.686765 0.631181 0.180942
C30   C     C_R   0.791137 0.533642 0.489807 0.239893
C31   C     C_R   0.533796 0.122424 0.752931 -0.117961
H8    H     H_    0.560320 0.208222 0.756929 0.181888
C32   C     C_R   0.514291 0.069253 0.873096 -0.112758
H9    H     H_    0.523316 0.117331 0.966033 0.233660
C33   C     C_R   0.479824 0.960018 0.872541 -0.103638
H10   H     H_    0.461305 0.925528 0.966729 0.211905
C34   C     C_R   0.467487 0.898218 0.751411 0.360755
C35   C     C_R   0.493136 0.945454 0.628170 0.010956
C36   C     C_R   0.518642 0.066993 0.629454 0.015563
C37   C     C_R   0.526587 0.131806 0.506383 -0.221485
C38   C     C_R   0.535308 0.063924 0.387681 0.344505
H11   H     H_    0.523928 0.884789 0.295267 0.240134
C39   C     C_R   0.518162 0.937711 0.387089 -0.179680
C40   C     C_R   0.497199 0.877608 0.504630 -0.118332
C41   C     C_R   0.409511 0.367654 0.139582 0.207670
C42   C     C_R   0.358728 0.344660 0.070024 0.145399
C43   C     C_R   0.363078 0.327704 0.931329 0.331129
C44   C     C_R   0.413598 0.366644 0.863787 -0.233310
H12   H     H_    0.418775 0.340140 0.761026 0.241269
C45   C     C_R   0.456657 0.436149 0.929637 0.030283
C46   C     C_R   0.455883 0.436198 0.073542 -0.026925
N3    N     N_R   0.499460 0.498800 0.142780 -0.165666
C47   C     C_R   0.542393 0.559081 0.069263 0.271230
C48   C     C_R   0.542128 0.560135 0.926329 0.286576
N4    N     N_R   0.499440 0.498720 0.857170 -0.156751
N5    N     N_R   0.937012 0.382263 0.828009 0.261215
O13   O     O_R   0.905991 0.281123 0.802100 -0.278692
O14   O     O_R   0.951934 0.403295 0.951015 -0.289763
N6    N     N_R   0.566217 0.118014 0.273201 0.240925
O15   O     O_R   0.574561 0.050218 0.165856 -0.346533
O16   O     O_R   0.596153 0.223106 0.285098 -0.401392
N7    N     N_R   0.423652 0.799867 0.754726 0.221953
O17   O     O_R   0.385981 0.794204 0.661524 -0.342840
O18   O     O_R   0.415586 0.729217 0.860704 -0.369886
N8    N     N_R   0.588273 0.622447 0.136424 0.244608
O19   O     O_R   0.636493 0.565723 0.148013 -0.297737
O20   O     O_R   0.587439 0.744501 0.151859 -0.341907
N9    N     N_R   0.421965 0.268310 0.229540 0.250591
O21   O     O_R   0.390659 0.249510 0.337841 -0.353951
O22   O     O_R   0.452209 0.175693 0.183613 -0.387293
N10   N     N_R   0.306252 0.312847 0.141684 0.251524
O23   O     O_R   0.298236 0.202009 0.196759 -0.207857
O24   O     O_R   0.263352 0.387784 0.134557 -0.270071
S1    S     S_3+6 0.308241 0.248065 0.842517 0.111515
O25   O     O_2   0.265921 0.343805 0.801592 -0.210874
O26   O     O_2   0.333443 0.185033 0.720427 -0.297562
O27   O     O_3   0.274213 0.136666 0.937710 -0.431518
H13   H     H_    0.242775 0.102952 0.881827 0.409640
N11   N     N_R   0.587844 0.625046 0.854732 0.235099
O28   O     O_R   0.639818 0.586096 0.864475 -0.328435
O29   O     O_R   0.579810 0.736494 0.805099 -0.378370
S2    S     S_3+6 0.076970 0.740923 0.157215 0.143061
O30   O     O_2   0.094479 0.660479 0.039519 -0.191968
O31   O     O_2   0.043043 0.849165 0.107913 -0.199282
O32   O     O_3   0.135794 0.802704 0.229885 -0.501188
H14   H     H_    0.158330 0.844687 0.156098 0.416004
N12   N     N_R   0.948079 0.706935 0.166466 0.284375
O33   O     O_R   0.921817 0.812068 0.188524 -0.260225
O34   O     O_R   0.953351 0.664143 0.044526 -0.253701
N13   N     N_R   0.331206 0.739024 0.428730 0.243748
O35   O     O_R   0.377170 0.734935 0.352721 -0.357918
O36   O     O_R   0.308207 0.848244 0.449304 -0.252707
S3    S     S_3+6 0.198453 0.246770 0.500405 0.131101
O37   O     O_2   0.150731 0.250086 0.402450 -0.249503
O38   O     O_2   0.238181 0.143040 0.461074 -0.180403
O39   O     O_3   0.170643 0.216162 0.654492 -0.480297
H15   H     H_    0.153831 0.129049 0.648877 0.390991

loop_
_geom_bond_atom_site_label_1
_geom_bond_atom_site_label_2
_geom_bond_distance
_ccdc_geom_bond_type
C7    C10   1.420954 A    
C45   C46   1.435012 A    
C31   H8    1.083119 S    
C8    C9    1.414592 A    
S1    O25   1.501492 D    
C48   N4    1.373008 A    
O32   H14   0.990887 S    
Zn1   O7    1.986354 S    
S2    O31   1.503022 D    
C15   C16   1.412897 A    
C36   C37   1.412091 A    
C18   O12   1.347883 S    
C17   N2    1.362026 A    
C42   C43   1.396030 A    
C20   C21   1.415281 A    
O7    C4    1.300860 A    
C41   C46   1.430713 A    
C5    N1    1.363621 A    
C41   N9    1.424481 S    
C32   H9    1.078606 S    
C7    C8    1.421214 A    
O5    C3    1.291955 A    
N12   O33   1.301618 A    
N11   O28   1.300608 A    
N1    C30   1.426205 S    
C25   C30   1.399842 A    
C16   N12   1.434598 S    
C32   C33   1.386435 A    
N1    C6    1.363491 A    
C28   C29   1.387875 A    
C12   C13   1.410221 A    
C43   C44   1.394534 A    
C47   N8    1.427123 S    
C43   S1    1.767167 S    
C22   C23   1.393486 A    
C39   C40   1.403895 A    
C17   O11   1.349980 S    
C10   C11   1.391892 A    
N2    C24   1.426508 S    
C48   N11   1.427122 S    
N10   O23   1.300815 A    
O3    Zn1   2.005936 S    
C15   S2    1.792097 S    
S1    O26   1.502267 D    
C25   C26   1.389046 A    
C26   C27   1.398949 A    
N7    O18   1.301637 A    
C5    C9    1.408255 A    
S2    O32   1.683504 S    
C31   C32   1.384830 A    
C46   N3    1.394131 A    
C29   H7    1.082926 S    
C13   C14   1.413578 A    
O3    C2    1.310050 A    
C42   N10   1.433765 S    
N9    O21   1.300512 A    
N5    O14   1.301074 A    
C20   N13   1.440805 S    
C41   C42   1.404533 A    
C4    C27   1.447559 S    
C31   C36   1.411428 A    
C14   C15   1.420385 A    
N7    O17   1.296979 A    
C45   N4    1.371403 A    
N6    O15   1.300831 A    
Zn2   N3    2.036070 S    
N5    O13   1.301503 A    
C34   C35   1.436696 A    
O1    C1    1.291633 A    
C38   C39   1.380402 A    
N11   O29   1.299534 A    
N3    C47   1.368309 A    
N2    C18   1.365638 A    
N9    O22   1.300703 A    
C35   C40   1.426791 A    
Zn2   O8    2.005933 S    
C2    C21   1.451879 S    
C10   N5    1.436067 S    
C6    C7    1.403436 A    
C12   C17   1.393124 A    
C47   C48   1.425935 A    
N10   O24   1.300433 A    
C38   N6    1.444000 S    
Zn1   N4    2.034959 S    
C23   S3    1.771777 S    
C22   H3    1.077985 S    
N8    O20   1.299293 A    
H11   C39   1.079698 S    
N6    O16   1.300415 A    
C23   C24   1.406936 A    
C21   C22   1.397655 A    
S1    O27   1.680755 S    
C25   H4    1.082922 S    
C44   C45   1.403206 A    
N13   O35   1.299887 A    
C3    C40   1.444483 S    
C14   C18   1.408829 A    
Zn1   O5    1.974748 S    
C11   H1    1.083972 S    
C26   H5    1.080834 S    
C19   H2    1.083472 S    
O1    Zn1   1.973114 S    
O2    Zn2   1.974747 S    
O8    C4    1.299716 A    
C19   C24   1.396390 A    
O6    C3    1.307583 A    
O4    Zn2   1.986356 S    
O39   H15   0.991380 S    
C5    O9    1.348942 S    
C9    C16   1.421264 A    
C1    C37   1.453526 S    
S2    O30   1.503487 D    
S3    O39   1.680758 S    
C19   C20   1.392499 A    
O2    C1    1.312721 A    
C33   H10   1.082892 S    
C44   H12   1.066782 S    
O4    C2    1.291240 A    
C27   C28   1.399363 A    
O27   H13   0.990615 S    
S3    O38   1.503482 D    
S3    O37   1.503098 D    
C8    C13   1.406075 A    
C35   C36   1.398763 A    
N12   O34   1.300852 A    
C37   C38   1.396688 A    
N8    O19   1.300770 A    
Zn2   O6    1.973116 S    
C28   H6    1.081858 S    
C6    O10   1.348877 S    
C11   C12   1.396527 A    
C34   N7    1.435608 S    
C29   C30   1.398718 A    
C33   C34   1.404410 A    
N13   O36   1.302082 A    
