data_mof_unit_58989.cif
_audit_creation_date              2012-12-11T15:09:39-0500
_audit_creation_method            fapswitch 2.2
_symmetry_space_group_name_H-M    P1
_symmetry_Int_Tables_number       1
_space_group_crystal_system       triclinic
_cell_length_a                    20.964859
_cell_length_b                    7.130453
_cell_length_c                    14.045597
_cell_angle_alpha                 90.000033
_cell_angle_beta                  98.313407
_cell_angle_gamma                 90.00055
_cell_volume                      2077.59815402

loop_
_atom_site_label
_atom_site_type_symbol
_atom_type_description
_atom_site_fract_x
_atom_site_fract_y
_atom_site_fract_z
_atom_type_partial_charge
O1    O     O_R   0.447130 0.507140 0.597350 -0.537673
O2    O     O_R   0.552870 0.007140 0.402650 -0.537671
O3    O     O_R   0.578910 0.181280 0.586990 -0.537929
O4    O     O_R   0.421090 0.681280 0.413010 -0.537929
C1    C     C_R   0.604499 0.344474 0.607368 0.725039
C2    C     C_R   0.395500 0.844472 0.392632 0.725040
O5    O     O_R   0.449230 0.177860 0.608640 -0.541241
O6    O     O_R   0.550770 0.677860 0.391360 -0.541242
O7    O     O_R   0.422260 0.000770 0.424450 -0.534609
O8    O     O_R   0.577740 0.500770 0.575550 -0.534610
C3    C     C_R   0.433148 0.346299 0.634662 0.688788
C4    C     C_R   0.566852 0.846300 0.365338 0.688787
O9    O     O_3   0.491310 0.336980 0.439550 -0.375226
O10   O     O_3   0.508690 0.836980 0.560450 -0.375227
V1    V     V_3+5 0.501610 0.064760 0.511210 1.443437
V2    V     V_3+5 0.498390 0.564760 0.488790 1.443436
C5    C     C_R   0.616869 0.863442 0.120666 -0.134391
C6    C     C_R   0.383130 0.363312 0.879333 -0.134392
H1    H     H_    0.526298 0.857310 0.174506 0.103359
H2    H     H_    0.473700 0.357155 0.825495 0.103360
H3    H     H_    0.697560 0.867933 0.995399 0.163917
H4    H     H_    0.302439 0.367812 0.004600 0.163918
H5    H     H_    0.593894 0.865593 0.046394 0.114636
H6    H     H_    0.406104 0.365403 0.953606 0.114637
C7    C     C_R   0.606786 0.854805 0.288960 -0.030203
C8    C     C_R   0.393214 0.354796 0.711040 -0.030205
C9    C     C_R   0.920296 0.861961 0.304286 -0.087262
C10   C     C_R   0.079702 0.361967 0.695714 -0.087266
C11   C     C_R   0.882766 0.865953 0.379854 -0.046002
C12   C     C_R   0.117232 0.365910 0.620144 -0.046018
C13   C     C_R   0.815574 0.867882 0.357281 -0.194381
C14   C     C_R   0.184424 0.367809 0.642717 -0.194371
C15   C     C_R   0.783410 0.863629 0.261489 0.028302
C16   C     C_R   0.216589 0.363600 0.738510 0.028301
C17   C     C_R   0.821096 0.862296 0.184345 -0.012042
C18   C     C_R   0.178904 0.362278 0.815654 -0.012042
C19   C     C_R   0.714449 0.861862 0.240691 0.081537
C20   C     C_R   0.285550 0.361838 0.759307 0.081536
C21   C     C_R   0.684344 0.864164 0.143599 0.069221
C22   C     C_R   0.315655 0.364081 0.856400 0.069221
C23   C     C_R   0.721284 0.866145 0.069386 -0.214259
C24   C     C_R   0.278715 0.366056 0.930612 -0.214258
C25   C     C_R   0.788143 0.864299 0.087429 0.317090
C26   C     C_R   0.211857 0.364263 0.912570 0.317088
C27   C     C_R   0.673780 0.856223 0.312885 -0.187788
C28   C     C_R   0.326220 0.356268 0.687114 -0.187785
C29   C     C_R   0.578289 0.858740 0.193101 -0.170108
C30   C     C_R   0.421710 0.358633 0.806899 -0.170109
C31   C     C_R   0.889760 0.860627 0.207630 -0.153086
C32   C     C_R   0.110240 0.360629 0.792369 -0.153093
H7    H     H_    0.691812 0.850188 0.388528 0.099161
H8    H     H_    0.308191 0.350342 0.611469 0.099163
H9    H     H_    0.789270 0.871827 0.417318 0.154447
H10   H     H_    0.210728 0.371672 0.582679 0.154446
C33   C     C_1   0.166568 0.857180 0.168318 -0.102446
C34   C     C_1   0.833431 0.357177 0.831683 -0.102458
C35   C     C_1   0.218940 0.854873 0.219489 0.053723
C36   C     C_1   0.781060 0.354871 0.780512 0.053722
C37   C     C_1   0.280681 0.853383 0.279544 0.028745
C38   C     C_1   0.719318 0.353384 0.720457 0.028745
C39   C     C_1   0.333061 0.851052 0.330732 -0.183586
C40   C     C_1   0.666939 0.351055 0.669269 -0.183587
O11   O     O_R   0.922300 0.202240 0.924350 -0.513496
O12   O     O_R   0.077700 0.702240 0.075650 -0.513500
O13   O     O_R   0.050780 0.535130 0.891350 -0.542732
O14   O     O_R   0.949220 0.035130 0.108650 -0.542732
C41   C     C_R   0.068655 0.368335 0.867297 0.802500
C42   C     C_R   0.931345 0.868335 0.132703 0.802488
O15   O     O_R   0.921100 0.531560 0.912990 -0.523317
O16   O     O_R   0.078900 0.031560 0.087010 -0.523318
O17   O     O_R   0.947120 0.708470 0.097370 -0.520181
O18   O     O_R   0.052880 0.208470 0.902630 -0.520181
C43   C     C_R   0.895872 0.363584 0.893497 0.733797
C44   C     C_R   0.104127 0.863585 0.106504 0.733788
O19   O     O_3   0.008710 0.375800 0.060400 -0.364648
O20   O     O_3   0.991290 0.875800 0.939600 -0.364646
V3    V     V_3+5 0.998380 0.648080 0.988790 1.624736
V4    V     V_3+5 0.001620 0.148080 0.011210 1.624733
C45   C     C_2   0.991852 0.864871 0.324549 0.804349
O21   O     O_2   0.019631 0.000388 0.364483 -0.518542
O22   O     O_R   0.027160 0.714233 0.295720 -0.662518
H11   H     H_    0.075385 0.733446 0.312496 0.289364
C46   C     C_2   0.008148 0.364919 0.675453 0.804376
O23   O     O_2   0.980378 0.500456 0.635524 -0.518514
O24   O     O_R   0.972828 0.214303 0.704286 -0.662533
H12   H     H_    0.924605 0.233555 0.687520 0.289349
C47   C     C_2   0.911426 0.863713 0.483900 0.881169
O25   O     O_2   0.967349 0.816026 0.508778 -0.497691
O26   O     O_R   0.873506 0.912457 0.554335 -0.670686
H13   H     H_    0.897565 0.900342 0.622062 0.322902
C48   C     C_2   0.088570 0.363633 0.516098 0.881156
O27   O     O_2   0.032640 0.316009 0.491232 -0.497708
O28   O     O_R   0.126497 0.412260 0.445649 -0.670685
H14   H     H_    0.102434 0.400144 0.377926 0.322904
Cl1   Cl    Cl    0.824084 0.865208 0.981054 -0.674144
Cl2   Cl    Cl    0.175915 0.365205 0.018945 -0.674147

loop_
_geom_bond_atom_site_label_1
_geom_bond_atom_site_label_2
_ccdc_geom_bond_type
O14   C42   A    
C47   O25   D    
O28   H14   S    
C31   C42   S    
C9    C11   A    
O12   V3    S    
O15   V3    S    
O1    C3    A    
O2    C4    A    
C2    O7    A    
O22   H11   S    
C18   C32   A    
C21   C23   A    
O24   H12   S    
C11   C47   S    
O5    C3    A    
C5    H5    S    
C6    H6    S    
C2    C39   S    
C20   C22   A    
O20   V4    S    
C9    C45   S    
H1    C29   S    
C35   C37   S    
O16   V4    S    
C27   H7    S    
C36   C38   S    
C28   H8    S    
C38   C40   T    
C41   O18   A    
C5    C21   A    
C6    C22   A    
O18   V4    S    
C33   C44   S    
C10   C32   A    
O13   C41   A    
O16   C44   A    
C25   Cl1   S    
C13   C15   A    
O15   C43   A    
C17   C25   A    
C32   C41   S    
C7    C29   A    
C8    C30   A    
O5    V1    S    
O6    V2    S    
C10   C46   S    
C23   C25   A    
C24   C26   A    
C14   H10   S    
O14   V4    S    
C37   C39   T    
O13   V3    S    
O20   V3    S    
O4    C2    A    
C48   O27   D    
C45   O22   S    
O11   C43   A    
C3    C8    S    
C15   C19   A    
C14   C16   A    
O4    V2    S    
C17   C31   A    
C26   Cl2   S    
C48   O28   S    
C46   O23   D    
O6    C4    A    
O1    V2    S    
C13   H9    S    
O2    V1    S    
O19   V3    S    
H2    C30   S    
H3    C23   S    
C46   O24   S    
C33   C35   T    
C18   C26   A    
C19   C27   A    
C7    C27   A    
O17   V3    S    
O3    V1    S    
C34   C43   S    
C16   C20   A    
C5    C29   A    
C12   C48   S    
O3    C1    A    
C6    C30   A    
C4    C7    S    
C10   C12   A    
O7    V1    S    
C1    O8    A    
C11   C13   A    
O8    V2    S    
C12   C14   A    
H4    C24   S    
C42   O17   A    
C22   C24   A    
C15   C17   A    
C34   C36   T    
C1    C40   S    
C16   C18   A    
O19   V4    S    
C20   C28   A    
C8    C28   A    
C45   O21   D    
C19   C21   A    
O9    V2    S    
C47   O26   S    
O12   C44   A    
O10   V1    S    
O26   H13   S    
C9    C31   A    
O11   V4    S    
