data_mof_unit_32331.cif
_audit_creation_date              2013-03-05T16:05:41-0500
_audit_creation_method            fapswitch 2.2
_symmetry_space_group_name_H-M    P1
_symmetry_Int_Tables_number       1
_space_group_crystal_system       triclinic
_cell_length_a                    10.903978
_cell_length_b                    15.145171
_cell_length_c                    15.214831
_cell_angle_alpha                 82.813349
_cell_angle_beta                  92.949181
_cell_angle_gamma                 103.433067
_cell_volume                      2424.0246632

loop_
_atom_site_label
_atom_site_type_symbol
_atom_site_description
_atom_site_fract_x
_atom_site_fract_y
_atom_site_fract_z
_atom_type_partial_charge
O1    O     O_R   0.462770 0.383110 0.605620 -0.571341
O2    O     O_R   0.510160 0.531900 0.639510 -0.649876
C1    C     C_R   0.483563 0.442965 0.662916 0.850012
O3    O     O_R   0.661510 0.425600 0.483070 -0.558916
O4    O     O_R   0.708900 0.574390 0.516960 -0.599877
C2    C     C_R   0.742343 0.501754 0.496439 0.919781
Zn1   Zn    Zn3+2 0.468350 0.400660 0.477370 1.087036
Zn2   Zn    Zn3+2 0.531650 0.599340 0.522630 1.030931
O5    O     O_R   0.489840 0.468100 0.360490 -0.571522
O6    O     O_R   0.537230 0.616890 0.394380 -0.616230
O7    O     O_R   0.291100 0.425610 0.483040 -0.592966
O8    O     O_R   0.338490 0.574400 0.516930 -0.574205
C3    C     C_R   0.525057 0.556936 0.337322 0.964886
C4    C     C_R   0.258651 0.497728 0.505047 0.931798
C5    C     C_3   0.898691 0.406173 0.543782 -0.306915
H1    H     H_    0.852505 0.395763 0.609180 0.192978
C6    C     C_3   0.042988 0.405651 0.558905 -0.201769
H2    H     H_    0.061856 0.424893 0.393320 0.207657
C7    C     C_3   0.930422 0.511901 0.395265 0.043695
C8    C     C_3   0.959572 0.579016 0.550911 0.016449
C9    C     C_3   0.879966 0.502151 0.493860 -0.257723
H3    H     H_    0.927634 0.552145 0.619676 0.131131
C10   C     C_3   0.122516 0.497723 0.504489 -0.293374
C11   C     C_3   0.068665 0.496115 0.404715 0.084464
C12   C     C_3   0.103086 0.584752 0.547777 0.142556
C13   C     C_R   0.486278 0.407659 0.757326 -0.070891
C14   C     C_R   0.572972 0.586957 0.246284 -0.097206
C15   C     C_R   0.431556 0.282509 0.874981 -0.136580
C16   C     C_R   0.423933 0.317521 0.786233 -0.086931
C17   C     C_R   0.558044 0.461815 0.818152 -0.169270
C18   C     C_R   0.571388 0.426488 0.906878 0.143329
C19   C     C_R   0.501944 0.337277 0.935951 0.132008
C20   C     C_R   0.640761 0.481584 0.969512 -0.053711
C21   C     C_R   0.607300 0.458022 0.058681 -0.008266
C22   C     C_R   0.555153 0.364465 0.087826 -0.008190
C23   C     C_R   0.503153 0.304734 0.025846 -0.212340
C24   C     C_R   0.741390 0.558642 0.947508 0.222617
C25   C     C_R   0.770564 0.627552 0.005711 -0.143391
C26   C     C_R   0.704137 0.615458 0.085431 0.055342
C27   C     C_R   0.623988 0.529658 0.112549 0.087662
C28   C     C_R   0.718422 0.686037 0.140161 -0.178835
C29   C     C_R   0.656580 0.671909 0.220864 -0.033922
C30   C     C_R   0.552950 0.519984 0.188417 -0.119545
H4    H     H_    0.460034 0.233869 0.047984 0.158735
H5    H     H_    0.482303 0.458529 0.204192 0.208387
H6    H     H_    0.379931 0.213528 0.896306 0.167418
H7    H     H_    0.366938 0.274753 0.740517 0.203094
H8    H     H_    0.599974 0.532453 0.797303 0.156001
H9    H     H_    0.780868 0.752052 0.121833 0.152851
N1    N     N_R   0.573860 0.731700 0.552730 -0.143935
N2    N     N_R   0.426060 0.268290 0.447230 -0.205256
C31   C     C_R   0.686753 0.839087 0.647939 -0.106695
C32   C     C_R   0.653344 0.750684 0.622773 0.050475
C33   C     C_R   0.523208 0.797053 0.504637 0.113322
C34   C     C_R   0.541837 0.885695 0.532550 -0.070787
C35   C     C_R   0.637743 0.909296 0.598276 -0.016530
C36   C     C_R   0.473355 0.952554 0.495636 0.063978
C37   C     C_R   0.513536 0.044468 0.514785 0.073938
C38   C     C_R   0.623462 0.067679 0.566963 -0.190968
C39   C     C_R   0.684112 0.002631 0.609625 0.293687
C40   C     C_R   0.363084 0.930374 0.442748 -0.123842
C41   C     C_R   0.310572 0.996973 0.395958 -0.126611
C42   C     C_R   0.356040 0.088737 0.408108 0.015308
C43   C     C_R   0.448379 0.112063 0.475103 -0.049545
C44   C     C_R   0.307081 0.156930 0.357243 -0.195825
C45   C     C_R   0.349007 0.247728 0.374875 0.351013
C46   C     C_R   0.468688 0.201479 0.500860 0.312458
H10   H     H_    0.231450 0.975197 0.351558 0.169433
H11   H     H_    0.668942 0.137578 0.572295 0.211612
H12   H     H_    0.313908 0.861881 0.435276 0.222134
C47   C     C_1   0.831038 0.326738 0.497747 0.420340
N3    N     N_1   0.780168 0.265610 0.460822 -0.152953
N4    N     N_R   0.169654 0.673556 0.500094 0.265476
O9    O     O_R   0.247263 0.733151 0.543300 -0.393996
O10   O     O_R   0.139116 0.700560 0.419435 -0.355245
C48   C     C_1   0.930028 0.601683 0.344729 0.442997
N5    N     N_1   0.930858 0.670556 0.301827 -0.117173
N6    N     N_R   0.150451 0.548287 0.332196 0.236138
O11   O     O_R   0.261081 0.599422 0.346278 -0.356327
O12   O     O_R   0.117140 0.534196 0.250819 -0.299997
C49   C     C_1   0.689373 0.744206 0.277211 0.254935
N7    N     N_1   0.718055 0.802695 0.321663 -0.145419
C50   C     C_1   0.868068 0.709775 0.985093 0.312095
N8    N     N_1   0.945994 0.775521 0.969149 -0.118150
C51   C     C_1   0.572795 0.324634 0.177571 0.314495
N9    N     N_1   0.587414 0.291645 0.248986 -0.122182
N10   N     N_R   0.825037 0.557079 0.876867 0.207534
O13   O     O_R   0.830301 0.479429 0.850705 -0.356493
O14   O     O_R   0.910015 0.629104 0.848111 -0.358044
N11   N     N_R   0.802119 0.035023 0.654472 0.198574
O15   O     O_R   0.904443 0.017032 0.628080 -0.341789
O16   O     O_R   0.811787 0.097270 0.707806 -0.340645
N12   N     N_R   0.507846 0.216243 0.590292 0.204172
O17   O     O_R   0.450465 0.160644 0.655444 -0.384196
O18   O     O_R   0.611242 0.274929 0.607021 -0.403752
N13   N     N_R   0.302597 0.317190 0.319720 0.230486
O19   O     O_R   0.206952 0.342945 0.346362 -0.356191
O20   O     O_R   0.318245 0.325179 0.234753 -0.427671
C52   C     C_1   0.762066 0.853893 0.728536 0.298667
N14   N     N_1   0.821840 0.865266 0.792955 -0.108252
C53   C     C_1   0.712827 0.680853 0.664650 0.320696
N15   N     N_1   0.762254 0.624788 0.696714 -0.127781
C54   C     C_1   0.470675 0.778960 0.418177 0.293248
N16   N     N_1   0.428957 0.767059 0.347988 -0.115008
C55   C     C_1   0.072196 0.395707 0.655159 0.158624
N17   N     N_1   0.094083 0.385792 0.730571 -0.121513
C56   C     C_1   0.213763 0.134995 0.286964 0.313158
N18   N     N_1   0.139371 0.117559 0.230955 -0.133628
C57   C     C_1   0.071751 0.320614 0.533268 0.287164
N19   N     N_1   0.093094 0.254017 0.514454 -0.107170
N20   N     N_R   0.849342 0.445326 0.340567 0.189929
O21   O     O_R   0.895300 0.390805 0.298591 -0.327699
O22   O     O_R   0.735491 0.453380 0.318512 -0.431798
N21   N     N_R   0.935889 0.672445 0.538132 0.254541
O23   O     O_R   0.886587 0.706464 0.465969 -0.359042
O24   O     O_R   0.979938 0.726985 0.597797 -0.319172
C58   C     C_1   0.153758 0.584545 0.641163 0.266392
N22   N     N_1   0.193876 0.586411 0.713051 -0.112772

loop_
_geom_bond_atom_site_label_1
_geom_bond_atom_site_label_2
_geom_bond_distance
_ccdc_geom_bond_type
C40   H12   1.068331 S    
C34   C35   1.424619 A    
C42   C44   1.401516 A    
N12   O17   1.301291 A    
C25   C50   1.449460 S    
C28   C29   1.400222 A    
N20   O21   1.303060 A    
N10   O13   1.302150 A    
C49   N7    1.157297 T    
N11   O15   1.301947 A    
C26   C28   1.411479 A    
C51   N9    1.157162 T    
Zn1   O7    2.061629 S    
C15   H6    1.083687 S    
C6    C10   1.614041 S    
C16   H7    1.082038 S    
C50   N8    1.157587 T    
H2    C11   1.098804 S    
O4    C2    1.313280 A    
C19   C23   1.395098 A    
C17   H8    1.075610 S    
C15   C16   1.393235 A    
C7    C9    1.602051 S    
C24   C25   1.422174 A    
C17   C18   1.401805 A    
O7    C4    1.309019 A    
N6    O12   1.301639 A    
C8    C12   1.549879 S    
C5    H1    1.115335 S    
C5    C6    1.580097 S    
C21   C22   1.422002 A    
N4    O9    1.303547 A    
O5    C3    1.318003 A    
C27   C30   1.396735 A    
C18   C19   1.415672 A    
C32   C53   1.432743 S    
N13   O20   1.299600 A    
C56   N18   1.157394 T    
C18   C20   1.417092 A    
C38   C39   1.388435 A    
N12   O18   1.298970 A    
N4    O10   1.296087 A    
C29   C49   1.443325 S    
O3    Zn1   2.050876 S    
C28   H9    1.083737 S    
C53   N15   1.153856 T    
N21   O23   1.298594 A    
C37   C43   1.434032 A    
N1    C32   1.354754 A    
C43   C46   1.421643 A    
C33   C54   1.439922 S    
C15   C19   1.400390 A    
C48   N5    1.157602 T    
O3    C2    1.310120 A    
C26   C27   1.413481 A    
N6    O11   1.296810 A    
N2    C46   1.370638 A    
C37   C38   1.402380 A    
C2    C9    1.501759 S    
C20   C24   1.422376 A    
C35   C39   1.415505 A    
C6    C57   1.495036 S    
O1    C1    1.309591 A    
N2    C45   1.372526 A    
C4    C10   1.483991 S    
C41   C42   1.395048 A    
C6    C55   1.479171 S    
N11   O16   1.301847 A    
C52   N14   1.157364 T    
Zn2   O8    2.050876 S    
N13   O19   1.294685 A    
C20   C21   1.403704 A    
N20   O22   1.298410 A    
N1    C33   1.360640 A    
C30   H5    1.071130 S    
C38   H11   1.070818 S    
C11   N6    1.480797 S    
C8    H3    1.116527 S    
C13   C17   1.399545 A    
C7    N20   1.486914 S    
C34   C36   1.436753 A    
C21   C27   1.413272 A    
C23   H4    1.085266 S    
Zn2   N1    2.054112 S    
C31   C32   1.399727 A    
C45   N13   1.431709 S    
Zn1   O5    1.933327 S    
C33   C34   1.425132 A    
C7    C48   1.476810 S    
O1    Zn1   1.938265 S    
C24   N10   1.450831 S    
C1    C13   1.470015 S    
O2    Zn2   1.933327 S    
O8    C4    1.305995 A    
O6    C3    1.313440 A    
C12   C58   1.497671 S    
O4    Zn2   2.061628 S    
N21   O24   1.302111 A    
C36   C40   1.409437 A    
C39   N11   1.436001 S    
C5    C47   1.492466 S    
C55   N17   1.158174 T    
C31   C52   1.451903 S    
C41   H10   1.083073 S    
N10   O14   1.300991 A    
O2    C1    1.316918 A    
Zn1   N2    2.054449 S    
C47   N3    1.157532 T    
C58   N22   1.158127 T    
C8    N21   1.484082 S    
C22   C51   1.444358 S    
C14   C29   1.415226 A    
C36   C37   1.421129 A    
C25   C26   1.415123 A    
C7    C11   1.576904 S    
C12   N4    1.489487 S    
C10   C12   1.605386 S    
C40   C41   1.377956 A    
C10   C11   1.600229 S    
C42   C43   1.413088 A    
C14   C30   1.397305 A    
C5    C9    1.605397 S    
C8    C9    1.602480 S    
C13   C16   1.403062 A    
Zn2   O6    1.938265 S    
C44   C45   1.399864 A    
C54   N16   1.157559 T    
C46   N12   1.433799 S    
C3    C14   1.484860 S    
C22   C23   1.396146 A    
C57   N19   1.158260 T    
C44   C56   1.452230 S    
C31   C35   1.417261 A    
