data_mof_unit_23753.cif
_audit_creation_date              2012-12-10T16:51:33-0500
_audit_creation_method            fapswitch 2.2
_symmetry_space_group_name_H-M    P1
_symmetry_Int_Tables_number       1
_space_group_crystal_system       triclinic
_cell_length_a                    7.824893
_cell_length_b                    8.574749
_cell_length_c                    12.562674
_cell_angle_alpha                 92.451627
_cell_angle_beta                  103.148769
_cell_angle_gamma                 93.879998
_cell_volume                      817.462056816

loop_
_atom_site_label
_atom_site_type_symbol
_atom_type_description
_atom_site_fract_x
_atom_site_fract_y
_atom_site_fract_z
_atom_type_partial_charge
C1    C     C_R   0.044378 0.794523 0.497414 0.957873
C2    C     C_R   0.184406 0.595148 0.821121 -0.134434
C3    C     C_2   0.067831 0.958164 0.496527 -0.384121
C4    C     C_R   0.114066 0.534555 0.706806 0.869969
C5    C     C_2   0.933121 0.041966 0.505231 -0.386029
C6    C     C_R   0.955925 0.205528 0.503151 0.975596
C7    C     C_R   0.888279 0.485343 0.291613 0.869749
C8    C     C_R   0.838613 0.400645 0.990979 -0.164886
C9    C     C_R   0.819590 0.473113 0.174788 -0.058996
C10   C     C_R   0.073721 0.652203 0.884488 -0.216273
C11   C     C_R   0.134062 0.675265 0.997639 -0.117980
C12   C     C_R   0.417240 0.585395 0.983468 0.034312
C13   C     C_R   0.300229 0.631256 0.048064 -0.184471
C14   C     C_3   0.431286 0.861914 0.746936 -0.774454
C15   C     C_R   0.364209 0.593720 0.869876 0.069310
C16   C     C_R   0.584038 0.529580 0.024951 0.069334
C17   C     C_R   0.682971 0.472650 0.951635 0.125698
C18   C     C_R   0.636336 0.507778 0.842424 -0.357908
C19   C     C_R   0.494990 0.598086 0.809302 0.247261
C20   C     C_R   0.656919 0.531666 0.135806 -0.250703
C21   C     C_R   0.908086 0.401935 0.103197 -0.212946
H1    H     H_    0.032321 0.352315 0.133657 0.160041
H2    H     H_    0.047358 0.716650 0.046809 0.155520
H3    H     H_    0.195097 0.009090 0.488495 0.178856
H4    H     H_    0.631155 0.733029 0.719570 0.209689
H5    H     H_    0.285978 0.845763 0.731849 0.238446
H6    H     H_    0.462729 0.943795 0.686636 0.229228
H7    H     H_    0.487668 0.915641 0.830735 0.240462
H8    H     H_    0.805986 0.991027 0.513508 0.176728
H9    H     H_    0.471027 0.358523 0.434203 0.188936
H10   H     H_    0.528281 0.650389 0.550036 0.204913
H11   H     H_    0.721929 0.484670 0.788111 0.183096
H12   H     H_    0.912037 0.353248 0.935298 0.152669
H13   H     H_    0.592585 0.586148 0.193135 0.159950
H14   H     H_    0.941283 0.677930 0.846960 0.157243
H15   H     H_    0.332037 0.634529 0.136251 0.135481
N1    N     N_2   0.434800 0.456690 0.470850 -0.176755
N2    N     N_2   0.565200 0.543310 0.529150 -0.184266
N3    N     N_2   0.505799 0.714305 0.732332 -0.296425
O1    O     O_R   0.893060 0.738880 0.507150 -0.623756
O2    O     O_R   0.172250 0.711130 0.488470 -0.620956
O3    O     O_R   0.944700 0.520730 0.667600 -0.638788
O4    O     O_R   0.223890 0.492980 0.648920 -0.585543
O5    O     O_R   0.827750 0.288870 0.511530 -0.627094
O6    O     O_R   0.106940 0.261120 0.492850 -0.612751
O7    O     O_R   0.776110 0.507020 0.351080 -0.627371
O8    O     O_R   0.055300 0.479270 0.332400 -0.622406
Zn1   Zn    Zn3+2 0.813580 0.518530 0.512470 0.920358
Zn2   Zn    Zn3+2 0.186420 0.481470 0.487530 0.948591

loop_
_geom_bond_atom_site_label_1
_geom_bond_atom_site_label_2
_ccdc_geom_bond_type
C1    O2    A    
C2    C4    S    
H10   N2    S    
N1    N2    D    
C6    O6    A    
C14   H6    S    
N1    Zn2   S    
C9    C20   A    
N2    Zn1   S    
C8    C17   A    
C12   C15   A    
O6    Zn2   S    
C16   C20   A    
C20   H13   S    
C3    C5    D    
C8    C21   A    
O8    Zn2   S    
O3    Zn1   S    
C21   H1    S    
C14   H5    S    
C15   C19   A    
C2    C15   A    
C11   C13   A    
C9    C21   A    
C3    H3    S    
C10   H14   S    
C4    O3    A    
C19   N3    S    
O2    Zn2   S    
C4    O4    A    
C17   C18   A    
C5    H8    S    
C8    H12   S    
C5    C6    S    
O7    Zn1   S    
C18   H11   S    
C10   C11   A    
C2    C10   A    
C7    O7    A    
O5    Zn1   S    
C12   C13   A    
C13   H15   S    
O1    Zn1   S    
C18   C19   A    
C11   H2    S    
C7    C9    S    
O4    Zn2   S    
C6    O5    A    
C1    O1    A    
C14   H7    S    
C14   N3    S    
H4    N3    S    
C12   C16   A    
H9    N1    S    
C16   C17   A    
C1    C3    S    
C7    O8    A    
