data_mof_unit_36370.cif
_audit_creation_date              2012-12-10T18:31:14-0500
_audit_creation_method            fapswitch 2.2
_symmetry_space_group_name_H-M    P1
_symmetry_Int_Tables_number       1
_space_group_crystal_system       triclinic
_cell_length_a                    13.66121
_cell_length_b                    14.890052
_cell_length_c                    15.460768
_cell_angle_alpha                 97.321854
_cell_angle_beta                  92.881969
_cell_angle_gamma                 97.694328
_cell_volume                      3083.97664324

loop_
_atom_site_label
_atom_site_type_symbol
_atom_type_description
_atom_site_fract_x
_atom_site_fract_y
_atom_site_fract_z
_atom_type_partial_charge
C1    C     C_R   0.511106 0.557091 0.662351 0.863461
C2    C     C_R   0.401359 0.392116 0.919594 -0.208239
C3    C     C_R   0.439962 0.674774 0.012350 -0.161929
C4    C     C_R   0.391112 0.327711 0.977257 -0.205860
C5    C     C_R   0.364112 0.172684 0.643245 0.311158
C6    C     C_R   0.630931 0.825394 0.352557 0.317006
C7    C     C_R   0.379528 0.257184 0.612752 -0.085667
C8    C     C_R   0.605430 0.738768 0.376498 -0.082588
C9    C     C_R   0.495012 0.207325 0.515085 -0.058907
C10   C     C_R   0.525079 0.797714 0.498661 -0.060756
C11   C     C_R   0.487587 0.121646 0.545259 -0.053496
C12   C     C_R   0.483735 0.443296 0.337497 0.860828
C13   C     C_R   0.552617 0.888031 0.482046 -0.052464
C14   C     C_R   0.425788 0.106177 0.615227 -0.026083
C15   C     C_R   0.611961 0.902697 0.410280 -0.028043
C16   C     C_R   0.318415 0.514429 0.496716 0.891474
C17   C     C_R   0.681574 0.485531 0.503225 0.896547
C18   C     C_R   0.537662 0.050826 0.506330 0.104826
C19   C     C_R   0.519261 0.963066 0.532481 0.107560
C20   C     C_R   0.471756 0.953956 0.610289 -0.284253
C21   C     C_R   0.608468 0.065703 0.444635 -0.287232
C22   C     C_R   0.429768 0.025618 0.654259 0.032611
C23   C     C_R   0.450792 0.552776 0.894618 0.091969
C24   C     C_R   0.649495 0.993788 0.400121 0.032202
C25   C     C_1   0.782261 0.475299 0.504611 -0.175087
C26   C     C_1   0.217669 0.524418 0.494964 -0.167189
C27   C     C_2   0.970085 0.462546 0.505928 -0.154324
C28   C     C_2   0.029718 0.536673 0.492959 -0.157082
C29   C     C_1   0.132281 0.532347 0.493610 0.019849
C30   C     C_1   0.867572 0.467079 0.505618 0.016936
C31   C     C_R   0.500015 0.591461 0.753690 -0.056275
C32   C     C_R   0.459661 0.410724 0.244677 -0.062287
C33   C     C_R   0.479503 0.712510 0.868798 -0.183264
C34   C     C_R   0.427026 0.449982 0.099170 0.098820
C35   C     C_R   0.411209 0.289832 0.124161 -0.197919
C36   C     C_R   0.500248 0.684638 0.782785 -0.189459
C37   C     C_R   0.436286 0.317418 0.212985 -0.187666
C38   C     C_R   0.477720 0.527131 0.810360 -0.251920
C39   C     C_R   0.454489 0.475803 0.187835 -0.256091
C40   C     C_R   0.409753 0.019644 0.747016 0.183912
C41   C     C_R   0.348958 0.943690 0.770197 -0.078754
C42   C     C_R   0.336207 0.935449 0.858148 -0.131115
C43   C     C_R   0.385056 0.002059 0.923625 -0.094824
C44   C     C_R   0.447088 0.076849 0.901296 -0.113955
C45   C     C_R   0.456162 0.647196 0.925337 0.147725
C46   C     C_R   0.459853 0.085550 0.813422 -0.099419
C47   C     C_R   0.742498 0.018427 0.357655 0.175539
C48   C     C_R   0.745968 0.078019 0.293887 -0.076887
C49   C     C_R   0.835263 0.104847 0.257758 -0.120186
C50   C     C_R   0.921971 0.073864 0.286055 -0.092054
C51   C     C_R   0.919635 0.016283 0.350805 -0.072846
C52   C     C_R   0.830432 0.988999 0.386914 -0.094804
C53   C     C_R   0.408748 0.355398 0.066753 0.157184
C54   C     C_R   0.425424 0.486612 0.950668 0.055270
C55   C     C_R   0.425672 0.516041 0.041072 0.046156
C56   C     C_R   0.426960 0.610396 0.070087 -0.169375
H1    H     H_    0.002067 0.599795 0.482167 0.166658
H2    H     H_    0.515772 0.735530 0.739264 0.152887
H3    H     H_    0.481871 0.784835 0.891130 0.148638
H4    H     H_    0.395855 0.217404 0.100067 0.139437
H5    H     H_    0.416041 0.635939 0.136934 0.171508
H6    H     H_    0.388308 0.366479 0.850837 0.163238
H7    H     H_    0.478692 0.780374 0.550068 0.137957
H8    H     H_    0.540131 0.225174 0.463080 0.138034
H9    H     H_    0.622669 0.678906 0.336172 0.163258
H10   H     H_    0.338267 0.311316 0.636551 0.157494
H11   H     H_    0.185118 0.272262 0.713440 0.353379
H12   H     H_    0.997719 0.399428 0.516767 0.172623
H13   H     H_    0.671236 0.689948 0.184490 0.359347
H14   H     H_    0.311443 0.891081 0.720152 0.135456
H15   H     H_    0.288980 0.877062 0.875560 0.137888
H16   H     H_    0.375377 0.995403 0.991680 0.134383
H17   H     H_    0.485689 0.127882 0.952109 0.123945
H18   H     H_    0.509159 0.143275 0.797120 0.116328
H19   H     H_    0.679442 0.103088 0.271873 0.130917
H20   H     H_    0.837328 0.150025 0.208105 0.137559
H21   H     H_    0.991077 0.094901 0.258172 0.136101
H22   H     H_    0.986997 0.992968 0.373196 0.144272
H23   H     H_    0.473852 0.893844 0.642252 0.127112
H24   H     H_    0.829838 0.945136 0.437707 0.125210
H25   H     H_    0.639303 0.133966 0.435036 0.134483
H26   H     H_    0.441560 0.746555 0.036729 0.176313
H27   H     H_    0.374023 0.255866 0.951559 0.189501
H28   H     H_    0.476166 0.546923 0.213190 0.174452
H29   H     H_    0.483903 0.456560 0.788338 0.159408
H30   H     H_    0.438483 0.266029 0.256441 0.160720
N1    N     N_R   0.445040 0.272490 0.551770 -0.121169
N2    N     N_R   0.554960 0.727510 0.448230 -0.122077
O1    O     O_R   0.527700 0.614770 0.606110 -0.618047
O2    O     O_2   0.279718 0.170277 0.797047 -0.343511
O3    O     O_3   0.171502 0.215268 0.671442 -0.532395
O4    O     O_2   0.622678 0.905037 0.205540 -0.277773
O5    O     O_2   0.775380 0.843450 0.240644 -0.309831
O6    O     O_3   0.619087 0.729845 0.180934 -0.565762
O7    O     O_R   0.472300 0.385230 0.393890 -0.615793
O8    O     O_R   0.492440 0.468680 0.639380 -0.619974
O9    O     O_R   0.507560 0.531320 0.360620 -0.622540
O10   O     O_R   0.379820 0.583550 0.480950 -0.604900
O11   O     O_R   0.620180 0.416450 0.519050 -0.608784
O12   O     O_R   0.344560 0.437460 0.514220 -0.603214
O13   O     O_R   0.655440 0.562540 0.485780 -0.601527
O14   O     O_2   0.210855 0.051099 0.677239 -0.256442
S1    S     S_3+6 0.255702 0.149616 0.700064 0.014158
S2    S     S_3+6 0.664647 0.829121 0.243376 0.006998
Zn1   Zn    Zn3+2 0.523550 0.597550 0.477790 0.951565
Zn2   Zn    Zn3+2 0.476450 0.402450 0.522210 0.949780

loop_
_geom_bond_atom_site_label_1
_geom_bond_atom_site_label_2
_ccdc_geom_bond_type
C55   C56   A    
C5    S1    S    
C11   C18   A    
C40   C41   A    
C43   H16   S    
C23   C45   A    
C4    C53   A    
C35   C53   A    
C18   C21   A    
C33   C45   A    
C41   C42   A    
C10   H7    S    
C28   H1    S    
C40   C46   A    
N1    Zn2   S    
C10   N2    A    
O10   Zn1   S    
C21   H25   S    
C28   C29   S    
C35   C37   A    
C39   H28   S    
C36   H2    S    
C11   C14   A    
C9    H8    S    
C1    C31   S    
C33   C36   A    
C18   C19   A    
C32   C39   A    
C17   O13   A    
C27   H12   S    
C6    C15   A    
C7    N1    A    
C19   C20   A    
C12   O7    A    
C6    S2    S    
O9    Zn1   S    
O6    S2    S    
C34   C55   A    
C33   H3    S    
C12   C32   S    
C27   C30   S    
C16   C26   S    
C48   H19   S    
C44   H17   S    
O5    S2    D    
C44   C46   A    
O13   Zn1   S    
C13   C19   A    
C38   H29   S    
C34   C39   A    
C37   H30   S    
H13   O6    S    
C2    C54   A    
C5    C7    A    
C16   O12   A    
C6    C8    A    
C3    C45   A    
C51   C52   A    
C35   H4    S    
C8    N2    A    
C2    C4    A    
C43   C44   A    
O7    Zn2   S    
C17   O11   A    
C3    C56   A    
C47   C48   A    
C22   C40   S    
C3    H26   S    
H11   O3    S    
C50   C51   A    
C12   O9    A    
C49   H20   S    
C32   C37   A    
C9    C11   A    
C5    C14   A    
C34   C53   A    
C15   C24   A    
C20   C22   A    
C13   C15   A    
C42   C43   A    
C50   H21   S    
C46   H18   S    
C23   C54   A    
C25   C30   T    
O11   Zn2   S    
O8    Zn2   S    
C54   C55   A    
C48   C49   A    
C1    O1    A    
C20   H23   S    
C31   C36   A    
C24   C47   S    
O3    S1    S    
C10   C13   A    
C47   C52   A    
C23   C38   A    
O12   Zn2   S    
C31   C38   A    
C17   C25   S    
C14   C22   A    
C51   H22   S    
C9    N1    A    
C7    H10   S    
N2    Zn1   S    
C16   O10   A    
C4    H27   S    
C1    O8    A    
C42   H15   S    
O14   S1    D    
O2    S1    D    
O4    S2    D    
C8    H9    S    
C26   C29   T    
C49   C50   A    
C21   C24   A    
O1    Zn1   S    
C27   C28   D    
C56   H5    S    
C52   H24   S    
C2    H6    S    
C41   H14   S    
