data_mof_unit_45987.cif
_audit_creation_date              2012-12-11T19:42:16-0500
_audit_creation_method            fapswitch 2.2
_symmetry_space_group_name_H-M    P1
_symmetry_Int_Tables_number       1
_space_group_crystal_system       triclinic
_cell_length_a                    8.207084
_cell_length_b                    15.018354
_cell_length_c                    26.998697
_cell_angle_alpha                 98.140293
_cell_angle_beta                  93.112735
_cell_angle_gamma                 81.138899
_cell_volume                      3253.13190595

loop_
_atom_site_label
_atom_site_type_symbol
_atom_type_description
_atom_site_fract_x
_atom_site_fract_y
_atom_site_fract_z
_atom_type_partial_charge
Ba1   Ba    Ba6+2 0.860050 0.456430 0.522530 1.642266
Ba2   Ba    Ba6+2 0.329780 0.543490 0.477460 1.647933
C1    C     C_3   0.759512 0.119473 0.648036 -0.368262
C2    C     C_R   0.904710 0.591883 0.180053 0.572581
C3    C     C_2   0.750400 0.563282 0.274068 -0.094264
C4    C     C_3   0.164398 0.262676 0.655478 0.339796
C5    C     C_3   0.730976 0.587496 0.329756 -0.052982
C6    C     C_1   0.979288 0.479683 0.341580 0.014513
C7    C     C_2   0.020417 0.478328 0.294145 -0.113411
C8    C     C_2   0.897043 0.518937 0.256632 0.201058
C9    C     C_R   0.019320 0.507747 0.102607 -0.081192
C10   C     C_R   0.047033 0.428551 0.126264 -0.029395
C11   C     C_R   0.116644 0.346622 0.098788 -0.067211
C12   C     C_3   0.707027 0.212264 0.631000 0.365881
C13   C     C_R   0.949203 0.589854 0.129998 -0.032707
C14   C     C_2   0.833888 0.519206 0.358453 -0.249493
C15   C     C_2   0.352469 0.474027 0.640001 -0.287630
C16   C     C_3   0.155660 0.236674 0.707558 -0.326481
C17   C     C_R   0.185064 0.419480 0.974466 0.020548
C18   C     C_R   0.052675 0.578110 0.975236 0.013581
C19   C     C_R   0.138018 0.496984 0.949404 0.049969
C20   C     C_R   0.278127 0.341996 0.947959 -0.105927
C21   C     C_R   0.317039 0.339627 0.898170 -0.061791
C22   C     C_R   0.264854 0.414254 0.872328 -0.024362
C23   C     C_3   0.492570 0.672702 0.631504 0.352557
C24   C     C_R   0.174747 0.492982 0.897783 -0.081129
C25   C     C_R   0.120223 0.567411 0.871582 -0.032038
C26   C     C_R   0.162151 0.563542 0.820928 0.589516
C27   C     C_R   0.300865 0.411013 0.821442 0.572683
C28   C     C_3   0.220460 0.265483 0.414332 0.293513
C29   C     C_2   0.442013 0.441191 0.726424 -0.094027
C30   C     C_3   0.461703 0.412118 0.671086 -0.043608
C31   C     C_1   0.208758 0.515920 0.657276 0.028596
C32   C     C_2   0.166296 0.516532 0.704525 -0.111860
C33   C     C_2   0.291645 0.481147 0.743073 0.193315
C34   C     C_3   0.447807 0.701446 0.686367 -0.031993
C35   C     C_R   0.136762 0.421652 0.024750 0.024779
C36   C     C_R   0.061644 0.504858 0.051585 0.041514
C37   C     C_R   0.030652 0.585332 0.028079 -0.003491
C38   C     C_R   0.160277 0.343077 0.049281 -0.101867
C39   C     C_R   0.932747 0.669904 0.107955 -0.080546
C40   C     C_3   0.268024 0.163750 0.398273 -0.412110
C41   C     C_R   0.984762 0.647480 0.946509 -0.101353
C42   C     C_R   0.021397 0.643419 0.896310 -0.068219
C43   C     C_R   0.981207 0.669715 0.058968 -0.015684
C44   C     C_R   0.841077 0.831228 0.465891 -0.005611
C45   C     C_3   0.032324 0.741176 0.344524 0.368331
C46   C     C_R   0.775646 0.924749 0.470223 -0.031582
C47   C     C_R   0.642566 0.112556 0.481011 -0.038734
C48   C     C_R   0.781942 0.077940 0.452100 -0.045850
C49   C     C_R   0.849286 0.986411 0.447780 -0.093945
C50   C     C_R   0.578127 0.206455 0.488312 0.039709
C51   C     C_R   0.438141 0.236728 0.516797 -0.301366
C52   C     C_3   0.977850 0.735899 0.586806 0.311929
C53   C     C_R   0.616432 0.803721 0.513939 0.020290
C54   C     C_R   0.551938 0.896532 0.520068 -0.030492
C55   C     C_R   0.630428 0.957338 0.497584 0.012768
C56   C     C_3   0.051230 0.767922 0.292914 -0.010567
C57   C     C_R   0.410780 0.930067 0.548004 -0.048091
C58   C     C_R   0.344362 0.020966 0.552418 -0.100398
C59   C     C_R   0.419612 0.082772 0.530633 -0.034118
C60   C     C_R   0.565056 0.051117 0.503413 0.008395
C61   C     C_R   0.353136 0.175394 0.535312 -0.008620
C62   C     C_R   0.755697 0.771696 0.485621 -0.300233
C63   C     C_3   0.957473 0.838553 0.601638 -0.390483
C64   C     C_3   0.787770 0.279200 0.368930 0.329219
C65   C     C_3   0.751174 0.285099 0.313039 -0.233803
C66   C     C_R   0.626776 0.224384 0.291507 0.101904
C67   C     C_3   0.491430 0.787987 0.369367 0.351697
C68   C     C_R   0.666075 0.129390 0.288698 -0.058999
C69   C     C_R   0.546411 0.073753 0.272490 -0.082397
C70   C     C_R   0.387296 0.112328 0.258794 -0.073842
C71   C     C_R   0.347454 0.206671 0.261206 -0.056261
C72   C     C_R   0.466515 0.262615 0.277427 -0.008807
C73   C     C_3   0.721559 0.691832 0.728714 -0.171222
C74   C     C_3   0.949068 0.884974 0.240246 -0.213830
C75   C     C_R   0.005540 0.759277 0.045587 0.034371
C76   C     C_R   0.876020 0.832827 0.049551 -0.086395
C77   C     C_R   0.900579 0.917332 0.037686 -0.062930
C78   C     C_3   0.441191 0.881041 0.352419 -0.381845
C79   C     C_R   0.054503 0.929319 0.022154 -0.051075
C80   C     C_R   0.184347 0.856875 0.018567 -0.064269
C81   C     C_R   0.160459 0.772245 0.030397 -0.052875
C82   C     C_R   0.004449 0.432747 0.176899 0.591148
H1    H     H_    0.753367 0.209897 0.592840 0.079179
H2    H     H_    0.878709 0.217638 0.373049 -0.000669
H3    H     H_    0.838587 0.340804 0.385904 0.008297
H4    H     H_    0.895821 0.101712 0.648334 0.147870
H5    H     H_    0.867335 0.265967 0.292213 0.074814
H6    H     H_    0.703381 0.356991 0.308482 0.063189
H7    H     H_    0.569883 0.224954 0.629467 -0.067813
H8    H     H_    0.705327 0.066883 0.621937 0.070264
H9    H     H_    0.384754 0.646245 0.611375 -0.031009
H10   H     H_    0.599288 0.617315 0.628809 0.039278
H11   H     H_    0.328205 0.747904 0.687261 0.096755
H12   H     H_    0.375369 0.151405 0.373599 0.137339
H13   H     H_    0.429364 0.641260 0.703885 0.029177
H14   H     H_    0.715438 0.119852 0.686243 0.121918
H15   H     H_    0.159745 0.297572 0.735681 0.121653
H16   H     H_    0.116365 0.676528 0.347618 0.057119
H17   H     H_    0.903190 0.730408 0.348400 -0.077711
H18   H     H_    0.049651 0.707344 0.264384 0.087110
H19   H     H_    0.172793 0.790983 0.291539 0.130967
H20   H     H_    0.628462 0.773957 0.370489 -0.062486
H21   H     H_    0.446001 0.790766 0.407681 0.080829
H22   H     H_    0.501111 0.932666 0.377514 0.075463
H23   H     H_    0.301056 0.127995 0.431363 0.068459
H24   H     H_    0.305451 0.901080 0.353756 0.148778
H25   H     H_    0.078790 0.327022 0.653047 0.091157
H26   H     H_    0.480534 0.879439 0.313568 0.108669
H27   H     H_    0.142846 0.447403 0.282253 0.112943
H28   H     H_    0.137891 0.284230 0.115545 0.113775
H29   H     H_    0.540583 0.418139 0.752139 0.120449
H30   H     H_    0.388602 0.278288 0.879846 0.120700
H31   H     H_    0.326090 0.282223 0.964982 0.066474
H32   H     H_    0.209178 0.276737 0.030813 0.064374
H33   H     H_    0.654824 0.591487 0.248899 0.116260
H34   H     H_    0.163049 0.134932 0.377708 0.113850
H35   H     H_    0.891594 0.734563 0.130230 0.109518
H36   H     H_    0.897830 0.704770 0.961750 0.083048
H37   H     H_    0.292670 0.273049 0.650011 -0.053589
H38   H     H_    0.969474 0.699886 0.876654 0.115134
H39   H     H_    0.040370 0.541447 0.715271 0.124100
H40   H     H_    0.792299 0.508273 0.394313 0.078960
H41   H     H_    0.380238 0.470029 0.600843 0.084547
H42   H     H_    0.842929 0.120576 0.432672 0.079639
H43   H     H_    0.958456 0.964778 0.426052 0.111815
H44   H     H_    0.234216 0.041611 0.573721 0.111170
H45   H     H_    0.856790 0.715331 0.575482 0.000554
H46   H     H_    0.347531 0.886905 0.566545 0.100486
H47   H     H_    0.387872 0.308244 0.521414 0.072822
H48   H     H_    0.038728 0.210347 0.711628 0.148751
H49   H     H_    0.804701 0.700005 0.481862 0.069154
H50   H     H_    0.260985 0.183542 0.714651 0.117246
H51   H     H_    0.330839 0.294923 0.429410 0.035319
H52   H     H_    0.127547 0.275999 0.443662 0.065451
H53   H     H_    0.788203 0.098707 0.299928 0.055504
H54   H     H_    0.576416 0.000757 0.270993 0.069927
H55   H     H_    0.294636 0.069140 0.246606 0.065962
H56   H     H_    0.061960 0.717319 0.555015 0.076540
H57   H     H_    0.223772 0.236523 0.251044 0.117860
H58   H     H_    0.432621 0.335683 0.279990 0.079137
H59   H     H_    0.524138 0.794101 0.744431 0.203389
H60   H     H_    0.806275 0.734914 0.750443 0.129325
H61   H     H_    0.785821 0.656031 0.694978 0.147790
H62   H     H_    0.692847 0.641529 0.752209 0.100058
H63   H     H_    0.803977 0.821095 0.280790 0.221547
H64   H     H_    0.843443 0.938692 0.234710 0.101107
H65   H     H_    0.962896 0.835544 0.205493 0.129196
H66   H     H_    0.062136 0.917662 0.247696 0.102929
H67   H     H_    0.866799 0.859479 0.631726 0.134069
H68   H     H_    0.755891 0.824418 0.061344 0.063659
H69   H     H_    0.800217 0.973552 0.040536 0.064491
H70   H     H_    0.073258 0.994807 0.013008 0.061361
H71   H     H_    0.303705 0.866355 0.006743 0.062182
H72   H     H_    0.262523 0.716875 0.027793 0.066482
H73   H     H_    0.913112 0.873985 0.569081 0.064302
H74   H     H_    0.077877 0.859419 0.615315 0.117670
N1    N     N_R   0.935475 0.514219 0.203735 -0.418995
N2    N     N_R   0.251606 0.485646 0.795933 -0.420231
N3    N     N_2   0.572073 0.748573 0.714661 -0.406974
N4    N     N_2   0.920205 0.839702 0.282102 -0.408607
O1    O     O_2   0.906480 0.548660 0.619050 -0.469203
O2    O     O_2   0.180875 0.825175 0.473303 -0.483935
O3    O     O_3   0.075383 0.810437 0.381038 -0.607615
O4    O     O_3   0.138490 0.548590 0.558870 -0.489723
O5    O     O_3   0.572560 0.389960 0.472890 -0.456145
O6    O     O_2   0.345660 0.723580 0.528500 -0.464647
O7    O     O_3   0.530544 0.747883 0.611285 -0.638170
O8    O     O_2   0.401526 0.546705 0.323766 -0.497127
O9    O     O_3   0.422217 0.721692 0.336081 -0.609890
O10   O     O_2   0.026643 0.363434 0.196744 -0.622623
O11   O     O_2   0.374874 0.340718 0.799759 -0.619332
O12   O     O_3   0.641568 0.273782 0.391859 -0.638565
O13   O     O_2   0.839228 0.663582 0.202611 -0.631598
O14   O     O_2   0.120982 0.630268 0.799477 -0.615978
O15   O     O_3   0.686300 0.382310 0.585700 -0.479922
O16   O     O_2   0.788785 0.454813 0.675946 -0.507758
O17   O     O_3   0.041076 0.694145 0.628214 -0.639175
O18   O     O_3   0.773284 0.279457 0.664445 -0.592767
O19   O     O_2   0.844040 0.276390 0.471470 -0.493049
O20   O     O_3   0.101510 0.335500 0.560330 -0.488335
O21   O     O_2   0.013690 0.174725 0.526824 -0.484887
O22   O     O_3   0.117995 0.192859 0.619918 -0.609903
O23   O     O_2   0.283210 0.451310 0.380920 -0.435571
O24   O     O_3   0.051220 0.451340 0.441120 -0.495020
O25   O     O_3   0.503410 0.617620 0.414290 -0.465668
O26   O     O_3   0.156069 0.305672 0.372534 -0.645337
O27   O     O_3   0.617150 0.609960 0.527100 -0.474112
O28   O     O_3   0.088210 0.664420 0.439670 -0.488156
P1    P     P_3+3 0.071950 0.575820 0.612140 0.976346
P2    P     P_3+3 0.664370 0.290050 0.457240 0.981805
P3    P     P_3+3 0.146744 0.218761 0.560154 0.935465
P4    P     P_3+3 0.117760 0.424110 0.387850 0.985134
P5    P     P_3+3 0.045476 0.782732 0.440282 0.937909
P6    P     P_3+3 0.678463 0.385792 0.650296 0.946161
P7    P     P_3+3 0.531206 0.722590 0.545959 0.941788
P8    P     P_3+3 0.513512 0.614600 0.349862 0.955689

loop_
_geom_bond_atom_site_label_1
_geom_bond_atom_site_label_2
_ccdc_geom_bond_type
C7    H27   S    
C53   C54   A    
C57   H46   S    
C23   H9    S    
C32   H39   S    
C45   H17   S    
O15   P6    S    
C71   C72   A    
C16   H48   S    
C1    H14   S    
Ba2   O27   S    
C65   H5    S    
O23   P4    D    
C30   P6    S    
C79   C80   A    
O2    P5    D    
C76   H68   S    
C46   C55   A    
C52   C63   S    
C71   H57   S    
C75   C76   A    
C73   H61   S    
O5    P2    S    
C24   C25   A    
C28   H51   S    
C40   H12   S    
C74   H65   S    
C17   C19   A    
C64   O12   S    
C22   C24   A    
Ba1   Ba2   S    
O9    P8    S    
C11   H28   S    
C67   O9    S    
C36   C37   A    
C45   O3    S    
O19   P2    D    
C2    N1    Am   
Ba1   O5    S    
C66   C72   A    
O22   P3    S    
C78   H22   S    
C26   N2    Am   
C52   O17   S    
C10   C82   A    
C32   C33   S    
C50   P2    S    
C59   C61   A    
C33   N2    S    
C11   C38   A    
O27   P7    S    
C17   C35   A    
C44   P5    S    
C22   C27   A    
C74   N4    S    
C25   C42   A    
C46   C49   A    
C52   H56   S    
C6    C7    D    
C2    O13   D    
C21   C22   A    
C61   P3    S    
C6    P4    S    
C34   H13   S    
C56   H18   S    
C74   H66   S    
C69   H54   S    
C40   H23   S    
Ba2   O4    S    
O18   P6    S    
C41   H36   S    
C37   C43   A    
C64   C65   S    
C72   H58   S    
O26   P4    S    
C57   C58   A    
C6    C14   D    
C15   C31   D    
C4    O22   S    
O3    P5    S    
C82   N1    Am   
C31   C32   D    
C27   N2    Am   
C70   H55   S    
C73   H62   S    
C4    C16   S    
C44   C46   A    
O6    P7    D    
O25   P8    S    
C65   C66   S    
C55   C60   A    
C17   C20   A    
C13   C39   A    
C70   C71   A    
C63   H73   S    
C64   H3    S    
C3    C5    S    
C18   C37   A    
Ba1   O19   S    
C76   C77   A    
C40   H34   S    
C81   H72   S    
Ba1   O24   S    
O16   P6    D    
O4    P1    S    
C79   H70   S    
C3    H33   S    
C58   C59   A    
Ba2   P4    S    
C28   O26   S    
C63   H67   S    
C9    C36   A    
C41   C42   A    
Ba2   O24   S    
C35   C36   A    
C77   H69   S    
C53   P7    S    
C29   C30   S    
C58   H44   S    
Ba1   O20   S    
C47   C50   A    
C53   C62   A    
C48   C49   A    
O17   P1    S    
O20   P3    S    
C39   H35   S    
Ba1   O1    S    
C68   C69   A    
C1    C12   S    
O28   P5    S    
C48   H42   S    
C80   H71   S    
Ba1   P1    S    
C5    C14   S    
C47   C48   A    
C9    C13   A    
C34   N3    S    
C4    H25   S    
C29   C33   D    
C8    N1    S    
C54   C55   A    
C78   H26   S    
C56   N4    S    
Ba2   O6    S    
O8    P8    D    
C18   C41   A    
C50   C51   A    
O7    P7    S    
C7    C8    S    
C67   H20   S    
C23   O7    S    
C52   H45   S    
C62   H49   S    
C20   H31   S    
C67   H21   S    
C47   C60   A    
C1    H4    S    
O24   P4    S    
C26   O14   D    
C51   H47   S    
Ba2   O28   S    
C12   H1    S    
C27   O11   D    
C63   H74   S    
C82   O10   D    
H63   N4    S    
C64   H2    S    
O1    P1    D    
C9    C10   A    
C35   C38   A    
C78   H24   S    
C77   C79   A    
C54   C57   A    
C73   N3    S    
C31   P1    S    
C49   H43   S    
C5    P8    S    
C14   H40   S    
Ba2   O23   S    
C3    C8    D    
C39   C43   A    
C45   C56   S    
C51   C61   A    
C34   H11   S    
C15   H41   S    
C38   H32   S    
Ba1   O4    S    
C2    C13   A    
C19   C24   A    
C42   H38   S    
O21   P3    D    
H59   N3    S    
C16   H50   S    
C28   C40   S    
C65   H6    S    
C59   C60   A    
Ba2   O25   S    
C12   H7    S    
C73   H60   S    
C45   H16   S    
C23   C34   S    
Ba1   P2    S    
C23   H10   S    
C69   C70   A    
C18   C19   A    
C74   H64   S    
C68   H53   S    
C66   C68   A    
C80   C81   A    
C16   H15   S    
C44   C62   A    
C25   C26   A    
C15   C30   S    
C75   C81   A    
C20   C21   A    
C1    H8    S    
C67   C78   S    
C43   C75   S    
C56   H19   S    
C4    H37   S    
C10   C11   A    
C28   H52   S    
Ba1   O15   S    
Ba2   O5    S    
C29   H29   S    
C12   O18   S    
O12   P2    S    
C21   H30   S    
Ba1   O27   S    
