data_mof_unit_30788.cif
_audit_creation_date              2012-10-26T21:00:41-0400
_audit_creation_method            fapswitch 2.2
_symmetry_space_group_name_H-M    P1
_symmetry_Int_Tables_number       1
_space_group_crystal_system       triclinic
_cell_length_a                    10.832638
_cell_length_b                    9.525551
_cell_length_c                    10.865148
_cell_angle_alpha                 89.990848
_cell_angle_beta                  90.897205
_cell_angle_gamma                 90.000135
_cell_volume                      1121.00288167

loop_
_atom_site_label
_atom_site_type_symbol
_atom_type_description
_atom_site_fract_x
_atom_site_fract_y
_atom_site_fract_z
_atom_type_partial_charge
C1    C     C_R   0.262081 0.499961 0.499865 0.560164
C2    C     C_R   0.491096 0.500952 0.737613 0.552664
C3    C     C_R   0.555952 0.764076 0.115323 -0.043486
C4    C     C_R   0.442958 0.763746 0.884482 -0.043782
C5    C     C_R   0.530350 0.890830 0.056165 -0.077548
C6    C     C_R   0.468074 0.890650 0.943550 -0.077752
C7    C     C_R   0.480653 0.634308 0.937718 0.038571
C8    C     C_R   0.518733 0.634420 0.062192 0.038591
C9    C     C_R   0.516802 0.505157 0.127908 -0.004391
C10   C     C_R   0.483083 0.505059 0.872067 -0.004352
C11   C     C_R   0.505726 0.378413 0.063439 -0.151668
C12   C     C_R   0.737919 0.499961 0.500136 0.560212
C13   C     C_R   0.494613 0.378377 0.936583 -0.151664
C14   C     C_R   0.063854 0.372395 0.499899 -0.131081
C15   C     C_R   0.936144 0.372395 0.500070 -0.131083
C16   C     C_R   0.871772 0.499973 0.500076 0.021003
C17   C     C_R   0.128228 0.499973 0.499930 0.021002
C18   C     C_R   0.936153 0.627540 0.499975 -0.113815
C19   C     C_R   0.063850 0.627540 0.500072 -0.113826
C20   C     C_R   0.422770 0.075349 0.423326 0.019471
C21   C     C_R   0.577223 0.075322 0.576680 0.019500
C22   C     C_R   0.422168 0.927057 0.423009 0.296640
C23   C     C_R   0.577820 0.927030 0.577003 0.296821
C24   C     C_R   0.508863 0.500982 0.262376 0.552688
Cl1   Cl    Cl    0.318105 0.844224 0.321061 -0.614860
Cl2   Cl    Cl    0.681830 0.844165 0.679007 -0.614625
Cu1   Cu    Cu3+1 0.500000 0.640660 0.500000 1.063416
Cu2   Cu    Cu3+1 0.500000 0.359340 0.500000 0.947047
H1    H     H_    0.506629 0.278394 0.110952 0.138194
H2    H     H_    0.111829 0.727296 0.500272 0.172129
H3    H     H_    0.361080 0.132490 0.362119 0.153255
H4    H     H_    0.638904 0.132443 0.637897 0.153231
H5    H     H_    0.494100 0.278351 0.889108 0.138267
H6    H     H_    0.607745 0.769824 0.200872 0.142868
H7    H     H_    0.391197 0.769169 0.798893 0.142650
H8    H     H_    0.556071 0.989255 0.099313 0.110929
H9    H     H_    0.441988 0.988926 0.900330 0.110994
H10   H     H_    0.111876 0.272641 0.499782 0.142598
H11   H     H_    0.888120 0.272641 0.500155 0.142596
H12   H     H_    0.888176 0.727296 0.499807 0.172123
N1    N     N_R   0.500000 0.852070 0.500000 -0.219292
N2    N     N_R   0.500000 0.147940 0.500000 -0.288689
O1    O     O_R   0.319640 0.618740 0.499990 -0.463627
O2    O     O_R   0.680360 0.618740 0.500010 -0.463614
O3    O     O_R   0.319620 0.381170 0.499990 -0.517524
O4    O     O_R   0.680380 0.381170 0.500010 -0.517515
O5    O     O_R   0.500000 0.618810 0.319650 -0.467654
O6    O     O_R   0.500000 0.618810 0.680350 -0.467475
O7    O     O_R   0.499970 0.381240 0.319640 -0.514131
O8    O     O_R   0.500030 0.381240 0.680360 -0.514170

loop_
_geom_bond_atom_site_label_1
_geom_bond_atom_site_label_2
_ccdc_geom_bond_type
Cu1   O6    S    
C7    C10   A    
C20   N2    A    
C10   C13   A    
C9    C24   S    
C13   H5    S    
C14   H10   S    
C11   C13   A    
Cu2   O7    S    
Cu1   N1    S    
C1    C17   S    
C23   N1    A    
Cu2   O4    S    
C15   H11   S    
C6    H9    S    
C7    C8    A    
C12   O2    A    
C9    C11   A    
C14   C17   A    
C1    O3    A    
C19   H2    S    
C4    C7    A    
Cu2   N2    S    
C17   C19   A    
C20   C22   A    
C3    C8    A    
C21   C23   A    
C5    C6    A    
C20   H3    S    
C21   H4    S    
Cu2   O3    S    
C4    H7    S    
C22   N1    A    
C15   C16   A    
C4    C6    A    
C21   N2    A    
C2    C10   S    
C5    H8    S    
Cu1   O1    S    
Cu1   Cu2   S    
C11   H1    S    
C16   C18   A    
C18   C19   A    
C23   Cl2   S    
Cu1   O5    S    
C24   O7    A    
C18   H12   S    
C14   C15   A    
C12   O4    A    
C2    O8    A    
C3    H6    S    
C2    O6    A    
C24   O5    A    
Cu2   O8    S    
Cu1   O2    S    
C1    O1    A    
C12   C16   S    
C8    C9    A    
C3    C5    A    
C22   Cl1   S    
