data_mof_unit_68515.cif
_audit_creation_date              2012-12-11T16:30:34-0500
_audit_creation_method            fapswitch 2.2
_symmetry_space_group_name_H-M    P1
_symmetry_Int_Tables_number       1
_space_group_crystal_system       triclinic
_cell_length_a                    6.935514
_cell_length_b                    14.427714
_cell_length_c                    16.088768
_cell_angle_alpha                 90.000672
_cell_angle_beta                  89.917917
_cell_angle_gamma                 90.001129
_cell_volume                      1609.89859321

loop_
_atom_site_label
_atom_site_type_symbol
_atom_type_description
_atom_site_fract_x
_atom_site_fract_y
_atom_site_fract_z
_atom_type_partial_charge
O1    O     O_R   0.611670 0.415650 0.164070 -0.529533
O2    O     O_R   0.388330 0.915650 0.835930 -0.529540
O3    O     O_R   0.940950 0.405490 0.337780 -0.552529
O4    O     O_R   0.059050 0.905490 0.662220 -0.552563
O5    O     O_R   0.111350 0.584350 0.338470 -0.524943
O6    O     O_R   0.888650 0.084350 0.661530 -0.524778
C1    C     C_R   0.771767 0.381536 0.365666 0.640467
C2    C     C_R   0.228236 0.881513 0.634352 0.640557
O7    O     O_R   0.941380 0.404630 0.164680 -0.536716
O8    O     O_R   0.058620 0.904630 0.835320 -0.536742
O9    O     O_R   0.111780 0.583470 0.164130 -0.533478
O10   O     O_R   0.888220 0.083470 0.835870 -0.533483
C3    C     C_R   0.772945 0.381214 0.137229 0.681409
C4    C     C_R   0.227052 0.881211 0.862769 0.681349
O11   O     O_R   0.611240 0.416530 0.338400 -0.549072
O12   O     O_R   0.388760 0.916530 0.661600 -0.549090
O13   O     O_3   0.778020 0.558680 0.251290 -0.351681
O14   O     O_3   0.221980 0.058680 0.748710 -0.351539
V1    V     V_3+5 0.052840 0.489110 0.251260 1.529885
V2    V     V_3+5 0.947160 0.989110 0.748740 1.529965
O15   O     O_R   0.441500 0.594510 0.164760 -0.516984
O16   O     O_R   0.558500 0.094510 0.835240 -0.516951
C5    C     C_R   0.273190 0.616682 0.135948 0.854429
C6    C     C_R   0.726811 0.116679 0.864054 0.854355
O17   O     O_R   0.441080 0.595370 0.337860 -0.533969
O18   O     O_R   0.558920 0.095370 0.662140 -0.533924
C7    C     C_R   0.272378 0.615960 0.368459 0.810625
C8    C     C_R   0.727625 0.115985 0.631559 0.810258
V3    V     V_3+5 0.552850 0.510890 0.251270 1.547914
V4    V     V_3+5 0.447150 0.010890 0.748730 1.548103
O19   O     O_3   0.277800 0.441320 0.251250 -0.373315
O20   O     O_3   0.722200 0.941320 0.748750 -0.373363
C9    C     C_3   0.093336 0.663137 0.500671 -0.328419
C10   C     C_3   0.906015 0.162902 0.499127 -0.328150
H1    H     H_    0.952833 0.668751 0.467745 0.177978
H2    H     H_    0.046797 0.168003 0.531883 0.177914
H3    H     H_    0.106468 0.590981 0.523040 0.185970
H4    H     H_    0.891759 0.090862 0.476615 0.186346
C11   C     C_3   0.092354 0.729151 0.576923 -0.307310
C12   C     C_3   0.907332 0.229092 0.423005 -0.306880
H5    H     H_    0.129831 0.689689 0.633721 0.221461
H6    H     H_    0.869773 0.189800 0.366126 0.221192
H7    H     H_    0.943941 0.756211 0.586679 0.155460
H8    H     H_    0.055853 0.256051 0.413329 0.155570
C13   C     C_3   0.230296 0.785751 0.405690 0.522162
C14   C     C_3   0.770689 0.285715 0.594328 0.522165
C15   C     C_3   0.451309 0.686979 0.491094 -0.466538
C16   C     C_3   0.548340 0.187355 0.509196 -0.466619
C17   C     C_3   0.261620 0.686200 0.439677 -0.048835
C18   C     C_3   0.738380 0.186239 0.560352 -0.048999
H9    H     H_    0.577489 0.699709 0.449793 0.169950
H10   H     H_    0.422642 0.200433 0.550658 0.170742
H11   H     H_    0.472595 0.617079 0.519182 0.189033
H12   H     H_    0.526138 0.117469 0.481251 0.188527
C19   C     C_3   0.239487 0.809516 0.564262 -0.070785
C20   C     C_3   0.760525 0.309559 0.435772 -0.070847
C21   C     C_3   0.195274 0.856173 0.478250 -0.273545
C22   C     C_3   0.805232 0.356171 0.521753 -0.273473
C23   C     C_3   0.445804 0.764349 0.558577 -0.171092
C24   C     C_3   0.554058 0.264574 0.441592 -0.170957
H13   H     H_    0.550208 0.819160 0.540366 0.141598
H14   H     H_    0.449891 0.319504 0.459740 0.141948
H15   H     H_    0.363455 0.806953 0.372482 0.125912
H16   H     H_    0.638069 0.307068 0.627836 0.126040
H17   H     H_    0.293789 0.916302 0.469665 0.089226
H18   H     H_    0.706693 0.416269 0.530462 0.089116
C25   C     C_R   0.298940 0.939932 0.029149 -0.164189
C26   C     C_R   0.701103 0.439928 0.970847 -0.164272
C27   C     C_R   0.347009 0.972364 0.107487 -0.271252
C28   C     C_R   0.653019 0.472352 0.892511 -0.271033
C29   C     C_R   0.376026 0.910493 0.172199 -0.083251
C30   C     C_R   0.623970 0.410477 0.827805 -0.083195
C31   C     C_R   0.352103 0.815028 0.159226 0.603097
C32   C     C_R   0.647917 0.315019 0.840777 0.602495
C33   C     C_R   0.299429 0.779450 0.079513 -0.040134
C34   C     C_R   0.700591 0.279447 0.920488 -0.039866
C35   C     C_R   0.278526 0.843932 0.013109 0.020227
C36   C     C_R   0.721496 0.343931 0.986890 0.020222
C37   C     C_R   0.266482 0.682694 0.064786 -0.163080
C38   C     C_R   0.733520 0.182690 0.935216 -0.163054
C39   C     C_R   0.222176 0.650466 0.982203 0.002042
C40   C     C_R   0.777783 0.150461 0.017803 0.002012
C41   C     C_R   0.201673 0.717400 0.917039 -0.001522
C42   C     C_R   0.798249 0.217394 0.082971 -0.001529
C43   C     C_R   0.234685 0.812911 0.932136 -0.074463
C44   C     C_R   0.765299 0.312910 0.067865 -0.074507
C45   C     C_R   0.201269 0.553836 0.960366 -0.182548
C46   C     C_R   0.798686 0.053831 0.039637 -0.182511
C47   C     C_R   0.150459 0.527892 0.878628 -0.162581
C48   C     C_R   0.849455 0.027884 0.121380 -0.162618
C49   C     C_R   0.121251 0.594928 0.818199 0.624605
C50   C     C_R   0.878584 0.094917 0.181821 0.624551
C51   C     C_R   0.149504 0.687740 0.836452 -0.220126
C52   C     C_R   0.850322 0.187730 0.163569 -0.220233
H19   H     H_    0.278286 0.991590 0.981237 0.128374
H20   H     H_    0.721766 0.491587 0.018759 0.128364
H21   H     H_    0.363597 0.046285 0.117324 0.167699
H22   H     H_    0.636422 0.546267 0.882675 0.167733
H23   H     H_    0.129845 0.736247 0.785949 0.121106
H24   H     H_    0.869927 0.236237 0.214076 0.121046
F1    F     F_    0.068861 0.569815 0.740095 -0.685601
F2    F     F_    0.930918 0.069800 0.259931 -0.685515
C53   C     C_1   0.433468 0.946058 0.252151 0.475386
N1    N     N_1   0.480448 0.975124 0.316033 -0.312483
C54   C     C_1   0.566384 0.446020 0.747869 0.474702
N2    N     N_1   0.519266 0.475056 0.684001 -0.312470
F3    F     F_    0.384080 0.758626 0.225000 -0.703481
F4    F     F_    0.615947 0.258614 0.775009 -0.703928
C55   C     C_1   0.241029 0.478095 0.016909 0.269886
N3    N     N_1   0.272682 0.415986 0.060263 -0.310823
C56   C     C_1   0.758964 0.978089 0.983086 0.269863
N4    N     N_1   0.727338 0.915979 0.939726 -0.310818
C57   C     C_1   0.133165 0.431427 0.854395 0.409815
N5    N     N_1   0.120439 0.354432 0.834980 -0.276883
C58   C     C_1   0.866808 0.931420 0.145604 0.409846
N6    N     N_1   0.879592 0.854425 0.165012 -0.276922
F5    F     F_    0.081213 0.786751 0.348009 -0.642461
F6    F     F_    0.920442 0.286452 0.651683 -0.642623
C59   C     C_1   0.995963 0.892553 0.474998 0.456705
N7    N     N_1   0.838884 0.919300 0.472103 -0.379737
C60   C     C_1   0.004493 0.392636 0.524814 0.456606
N8    N     N_1   0.161521 0.419483 0.527565 -0.379935
C61   C     C_1   0.512741 0.726882 0.639133 0.351334
N9    N     N_1   0.565378 0.697879 0.702214 -0.330195
C62   C     C_1   0.486874 0.227008 0.361107 0.351218
N10   N     N_1   0.434056 0.197931 0.298080 -0.330077

loop_
_geom_bond_atom_site_label_1
_geom_bond_atom_site_label_2
_ccdc_geom_bond_type
O11   V3    S    
C19   C23   S    
O13   V3    S    
C56   N4    T    
C25   C35   A    
O4    C2    A    
V1    O19   S    
C61   N9    T    
C11   H5    S    
C16   H12   S    
C13   C21   S    
C9    C11   S    
C32   C34   A    
C10   C12   S    
C24   C62   S    
C26   C36   A    
C42   C44   A    
C42   C52   A    
C16   H10   S    
O3    C1    A    
C31   F3    S    
C9    C17   S    
C58   N6    T    
C41   C51   A    
C14   F6    S    
O17   V3    S    
C24   H14   S    
C27   C29   A    
O7    C3    A    
O13   V1    S    
O5    C7    A    
C46   C56   S    
C8    C18   S    
C6    C38   S    
C11   C19   S    
O8    V2    S    
C12   C20   S    
C3    C44   S    
O3    V1    S    
O14   V4    S    
C13   C17   S    
C47   C49   A    
C51   H23   S    
C10   H2    S    
C50   F2    S    
C21   C59   S    
C36   C44   A    
C16   C18   S    
C35   C43   A    
C2    O12   A    
C14   C22   S    
C25   H19   S    
C31   C33   A    
C32   F4    S    
C1    C20   S    
C49   F1    S    
C2    C19   S    
O1    V3    S    
C39   C41   A    
O7    V1    S    
C14   C18   S    
C16   C24   S    
O15   C5    A    
C23   C61   S    
C47   C57   S    
C10   C18   S    
C23   H13   S    
C38   C40   A    
O8    C4    A    
C21   H17   S    
C29   C31   A    
C15   H9    S    
C1    O11   A    
O15   V3    S    
C13   H15   S    
C9    H3    S    
C20   C24   S    
C14   H16   S    
C25   C27   A    
C49   C51   A    
C48   C50   A    
C52   H24   S    
O9    V1    S    
O10   V2    S    
C50   C52   A    
C26   H20   S    
C48   C58   S    
C33   C35   A    
C60   N8    T    
C39   C45   A    
O5    V1    S    
C30   C32   A    
C41   C43   A    
C46   C48   A    
O18   V4    S    
C40   C42   A    
C19   C21   S    
C62   N10   T    
O16   C6    A    
O1    C3    A    
C22   H18   S    
C57   N5    T    
V2    O20   S    
C13   F5    S    
C29   C53   S    
C22   C60   S    
O16   V4    S    
C10   H4    S    
O18   C8    A    
C34   C38   A    
C4    C43   S    
C34   C36   A    
C12   H6    S    
C11   H7    S    
C59   N7    T    
C45   C55   S    
C15   C17   S    
O6    V2    S    
C54   N2    T    
O10   C6    A    
C37   C39   A    
C15   H11   S    
O2    V4    S    
C45   C47   A    
V3    O19   S    
C55   N3    T    
V4    O20   S    
C33   C37   A    
C40   C46   A    
O9    C5    A    
C9    H1    S    
C20   C22   S    
O14   V2    S    
O2    C4    A    
C15   C23   S    
O4    V2    S    
C28   H22   S    
O6    C8    A    
C12   H8    S    
C30   C54   S    
C26   C28   A    
C53   N1    T    
C28   C30   A    
C5    C37   S    
O12   V4    S    
C7    C17   S    
O17   C7    A    
C27   H21   S    
