data_mof_unit_41116.cif
_audit_creation_date              2012-12-10T17:16:41-0500
_audit_creation_method            fapswitch 2.2
_symmetry_space_group_name_H-M    P1
_symmetry_Int_Tables_number       1
_space_group_crystal_system       triclinic
_cell_length_a                    10.087882
_cell_length_b                    10.605411
_cell_length_c                    10.778923
_cell_angle_alpha                 90.68832
_cell_angle_beta                  95.445989
_cell_angle_gamma                 80.823893
_cell_volume                      1133.29319326

loop_
_atom_site_label
_atom_site_type_symbol
_atom_type_description
_atom_site_fract_x
_atom_site_fract_y
_atom_site_fract_z
_atom_type_partial_charge
C1    C     C_R   0.443634 0.513749 0.267148 0.910899
C2    C     C_R   0.491901 0.737796 0.475367 0.876553
C3    C     C_R   0.646174 0.109292 0.297884 0.369289
C4    C     C_R   0.228845 0.922284 0.479584 0.415560
C5    C     C_R   0.751194 0.032454 0.243717 0.494588
C6    C     C_R   0.141825 0.988274 0.561175 0.511739
C7    C     C_R   0.762624 0.899818 0.250802 -0.308771
C8    C     C_R   0.187407 0.086064 0.635089 -0.386142
C9    C     C_R   0.670246 0.844876 0.311704 -0.225678
C10   C     C_R   0.306525 0.129058 0.612820 -0.216679
C11   C     C_R   0.573317 0.921347 0.378621 0.055411
C12   C     C_R   0.556355 0.495443 0.733046 0.950471
C13   C     C_R   0.386048 0.071565 0.519825 0.046953
C14   C     C_R   0.569336 0.054589 0.381638 -0.136259
C15   C     C_R   0.360386 0.954550 0.473634 -0.113062
C16   C     C_R   0.472993 0.870796 0.435680 -0.182978
C17   C     C_R   0.488870 0.125794 0.469121 -0.167590
C18   C     C_3   0.959797 0.083804 0.232480 0.095302
C19   C     C_3   0.038537 0.168198 0.163707 -0.333584
C20   C     C_3   0.180566 0.166323 0.227637 -0.973699
C21   C     C_3   0.913360 0.041857 0.597554 0.071300
C22   C     C_3   0.879847 0.032958 0.732610 -0.347758
C23   C     C_2   0.411561 0.534534 0.135272 -0.379702
C24   C     C_3   0.765150 0.137799 0.762192 -0.903628
C25   C     C_2   0.588565 0.506176 0.865387 -0.364492
C26   C     C_2   0.512128 0.546815 0.067000 -0.118349
C27   C     C_2   0.488361 0.550007 0.934296 -0.150441
C28   C     C_2   0.073012 0.489072 0.489592 -0.104727
C29   C     C_2   0.926981 0.511046 0.510224 -0.138161
C30   C     C_R   0.498761 0.258509 0.495463 0.870657
H1    H     H_    0.129852 0.132418 0.707140 0.169675
H2    H     H_    0.109730 0.419309 0.421328 0.159138
H3    H     H_    0.880845 0.382459 0.385227 0.174709
H4    H     H_    0.119162 0.617385 0.614892 0.190290
H5    H     H_    0.511434 0.254359 0.253202 0.314348
H6    H     H_    0.238766 0.813325 0.333688 0.317352
H7    H     H_    0.014903 0.984120 0.234591 0.173700
H8    H     H_    0.953864 0.120167 0.329775 0.123159
H9    H     H_    0.045577 0.134040 0.066267 0.227458
H10   H     H_    0.984051 0.268038 0.161073 0.226502
H11   H     H_    0.175922 0.199543 0.325457 0.264259
H12   H     H_    0.836926 0.839546 0.201107 0.176634
H13   H     H_    0.233898 0.230886 0.177409 0.264471
H14   H     H_    0.238800 0.068209 0.226864 0.270614
H15   H     H_    0.823755 0.025021 0.535422 0.172206
H16   H     H_    0.930279 0.139917 0.574369 0.119975
H17   H     H_    0.849842 0.938349 0.747942 0.233251
H18   H     H_    0.970020 0.040839 0.797958 0.214230
H19   H     H_    0.792260 0.233440 0.746469 0.267995
H20   H     H_    0.745845 0.130355 0.861375 0.284017
H21   H     H_    0.671518 0.127305 0.702817 0.253933
H22   H     H_    0.672593 0.743315 0.300302 0.191062
H23   H     H_    0.335924 0.205866 0.670531 0.191561
H24   H     H_    0.385158 0.578733 0.893558 0.185092
H25   H     H_    0.615472 0.543597 0.108016 0.189778
H26   H     H_    0.691464 0.477112 0.906505 0.153988
H27   H     H_    0.308549 0.537281 0.093860 0.150221
H28   H     H_    0.890223 0.581038 0.578313 0.178149
N1    N     N_2   0.157300 0.551390 0.551120 -0.165681
N2    N     N_2   0.842700 0.448610 0.448880 -0.198019
O1    O     O_R   0.568940 0.489660 0.307530 -0.579121
O2    O     O_3   0.179718 0.832016 0.402299 -0.739746
O3    O     O_3   0.830060 0.087994 0.169020 -0.620435
O4    O     O_3   0.020985 0.943897 0.574063 -0.623604
O5    O     O_R   0.431060 0.510340 0.692470 -0.613109
O6    O     O_R   0.348880 0.522640 0.340350 -0.612568
O7    O     O_R   0.651120 0.477360 0.659650 -0.617017
O8    O     O_R   0.610030 0.300280 0.483580 -0.576603
O9    O     O_R   0.389970 0.699720 0.516420 -0.575340
O10   O     O_R   0.389970 0.333270 0.516400 -0.623685
O11   O     O_R   0.610030 0.666730 0.483600 -0.619715
O12   O     O_3   0.610730 0.232216 0.253666 -0.705686
Zn1   Zn    Zn3+2 0.646940 0.477980 0.478080 0.951505
Zn2   Zn    Zn3+2 0.353060 0.522020 0.521920 0.964034

loop_
_geom_bond_atom_site_label_1
_geom_bond_atom_site_label_2
_ccdc_geom_bond_type
O10   Zn2   S    
C22   H18   S    
C29   N2    D    
C7    C9    A    
O7    Zn1   S    
C3    C14   A    
C25   C27   D    
C2    O9    A    
C2    C16   S    
C11   C16   A    
C19   C20   S    
N1    Zn2   S    
C25   H26   S    
C13   C17   A    
C12   C25   S    
O1    Zn1   S    
C26   H25   S    
C24   H21   S    
C3    O12   S    
C18   H8    S    
C27   H24   S    
C5    C7    A    
O9    Zn2   S    
C1    O6    A    
C7    H12   S    
C21   C22   S    
C17   C30   S    
C9    C11   A    
C14   C17   A    
C26   C27   S    
C9    H22   S    
C19   H9    S    
C4    C15   A    
H6    O2    S    
C22   C24   S    
C4    C6    A    
C28   C29   S    
C30   O10   A    
C18   H7    S    
H5    O12   S    
C1    C23   S    
H3    N2    S    
C21   H15   S    
C13   C15   A    
C24   H20   S    
H4    N1    S    
C11   C14   A    
C22   H17   S    
C18   O3    S    
C23   C26   D    
C19   H10   S    
C2    O11   A    
O6    Zn2   S    
C4    O2    S    
N2    Zn1   S    
C28   H2    S    
C20   H13   S    
C29   H28   S    
C5    O3    S    
C8    C10   A    
C21   H16   S    
C12   O5    A    
C28   N1    D    
C6    O4    S    
C24   H19   S    
C23   H27   S    
C10   H23   S    
C18   C19   S    
C21   O4    S    
C6    C8    A    
C12   O7    A    
C20   H14   S    
O8    Zn1   S    
C8    H1    S    
O11   Zn1   S    
C30   O8    A    
O5    Zn2   S    
C15   C16   A    
C20   H11   S    
C3    C5    A    
C10   C13   A    
C1    O1    A    
