data_mof_unit_57042.cif
_audit_creation_date              2012-12-11T16:05:13-0500
_audit_creation_method            fapswitch 2.2
_symmetry_space_group_name_H-M    P1
_symmetry_Int_Tables_number       1
_space_group_crystal_system       triclinic
_cell_length_a                    10.658055
_cell_length_b                    10.633821
_cell_length_c                    16.928592
_cell_angle_alpha                 98.524653
_cell_angle_beta                  98.936003
_cell_angle_gamma                 61.729417
_cell_volume                      1663.09723117

loop_
_atom_site_label
_atom_site_type_symbol
_atom_type_description
_atom_site_fract_x
_atom_site_fract_y
_atom_site_fract_z
_atom_type_partial_charge
C1    C     C_R   0.353031 0.778672 0.399872 0.541312
C2    C     C_3   0.405803 0.695384 0.255507 -0.112558
C3    C     C_3   0.342356 0.819556 0.320485 0.055466
C4    C     C_R   0.370294 0.346878 0.358846 0.537298
C5    C     C_3   0.406824 0.901917 0.289104 -0.126582
C6    C     C_3   0.265928 0.973978 0.234509 -0.110707
C7    C     C_3   0.202441 0.890414 0.267177 -0.120618
C8    C     C_3   0.265058 0.767090 0.201530 -0.115513
C9    C     C_3   0.328389 0.849724 0.169430 0.057733
C10   C     C_3   0.459353 0.271616 0.777931 -0.117975
C11   C     C_3   0.389291 0.410999 0.735443 -0.111785
C12   C     C_3   0.732621 0.300090 0.250109 -0.118822
C13   C     C_3   0.338137 0.333763 0.663600 0.053847
C14   C     C_3   0.408190 0.195230 0.705459 -0.110326
C15   C     C_3   0.265588 0.245973 0.741106 -0.107316
C16   C     C_R   0.775223 0.377756 0.401368 0.554099
C17   C     C_3   0.195712 0.385478 0.698095 -0.121201
C18   C     C_3   0.246701 0.461596 0.771528 -0.118616
C19   C     C_3   0.317636 0.322441 0.812910 0.053295
C20   C     C_1   0.768355 0.367652 0.715454 -0.045312
C21   C     C_1   0.813041 0.330163 0.782215 -0.049855
C22   C     C_1   0.338687 0.811915 0.709885 -0.050370
C23   C     C_3   0.812614 0.351056 0.320300 0.059894
C24   C     C_1   0.313180 0.839159 0.778521 -0.046633
C25   C     C_R   0.895777 0.308682 0.091806 0.545914
C26   C     C_R   0.319411 0.299353 0.120197 0.537901
C27   C     C_R   0.296672 0.887708 0.087587 0.538092
C28   C     C_R   0.356897 0.771359 0.627291 0.537857
C29   C     C_R   0.878730 0.302356 0.862170 0.543705
C30   C     C_R   0.307998 0.294495 0.891976 0.540650
C31   C     C_R   0.279854 0.884800 0.858975 0.543265
C32   C     C_R   0.367601 0.345619 0.585433 0.536147
C33   C     C_R   0.718427 0.410284 0.635513 0.550735
C34   C     C_3   0.956712 0.250080 0.289547 -0.152798
C35   C     C_1   0.343533 0.336693 0.275063 -0.065858
C36   C     C_1   0.332347 0.326186 0.203838 -0.063104
C37   C     C_3   0.878250 0.198242 0.217691 -0.116099
C38   C     C_3   0.939507 0.371316 0.242006 -0.112229
C39   C     C_3   0.794211 0.473037 0.273733 -0.106342
C40   C     C_3   0.715554 0.421396 0.202478 -0.149630
C41   C     C_3   0.859449 0.320836 0.171692 0.062924
C42   C     C_3   0.469115 0.779114 0.222300 -0.132222
Cr1   Cr    Cr6+3 0.608340 0.611040 0.520430 1.017352
Cr2   Cr    Cr6+3 0.287650 0.601120 0.489350 1.023203
Cr3   Cr    Cr6+3 0.604040 0.287870 0.490280 1.020166
Cr4   Cr    Cr6+3 0.054020 0.052700 0.970850 1.022242
Cr5   Cr    Cr6+3 0.059230 0.375120 0.993390 1.021754
Cr6   Cr    Cr6+3 0.374950 0.061200 0.992340 1.025887
H1    H     H_    0.647692 0.270573 0.255707 0.135553
H2    H     H_    0.024684 0.400710 0.236664 0.128423
H3    H     H_    0.761721 0.585458 0.298789 0.132949
H4    H     H_    0.620444 0.485826 0.162135 0.104407
H5    H     H_    0.460008 0.580945 0.267904 0.116201
H6    H     H_    0.462591 0.958458 0.327005 0.129823
H7    H     H_    0.209240 0.709982 0.164250 0.124844
H8    H     H_    0.440487 0.479264 0.731064 0.102802
H9    H     H_    0.566720 0.227171 0.812253 0.126284
H10   H     H_    0.576072 0.736009 0.200634 0.114468
H11   H     H_    0.211631 0.088421 0.222104 0.116462
H12   H     H_    0.094916 0.934173 0.288249 0.119406
H13   H     H_    0.472442 0.086232 0.676770 0.132286
H14   H     H_    0.214148 0.177983 0.745666 0.120250
H15   H     H_    0.088815 0.429955 0.663303 0.140738
H16   H     H_    0.182583 0.570112 0.800760 0.132648
H17   H     H_    0.910728 0.086548 0.191293 0.130303
H18   H     H_    0.052064 0.185159 0.329609 0.104785
O1    O     O_R   0.751220 0.499230 0.435170 -0.519215
O2    O     O_R   0.412990 0.180750 0.091610 -0.509371
O3    O     O_R   0.366620 0.943130 0.065760 -0.499850
O4    O     O_R   0.477220 0.727600 0.436870 -0.503085
O5    O     O_R   0.160510 0.906330 0.879210 -0.510135
O6    O     O_R   0.930190 0.179050 0.889450 -0.495045
O7    O     O_R   0.909140 0.398170 0.896710 -0.506065
O8    O     O_R   0.186190 0.363460 0.918830 -0.500481
O9    O     O_R   0.401670 0.173200 0.913310 -0.515683
O10   O     O_R   0.356120 0.936130 0.900470 -0.496560
O11   O     O_3   0.162740 0.163010 0.985530 -0.256740
O12   O     O_R   0.297880 0.469080 0.560050 -0.501451
O13   O     O_R   0.258650 0.745120 0.411470 -0.513957
O14   O     O_R   0.297070 0.467240 0.395960 -0.494883
O15   O     O_R   0.488830 0.252610 0.387790 -0.520484
O16   O     O_R   0.724400 0.302390 0.420980 -0.500625
O17   O     O_R   0.752100 0.501210 0.612190 -0.506865
O18   O     O_R   0.478040 0.729440 0.600970 -0.512433
O19   O     O_R   0.259530 0.747110 0.588490 -0.504554
O20   O     O_R   0.489720 0.254590 0.564810 -0.523283
O21   O     O_R   0.725220 0.304230 0.585080 -0.488656
O22   O     O_3   0.500010 0.500010 0.500020 -0.274711
O23   O     O_R   0.171830 0.913880 0.057510 -0.522442
O24   O     O_R   0.940690 0.186050 0.054730 -0.507360
O25   O     O_R   0.920470 0.405720 0.075010 -0.521348
O26   O     O_R   0.196690 0.370460 0.084120 -0.505619

loop_
_geom_bond_atom_site_label_1
_geom_bond_atom_site_label_2
_ccdc_geom_bond_type
C39   H3    S    
C5    C42   S    
C11   C18   S    
C28   O18   A    
C34   C37   S    
Cr1   O17   S    
Cr5   O26   S    
Cr6   O10   S    
C13   C32   S    
Cr3   O16   S    
Cr6   O3    S    
C34   H18   S    
C6    C9    S    
C12   H1    S    
Cr3   O20   S    
C7    C8    S    
Cr4   O23   S    
C15   C19   S    
C12   C23   S    
C25   O24   A    
Cr1   O22   S    
Cr3   O21   S    
C4    O14   A    
C3    C7    S    
C38   C39   S    
C30   O8    A    
C29   O7    A    
C26   O26   A    
C18   C19   S    
C12   C37   S    
C4    O15   A    
C35   C36   T    
C8    C9    S    
C37   H17   S    
Cr4   O6    S    
C27   O3    A    
C29   O6    A    
C31   O5    A    
C4    C35   S    
C22   C28   S    
C13   C14   S    
Cr1   O18   S    
Cr6   O9    S    
C42   H10   S    
C8    H7    S    
C2    C8    S    
C25   O25   A    
C5    H6    S    
Cr2   O14   S    
Cr3   O22   S    
Cr5   O7    S    
C38   C41   S    
C10   C14   S    
C25   C41   S    
C39   C40   S    
C40   H4    S    
C14   H13   S    
C21   C29   S    
C1    C3    S    
Cr6   O11   S    
C12   C40   S    
C10   C19   S    
C23   C34   S    
C32   O20   A    
C10   H9    S    
C16   O16   A    
C17   C18   S    
C9    C42   S    
C16   O1    A    
Cr6   O2    S    
C33   O17   A    
Cr4   O5    S    
Cr4   O24   S    
C20   C33   S    
C26   C36   S    
C40   C41   S    
Cr1   O4    S    
C1    O13   A    
C22   C24   T    
Cr5   O11   S    
Cr2   O19   S    
C7    H12   S    
C9    C27   S    
C15   C17   S    
C34   C38   S    
Cr5   O25   S    
C6    H11   S    
Cr2   O13   S    
Cr3   O15   S    
Cr5   O8    S    
C3    C5    S    
C2    H5    S    
Cr4   O11   S    
C6    C7    S    
C38   H2    S    
C16   C23   S    
C1    O4    A    
C13   C17   S    
C26   O2    A    
Cr2   O12   S    
C2    C3    S    
C33   O21   A    
C24   C31   S    
C17   H15   S    
C30   O9    A    
C11   C13   S    
C18   H16   S    
C31   O10   A    
C5    C6    S    
C2    C42   S    
C23   C39   S    
C15   H14   S    
C27   O23   A    
C37   C41   S    
C10   C11   S    
C32   O12   A    
C20   C21   T    
Cr1   O1    S    
C28   O19   A    
C14   C15   S    
Cr2   O22   S    
C19   C30   S    
C11   H8    S    
