data_mof_unit_42764.cif
_audit_creation_date              2012-12-10T17:47:15-0500
_audit_creation_method            fapswitch 2.2
_symmetry_space_group_name_H-M    P1
_symmetry_Int_Tables_number       1
_space_group_crystal_system       triclinic
_cell_length_a                    11.707702
_cell_length_b                    14.752247
_cell_length_c                    14.665312
_cell_angle_alpha                 64.902491
_cell_angle_beta                  103.640063
_cell_angle_gamma                 102.807361
_cell_volume                      2207.68689003

loop_
_atom_site_label
_atom_site_type_symbol
_atom_type_description
_atom_site_fract_x
_atom_site_fract_y
_atom_site_fract_z
_atom_type_partial_charge
C1    C     C_R   0.477388 0.119521 0.311319 0.800543
C2    C     C_R   0.522612 0.880479 0.688681 0.800544
C3    C     C_R   0.456669 0.324193 0.995555 0.082844
C4    C     C_R   0.543331 0.675807 0.004445 0.082845
C5    C     C_R   0.499848 0.465247 0.051363 0.078789
C6    C     C_R   0.500152 0.534753 0.948637 0.078789
C7    C     C_R   0.465455 0.497087 0.871052 -0.189197
C8    C     C_R   0.534545 0.502913 0.128948 -0.189197
C9    C     C_R   0.449915 0.394311 0.894025 -0.190189
C10   C     C_R   0.550085 0.605689 0.105975 -0.190189
C11   C     C_R   0.719323 0.295946 0.647064 -0.286198
C12   C     C_R   0.280677 0.704054 0.352936 -0.286197
C13   C     C_R   0.678242 0.209786 0.626223 0.117195
C14   C     C_R   0.321758 0.790214 0.373777 0.117194
C15   C     C_R   0.508684 0.281186 0.517329 0.033026
C16   C     C_R   0.491316 0.718814 0.482671 0.033026
C17   C     C_R   0.544535 0.371270 0.536319 -0.021234
C18   C     C_R   0.455465 0.628729 0.463681 -0.021234
C19   C     C_R   0.654742 0.378664 0.600640 0.099407
C20   C     C_R   0.345258 0.621336 0.399360 0.099407
C21   C     C_R   0.476767 0.454372 0.491974 0.052588
C22   C     C_R   0.523233 0.545628 0.508026 0.052588
C23   C     C_R   0.284156 0.000184 0.499926 0.823501
C24   C     C_R   0.715844 0.999816 0.500073 0.823501
C25   C     C_R   0.636306 0.551249 0.567375 -0.242177
C26   C     C_R   0.363694 0.448751 0.432625 -0.242177
C27   C     C_R   0.699596 0.469102 0.615370 -0.018306
C28   C     C_R   0.300403 0.530898 0.384629 -0.018306
C29   C     C_1   0.162497 0.000365 0.499986 -0.163218
C30   C     C_1   0.837503 0.999635 0.500014 -0.163218
C31   C     C_1   0.059961 0.000184 0.499998 0.016824
C32   C     C_1   0.940039 0.999816 0.500002 0.016824
C33   C     C_R   0.461234 0.186264 0.200622 -0.163191
C34   C     C_R   0.538766 0.813736 0.799378 -0.163191
C35   C     C_R   0.444590 0.219363 0.019972 -0.062846
C36   C     C_R   0.555409 0.780637 0.980028 -0.062846
C37   C     C_R   0.455019 0.151033 0.122977 -0.094544
C38   C     C_R   0.544981 0.848967 0.877023 -0.094544
C39   C     C_R   0.450321 0.288083 0.171663 -0.086003
C40   C     C_R   0.549679 0.711917 0.828336 -0.086003
C41   C     C_R   0.470541 0.359600 0.074022 0.034891
C42   C     C_R   0.529459 0.640400 0.925978 0.034891
Cu1   Cu    Cu3+1 0.469550 0.918260 0.475690 0.967730
Cu2   Cu    Cu3+1 0.530450 0.081740 0.524310 0.967729
H1    H     H_    0.430573 0.370480 0.830955 0.161371
H2    H     H_    0.569427 0.629520 0.169045 0.161371
N1    N     N_R   0.576230 0.204580 0.560790 -0.183002
N2    N     N_R   0.423770 0.795420 0.439210 -0.183002
O1    O     O_R   0.459870 0.022090 0.338120 -0.576678
O2    O     O_R   0.540130 0.977910 0.661880 -0.576678
O3    O     O_R   0.511290 0.160150 0.379180 -0.571850
O4    O     O_R   0.488710 0.839850 0.620820 -0.571850
O5    O     O_R   0.311490 0.930960 0.479480 -0.584225
O6    O     O_R   0.688510 0.069040 0.520520 -0.584225
O7    O     O_R   0.362910 0.069020 0.520540 -0.571640
O8    O     O_R   0.637090 0.930980 0.479460 -0.571640
H3    H     H_    0.679252 0.619945 0.576664 0.162741
H4    H     H_    0.320748 0.380054 0.423336 0.162741
C43   C     C_1   0.615597 0.687844 0.771245 0.255910
N3    N     N_1   0.670053 0.668524 0.727173 -0.313923
C44   C     C_1   0.384403 0.312156 0.228755 0.255910
N4    N     N_1   0.329947 0.331476 0.272827 -0.313923
C45   C     C_1   0.548263 0.955288 0.853450 0.305057
N5    N     N_1   0.551796 0.040231 0.834770 -0.245788
C46   C     C_1   0.451737 0.044712 0.146550 0.305057
N6    N     N_1   0.448204 0.959769 0.165229 -0.245788
C47   C     C_1   0.421639 0.181533 0.939779 0.239071
N7    N     N_1   0.402303 0.151740 0.875557 -0.247101
C48   C     C_1   0.578361 0.818467 0.060221 0.239071
N8    N     N_1   0.597697 0.848260 0.124443 -0.247101
H5    H     H_    0.449698 0.546263 0.791281 0.159597
H6    H     H_    0.550302 0.453737 0.208719 0.159597
C49   C     C_1   0.813126 0.481457 0.677658 0.253249
N9    N     N_1   0.903857 0.491455 0.727450 -0.261958
C50   C     C_1   0.186874 0.518543 0.322342 0.253248
N10   N     N_1   0.096143 0.508545 0.272550 -0.261957
H7    H     H_    0.570608 0.729223 0.533613 0.144654
H8    H     H_    0.429392 0.270777 0.466387 0.144654
H9    H     H_    0.270483 0.852595 0.339267 0.130296
H10   H     H_    0.729517 0.147406 0.660733 0.130296
H11   H     H_    0.802642 0.297818 0.697964 0.153985
H12   H     H_    0.197358 0.702182 0.302036 0.153985

loop_
_geom_bond_atom_site_label_1
_geom_bond_atom_site_label_2
_ccdc_geom_bond_type
C21   C26   A    
C4    C36   A    
C9    H1    S    
C49   N9    T    
C15   N1    A    
C50   N10   T    
C16   N2    A    
C1    C33   S    
C39   C41   A    
C11   H11   S    
C11   C19   A    
C33   C39   A    
C34   C40   A    
C23   C29   S    
C35   C37   A    
C7    H5    S    
C5    C6    A    
Cu1   O4    S    
C15   H8    S    
C24   O6    A    
C15   C17   A    
C16   H7    S    
C2    O2    A    
Cu1   O5    S    
C22   C25   A    
C37   C46   S    
C10   H2    S    
C35   C47   S    
C19   C27   A    
Cu1   N2    S    
Cu2   N1    S    
C2    C34   S    
C40   C42   A    
C13   H10   S    
C43   N3    T    
C40   C43   S    
C34   C38   A    
C21   C22   A    
C48   N8    T    
C25   H3    S    
C23   O5    A    
C39   C44   S    
C8    H6    S    
C47   N7    T    
C13   N1    A    
Cu1   O1    S    
C14   N2    A    
C20   C28   A    
C33   C37   A    
Cu1   Cu2   S    
C3    C9    A    
C26   H4    S    
C31   C32   S    
C3    C35   A    
C12   C20   A    
C12   H12   S    
C14   H9    S    
C1    O3    A    
C2    O4    A    
Cu2   O3    S    
C16   C18   A    
C12   C14   A    
C24   O8    A    
C4    C10   A    
C36   C48   S    
C38   C45   S    
Cu2   O2    S    
C7    C9    A    
C5    C41   A    
C3    C41   A    
C18   C22   A    
C5    C8    A    
C23   O7    A    
C6    C7    A    
C25   C27   A    
C26   C28   A    
C36   C38   A    
C29   C31   T    
C30   C32   T    
C11   C13   A    
Cu2   O7    S    
C4    C42   A    
C17   C19   A    
C18   C20   A    
C44   N4    T    
C24   C30   S    
C45   N5    T    
Cu2   O6    S    
Cu1   O8    S    
C8    C10   A    
C46   N6    T    
C6    C42   A    
C27   C49   S    
C28   C50   S    
C1    O1    A    
C17   C21   A    
