data_mof_unit_10542.cif
_audit_creation_date              2013-03-05T16:09:06-0500
_audit_creation_method            fapswitch 2.2
_symmetry_space_group_name_H-M    P1
_symmetry_Int_Tables_number       1
_space_group_crystal_system       triclinic
_cell_length_a                    18.211624
_cell_length_b                    7.090794
_cell_length_c                    13.002202
_cell_angle_alpha                 90.006051
_cell_angle_beta                  71.821156
_cell_angle_gamma                 90.001593
_cell_volume                      1595.23242787

loop_
_atom_site_label
_atom_site_type_symbol
_atom_site_description
_atom_site_fract_x
_atom_site_fract_y
_atom_site_fract_z
_atom_type_partial_charge
O1    O     O_R   0.453880 0.506200 0.150010 -0.589589
O2    O     O_R   0.546120 0.006200 0.849990 -0.589990
O3    O     O_R   0.604080 0.177770 0.007280 -0.585222
O4    O     O_R   0.395920 0.677770 0.992720 -0.585017
C1    C     C_R   0.636059 0.344483 0.001400 1.049203
C2    C     C_R   0.363951 0.844484 0.998553 1.047770
O5    O     O_R   0.458010 0.176640 0.159130 -0.589939
O6    O     O_R   0.541990 0.676640 0.840870 -0.589440
O7    O     O_R   0.399010 0.004010 0.002930 -0.598096
O8    O     O_R   0.600990 0.504010 0.997070 -0.597875
C3    C     C_R   0.443454 0.345582 0.202057 1.055411
C4    C     C_R   0.556575 0.845552 0.797954 1.053652
O9    O     O_3   0.480810 0.338440 0.948570 -0.286768
O10   O     O_3   0.519190 0.838440 0.051430 -0.286801
V1    V     V_3+5 0.503560 0.064490 0.009540 1.244253
V2    V     V_3+5 0.496440 0.564490 0.990460 1.244762
C5    C     C_R   0.583437 0.943468 0.503146 -0.182162
C6    C     C_R   0.416620 0.442466 0.497093 -0.180792
H1    H     H_    0.664268 0.980511 0.296121 0.163300
H2    H     H_    0.335777 0.478711 0.704147 0.164040
H3    H     H_    0.549537 0.977174 0.450264 0.176719
H4    H     H_    0.450449 0.475706 0.550135 0.178293
C7    C     C_R   0.590348 0.858147 0.680094 -0.292269
C8    C     C_R   0.409749 0.358224 0.319948 -0.292805
C9    C     C_R   0.952770 0.829546 0.384406 -0.207766
C10   C     C_R   0.047228 0.330209 0.615522 -0.207730
C11   C     C_R   0.922515 0.843079 0.496224 -0.187477
C12   C     C_R   0.077520 0.344026 0.503720 -0.187513
C13   C     C_R   0.843907 0.881367 0.546323 0.329541
C14   C     C_R   0.156163 0.382007 0.453689 0.329668
C15   C     C_R   0.792370 0.885924 0.482733 -0.052597
C16   C     C_R   0.207687 0.385947 0.517307 -0.052676
C17   C     C_R   0.825401 0.890195 0.367697 0.071385
C18   C     C_R   0.174632 0.389838 0.632351 0.071411
C19   C     C_R   0.709773 0.888084 0.527787 0.123180
C20   C     C_R   0.290292 0.387918 0.472284 0.122907
C21   C     C_R   0.664084 0.929543 0.459954 0.124823
C22   C     C_R   0.335971 0.428734 0.540208 0.124234
C23   C     C_R   0.698823 0.951033 0.348699 -0.083317
C24   C     C_R   0.301224 0.449775 0.651495 -0.081902
C25   C     C_R   0.777778 0.925201 0.302763 -0.194507
C26   C     C_R   0.222256 0.424184 0.697362 -0.195182
C27   C     C_R   0.670649 0.840189 0.636426 -0.181753
C28   C     C_R   0.329428 0.340433 0.363583 -0.181996
C29   C     C_R   0.545736 0.910501 0.613260 0.332787
C30   C     C_R   0.454397 0.409987 0.386918 0.330655
C31   C     C_R   0.905716 0.860830 0.319613 -0.153714
C32   C     C_R   0.094290 0.360828 0.680378 -0.153600
H5    H     H_    0.701276 0.786446 0.689094 0.160395
H6    H     H_    0.298788 0.287066 0.310835 0.160362
H7    H     H_    0.014232 0.805732 0.347931 0.162694
H8    H     H_    0.985740 0.306718 0.651949 0.162631
H9    H     H_    0.961770 0.835292 0.543826 0.174576
H10   H     H_    0.038272 0.336746 0.456089 0.174538
H11   H     H_    0.801248 0.934466 0.215495 0.127825
H12   H     H_    0.198778 0.433117 0.784643 0.127859
C33   C     C_1   0.216272 0.858697 0.000470 -0.186712
C34   C     C_1   0.783733 0.358690 0.999506 -0.186725
C35   C     C_1   0.283552 0.852536 0.999380 -0.159346
C36   C     C_1   0.716457 0.352536 0.000581 -0.159186
O11   O     O_R   0.899030 0.205490 0.002790 -0.588327
O12   O     O_R   0.100970 0.705490 0.997210 -0.588267
O13   O     O_R   0.042000 0.536370 0.840840 -0.591068
O14   O     O_R   0.958000 0.036370 0.159160 -0.591154
C37   C     C_R   0.057794 0.368228 0.798059 0.933609
C38   C     C_R   0.942188 0.868243 0.201936 0.933635
O15   O     O_R   0.895930 0.535070 0.992690 -0.584846
O16   O     O_R   0.104070 0.035070 0.007310 -0.584921
O17   O     O_R   0.953870 0.707520 0.150040 -0.588557
O18   O     O_R   0.046130 0.207520 0.849960 -0.588576
C39   C     C_R   0.864138 0.366724 0.998655 0.977784
C40   C     C_R   0.135863 0.866727 0.001339 0.977789
O19   O     O_3   0.019200 0.374340 0.051340 -0.269401
O20   O     O_3   0.980800 0.874340 0.948660 -0.269360
V3    V     V_3+5 0.996440 0.648350 0.990470 1.223891
V4    V     V_3+5 0.003560 0.148350 0.009530 1.223797
N1    N     N_R   0.462723 0.925924 0.654577 0.224653
O21   O     O_R   0.425563 0.026960 0.603463 -0.416474
O22   O     O_R   0.423102 0.823992 0.736224 -0.468139
N2    N     N_R   0.537457 0.425376 0.345794 0.224833
O23   O     O_R   0.574739 0.521716 0.398800 -0.415660
O24   O     O_R   0.577056 0.328110 0.262023 -0.468682
N3    N     N_R   0.821005 0.942656 0.657148 0.214355
O25   O     O_R   0.850841 0.864145 0.725414 -0.413747
O26   O     O_R   0.781125 0.097111 0.685172 -0.418050
N4    N     N_R   0.179128 0.443632 0.342932 0.214314
O27   O     O_R   0.149284 0.365524 0.274550 -0.413797
O28   O     O_R   0.219074 0.598033 0.315107 -0.418045

loop_
_geom_bond_atom_site_label_1
_geom_bond_atom_site_label_2
_geom_bond_distance
_ccdc_geom_bond_type
C14   C16   1.431705 A    
O13   C37   1.309078 A    
C7    C29   1.411970 A    
C11   C13   1.401984 A    
O1    C3    1.308095 A    
O2    C4    1.308084 A    
C2    O7    1.308834 A    
C23   C25   1.386348 A    
N1    O21   1.301426 A    
O5    C3    1.313164 A    
C4    C7    1.465118 S    
O20   V4    2.185765 S    
C16   C20   1.434065 A    
C19   C21   1.419381 A    
C5    C29   1.400925 A    
C13   N3    1.436690 S    
H2    C24   1.084215 S    
N4    O28   1.301758 A    
C34   C39   1.461999 S    
C33   C35   1.221701 T    
C38   O17   1.307534 A    
C34   C36   1.221699 T    
C37   O18   1.307590 A    
C3    C8    1.465366 S    
C7    C27   1.399699 A    
C25   H11   1.082541 S    
C26   H12   1.082546 S    
C18   C26   1.408343 A    
C15   C17   1.427781 A    
C32   C37   1.466684 S    
C14   N4    1.436672 S    
C19   C27   1.410800 A    
C9    C31   1.394195 A    
C31   C38   1.466597 S    
C10   C32   1.394178 A    
O11   C39   1.317239 A    
C24   C26   1.386243 A    
O6    V2    2.024129 S    
C22   C24   1.394657 A    
O19   V3    2.185934 S    
C6    C30   1.401231 A    
N1    O22   1.300848 A    
O11   V4    1.974819 S    
O20   V3    1.743938 S    
N2    O24   1.300712 A    
C12   H10   1.083187 S    
N4    O27   1.301570 A    
C27   H5    1.078732 S    
C5    H3    1.084400 S    
C16   C18   1.427856 A    
O4    V2    1.990928 S    
C9    H7    1.084009 S    
C10   H8    1.084003 S    
N3    O25   1.301569 A    
O16   C40   1.318381 A    
O14   V4    2.024110 S    
O12   C40   1.317220 A    
O1    V2    2.017925 S    
C5    C21   1.402710 A    
O2    V1    2.017845 S    
H1    C23   1.084225 S    
O4    C2    1.309438 A    
N3    O26   1.301757 A    
O18   V4    2.019460 S    
C9    C11   1.388049 A    
C8    C28   1.399897 A    
O19   V4    1.743817 S    
C15   C19   1.433962 A    
O12   V3    1.974794 S    
C20   C28   1.410771 A    
C18   C32   1.415270 A    
C20   C22   1.419189 A    
O3    V1    1.990889 S    
C28   H6    1.078742 S    
C1    C36   1.462007 S    
C6    H4    1.084353 S    
C2    C35   1.462004 S    
N2    O23   1.301721 A    
O3    C1    1.309447 A    
C11   H9    1.083192 S    
O16   V4    1.990901 S    
C10   C12   1.388074 A    
C17   C25   1.408406 A    
C12   C14   1.402011 A    
C6    C22   1.402591 A    
C8    C30   1.412707 A    
C1    O8    1.308855 A    
C21   C23   1.394636 A    
O8    V2    1.979590 S    
C30   N2    1.442675 S    
O13   V3    2.023965 S    
C17   C31   1.415279 A    
O5    V1    2.023985 S    
O17   V3    2.019380 S    
O15   C39   1.318382 A    
C33   C40   1.462003 S    
O7    V1    1.979560 S    
O15   V3    1.990865 S    
C13   C15   1.431713 A    
O9    V2    1.744539 S    
O10   V1    1.744659 S    
C29   N1    1.441982 S    
O6    C4    1.313045 A    
O14   C38   1.309076 A    
