data_mof_unit_7891.cif
_audit_creation_date              2012-12-10T18:00:18-0500
_audit_creation_method            fapswitch 2.2
_symmetry_space_group_name_H-M    P1
_symmetry_Int_Tables_number       1
_space_group_crystal_system       triclinic
_cell_length_a                    10.830129
_cell_length_b                    9.52142
_cell_length_c                    10.648801
_cell_angle_alpha                 90.041339
_cell_angle_beta                  89.960905
_cell_angle_gamma                 89.477599
_cell_volume                      1098.03907586

loop_
_atom_site_label
_atom_site_type_symbol
_atom_type_description
_atom_site_fract_x
_atom_site_fract_y
_atom_site_fract_z
_atom_type_partial_charge
C1    C     C_R   0.871608 0.497579 0.497993 -0.368869
C2    C     C_R   0.128344 0.501966 0.502087 -0.356240
C3    C     C_R   0.262243 0.500658 0.500372 0.937318
C4    C     C_R   0.737736 0.499260 0.499898 0.915303
C5    C     C_R   0.501283 0.499975 0.259354 0.787818
C6    C     C_R   0.497998 0.500122 0.740601 0.827529
C7    C     C_3   0.508338 0.633529 0.041917 -0.202795
C8    C     C_3   0.489275 0.367159 0.958108 -0.142501
C9    C     C_3   0.603839 0.557592 0.956188 -0.285675
C10   C     C_3   0.393785 0.443248 0.043887 -0.263410
C11   C     C_3   0.402256 0.575681 0.961286 0.069284
C12   C     C_3   0.595255 0.425228 0.038656 0.065313
C13   C     C_3   0.496615 0.500625 0.877106 -0.002795
C14   C     C_3   0.501103 0.500083 0.122794 -0.015517
C15   C     C_R   0.576302 0.073513 0.421698 -0.021333
C16   C     C_R   0.423948 0.926488 0.578605 -0.035751
C17   C     C_R   0.423862 0.075267 0.578554 -0.014647
C18   C     C_R   0.576236 0.924740 0.421553 -0.009617
C19   C     C_R   0.065388 0.394218 0.565322 0.345037
C20   C     C_R   0.934582 0.604617 0.433942 0.346825
C21   C     C_R   0.936804 0.389052 0.559384 0.336770
C22   C     C_R   0.063091 0.610272 0.440402 0.335824
Cu1   Cu    Cu3+1 0.500000 0.640660 0.500000 0.989046
Cu2   Cu    Cu3+1 0.500000 0.359340 0.500000 0.982520
H1    H     H_    0.637731 0.128846 0.359406 0.171890
H2    H     H_    0.363026 0.871222 0.641555 0.170072
H3    H     H_    0.362941 0.131960 0.641581 0.153993
H4    H     H_    0.637301 0.868061 0.358648 0.157954
H5    H     H_    0.515840 0.742608 0.077914 0.156955
H6    H     H_    0.481893 0.258031 0.922209 0.156546
H7    H     H_    0.690016 0.603610 0.918301 0.143512
H8    H     H_    0.307673 0.397195 0.081884 0.138804
N1    N     N_R   0.500000 0.852070 0.500000 -0.166795
N2    N     N_R   0.500000 0.147930 0.500000 -0.166398
O1    O     O_R   0.319640 0.618740 0.499990 -0.546532
O2    O     O_R   0.680360 0.381260 0.500010 -0.562075
O3    O     O_R   0.680360 0.618740 0.500010 -0.558286
O4    O     O_R   0.319640 0.381260 0.499990 -0.562146
O5    O     O_R   0.499970 0.618770 0.316850 -0.594345
O6    O     O_R   0.500030 0.381230 0.683150 -0.599921
O7    O     O_R   0.500030 0.618770 0.683150 -0.560858
O8    O     O_R   0.499970 0.381230 0.316850 -0.568431
C23   C     C_2   0.292334 0.662492 0.923660 0.276175
H9    H     H_    0.232251 0.705890 0.995671 0.095106
O9    O     O_2   0.269757 0.685268 0.813327 -0.587039
C24   C     C_2   0.704521 0.340800 0.081213 0.320817
H10   H     H_    0.797021 0.380684 0.067435 0.050490
O10   O     O_2   0.690027 0.227764 0.132655 -0.561787
O11   O     O_3   0.129211 0.290186 0.629643 -0.567342
C25   C     C_3   0.146177 0.334311 0.754765 -0.268658
H11   H     H_    0.207378 0.427058 0.759203 0.175127
H12   H     H_    0.192316 0.248249 0.807534 0.166694
H13   H     H_    0.056541 0.357385 0.802078 0.179125
O12   O     O_3   0.870906 0.706565 0.366898 -0.558917
C26   C     C_3   0.851053 0.656468 0.244000 -0.276527
H14   H     H_    0.801938 0.739088 0.189619 0.179596
H15   H     H_    0.791562 0.561964 0.244378 0.121536
H16   H     H_    0.939865 0.633400 0.195126 0.171328
O13   O     O_3   0.874122 0.285501 0.624083 -0.550001
C27   C     C_3   0.880642 0.159105 0.554809 -0.190803
H17   H     H_    0.813960 0.084007 0.595573 0.175154
H18   H     H_    0.973865 0.110302 0.561645 0.175958
H19   H     H_    0.855077 0.174543 0.454379 0.138528
O14   O     O_3   0.125705 0.713468 0.375208 -0.557035
C28   C     C_3   0.118602 0.840361 0.443680 -0.193200
H20   H     H_    0.024929 0.888126 0.437218 0.175252
H21   H     H_    0.184415 0.915825 0.401997 0.172239
H22   H     H_    0.144977 0.825916 0.544007 0.154811

loop_
_geom_bond_atom_site_label_1
_geom_bond_atom_site_label_2
_ccdc_geom_bond_type
C2    C22   A    
C15   C18   A    
Cu2   O4    S    
C26   H14   S    
C4    O2    A    
C1    C21   A    
C8    C13   S    
C7    H5    S    
C7    C11   S    
C16   N1    A    
C7    C14   S    
Cu2   O8    S    
C19   O11   S    
C15   N2    A    
C25   H12   S    
C17   N2    A    
Cu1   O7    S    
C3    O1    A    
C8    C12   S    
C28   H22   S    
C8    H6    S    
O14   C28   S    
C1    C4    S    
C5    O5    A    
C2    C3    S    
O13   C27   S    
C21   O13   S    
Cu1   O3    S    
C6    C13   S    
C11   C23   S    
C23   O9    D    
C5    C14   S    
Cu2   O2    S    
C27   H19   S    
Cu1   O5    S    
C20   O12   S    
C19   C21   A    
C20   C22   A    
C25   H11   S    
Cu1   O1    S    
C26   H15   S    
C23   H9    S    
C16   H2    S    
C18   N1    A    
C24   O10   D    
C15   H1    S    
C25   H13   S    
C9    C12   S    
C9    H7    S    
Cu1   Cu2   S    
C22   O14   S    
C10   C14   S    
C17   H3    S    
C10   H8    S    
C11   C13   S    
C6    O6    A    
C18   H4    S    
C4    O3    A    
Cu1   N1    S    
C5    O8    A    
C27   H18   S    
C28   H20   S    
C10   C11   S    
C26   H16   S    
O11   C25   S    
C7    C9    S    
C24   H10   S    
C16   C17   A    
C1    C20   A    
C9    C13   S    
Cu2   O6    S    
C2    C19   A    
O12   C26   S    
C6    O7    A    
C8    C10   S    
Cu2   N2    S    
C3    O4    A    
C12   C14   S    
C27   H17   S    
C28   H21   S    
C12   C24   S    
