data_mof_unit_34055.cif
_audit_creation_date              2012-12-11T15:28:43-0500
_audit_creation_method            fapswitch 2.2
_symmetry_space_group_name_H-M    P1
_symmetry_Int_Tables_number       1
_space_group_crystal_system       triclinic
_cell_length_a                    6.960286
_cell_length_b                    19.592647
_cell_length_c                    23.391832
_cell_angle_alpha                 96.086954
_cell_angle_beta                  91.246271
_cell_angle_gamma                 88.594357
_cell_volume                      3170.42662012

loop_
_atom_site_label
_atom_site_type_symbol
_atom_type_description
_atom_site_fract_x
_atom_site_fract_y
_atom_site_fract_z
_atom_type_partial_charge
O1    O     O_R   0.617180 0.809390 0.808140 -0.521598
O2    O     O_R   0.382820 0.190610 0.191860 -0.521598
O3    O     O_R   0.293300 0.672410 0.795490 -0.534326
O4    O     O_R   0.706700 0.327590 0.204510 -0.534326
O5    O     O_R   0.117220 0.690610 0.691850 -0.522470
O6    O     O_R   0.882780 0.309390 0.308150 -0.522469
C1    C     C_R   0.465067 0.647875 0.805337 0.699255
C2    C     C_R   0.534933 0.352126 0.194664 0.699254
O7    O     O_R   0.287840 0.807750 0.814460 -0.524285
O8    O     O_R   0.712160 0.192250 0.185540 -0.524285
O9    O     O_R   0.111720 0.826910 0.710960 -0.532711
O10   O     O_R   0.888280 0.173090 0.289040 -0.532711
C3    C     C_R   0.456523 0.830742 0.833176 0.718226
C4    C     C_R   0.543477 0.169258 0.166824 0.718226
O11   O     O_R   0.622680 0.673080 0.789040 -0.532311
O12   O     O_R   0.377320 0.326920 0.210960 -0.532311
O13   O     O_3   0.448820 0.756130 0.716020 -0.360666
O14   O     O_3   0.551180 0.243870 0.283980 -0.360665
V1    V     V_3+5 0.176220 0.748860 0.756300 1.428813
V2    V     V_3+5 0.823780 0.251140 0.243700 1.428812
O15   O     O_R   0.781670 0.827580 0.704500 -0.535412
O16   O     O_R   0.218330 0.172420 0.295500 -0.535413
C5    C     C_R   0.947704 0.851828 0.694116 0.695916
C6    C     C_R   0.052295 0.148172 0.305884 0.695917
O17   O     O_R   0.787130 0.692240 0.685530 -0.526059
O18   O     O_R   0.212870 0.307760 0.314470 -0.526060
C7    C     C_R   0.956086 0.669235 0.666795 0.714448
C8    C     C_R   0.043914 0.330764 0.333204 0.714447
V3    V     V_3+5 0.675510 0.751130 0.743690 1.425625
V4    V     V_3+5 0.324490 0.248870 0.256310 1.425624
O19   O     O_3   0.952780 0.743870 0.783980 -0.356953
O20   O     O_3   0.047220 0.256130 0.216020 -0.356952
C9    C     C_1   0.966586 0.617174 0.614739 -0.215345
C10   C     C_1   0.033413 0.382826 0.385261 -0.215346
C11   C     C_1   0.978158 0.573660 0.571923 0.002060
C12   C     C_1   0.021842 0.426340 0.428077 0.002060
C13   C     C_1   0.993410 0.521858 0.521316 0.001403
C14   C     C_1   0.006590 0.478141 0.478684 0.001403
C15   C     C_R   0.945831 0.913977 0.663451 -0.049870
C16   C     C_R   0.054169 0.086023 0.336549 -0.049870
C17   C     C_R   0.860471 0.034308 0.663115 -0.149608
C18   C     C_R   0.139529 0.965692 0.336884 -0.149608
C19   C     C_R   0.878606 0.975862 0.691932 -0.159875
C20   C     C_R   0.121394 0.024138 0.308068 -0.159876
C21   C     C_R   0.994410 0.910861 0.605087 -0.213474
C22   C     C_R   0.005590 0.089139 0.394913 -0.213474
C23   C     C_R   0.973328 0.969737 0.574124 0.087503
C24   C     C_R   0.026672 0.030263 0.425876 0.087503
C25   C     C_R   0.905512 0.031770 0.604738 0.132393
C26   C     C_R   0.094487 0.968229 0.395262 0.132393
C27   C     C_R   0.013978 0.969247 0.514024 0.057740
C28   C     C_R   0.986022 0.030753 0.485976 0.057740
C29   C     C_R   0.919051 0.090680 0.519007 -0.185336
C30   C     C_R   0.080948 0.909320 0.480993 -0.185336
C31   C     C_R   0.880287 0.090993 0.576982 -0.192705
C32   C     C_R   0.119713 0.909007 0.423018 -0.192705
H1    H     H_    0.828410 0.138363 0.600378 0.131699
H2    H     H_    0.171590 0.861637 0.399622 0.131699
H3    H     H_    0.957374 0.138435 0.414936 0.096047
H4    H     H_    0.042626 0.861565 0.585064 0.096047
H5    H     H_    0.161445 0.021233 0.263353 0.115008
H6    H     H_    0.838555 0.978767 0.736647 0.115008
H7    H     H_    0.807890 0.081608 0.686424 0.129479
H8    H     H_    0.192110 0.918392 0.313575 0.129478
H9    H     H_    0.894155 0.138689 0.501291 0.125319
H10   H     H_    0.105845 0.861311 0.498709 0.125318
C33   C     C_R   0.486023 0.585570 0.835364 -0.049533
C34   C     C_R   0.513972 0.414431 0.164637 -0.049540
C35   C     C_R   0.596675 0.467588 0.833333 -0.117272
C36   C     C_R   0.403264 0.532407 0.166667 -0.117281
C37   C     C_R   0.557369 0.525509 0.805240 -0.173081
C38   C     C_R   0.442584 0.474488 0.194758 -0.173069
C39   C     C_R   0.454275 0.587457 0.894567 -0.188936
C40   C     C_R   0.545744 0.412547 0.105436 -0.188934
C41   C     C_R   0.497602 0.529332 0.925001 0.074276
C42   C     C_R   0.502385 0.470669 0.075001 0.074278
C43   C     C_R   0.569973 0.468604 0.892928 0.085832
C44   C     C_R   0.429984 0.531393 0.107072 0.085834
C45   C     C_R   0.474963 0.529895 0.986040 0.020255
C46   C     C_R   0.525018 0.470106 0.013961 0.020255
C47   C     C_R   0.595460 0.411502 0.979950 -0.183766
C48   C     C_R   0.404496 0.588496 0.020049 -0.183763
C49   C     C_R   0.617231 0.410284 0.920949 0.141961
C50   C     C_R   0.382709 0.589712 0.079050 0.141960
H11   H     H_    0.597776 0.364250 0.084542 0.101196
H12   H     H_    0.402285 0.635758 0.915463 0.101194
H13   H     H_    0.415230 0.476326 0.240338 0.111741
H14   H     H_    0.584703 0.523668 0.759659 0.111740
H15   H     H_    0.651680 0.422510 0.807742 0.159181
H16   H     H_    0.348232 0.577482 0.192255 0.159182
H17   H     H_    0.636620 0.364895 0.997860 0.150308
H18   H     H_    0.363314 0.635100 0.002138 0.150308
C51   C     C_1   0.467269 0.882807 0.885236 -0.205276
C52   C     C_1   0.532731 0.117193 0.114764 -0.205277
C53   C     C_1   0.478694 0.926325 0.928060 0.016392
C54   C     C_1   0.521305 0.073675 0.071940 0.016392
C55   C     C_1   0.493583 0.978136 0.978679 0.018591
C56   C     C_1   0.506417 0.021863 0.021321 0.018591
I1    I     I_    0.727103 0.316428 0.878008 -0.409796
I2    I     I_    0.272788 0.683562 0.121989 -0.409796

loop_
_geom_bond_atom_site_label_1
_geom_bond_atom_site_label_2
_ccdc_geom_bond_type
C21   H4    S    
C22   H3    S    
C36   C44   A    
C39   C41   A    
C34   C40   A    
C35   C43   A    
O4    C2    A    
V1    O19   S    
C55   C56   T    
C23   C25   A    
C7    C9    S    
C16   C22   A    
O9    V1    S    
C30   H10   S    
C40   C42   A    
C11   C13   S    
C42   C44   A    
O3    C1    A    
C9    C11   T    
C43   C49   A    
O12   V4    S    
C48   H18   S    
C21   C23   A    
C35   C37   A    
O7    C3    A    
C6    C16   S    
O5    C7    A    
O7    V1    S    
O6    C8    A    
O8    V2    S    
C54   C56   S    
O3    V1    S    
C33   C39   A    
C29   H9    S    
O14   V2    S    
C15   C21   A    
C24   C26   A    
C8    C10   S    
C51   C53   T    
C49   I1    S    
C17   C19   A    
C36   H16   S    
C18   C20   A    
C35   H15   S    
C17   C25   A    
C47   C49   A    
O11   V3    S    
C22   C24   A    
C29   C31   A    
O17   V3    S    
C30   C32   A    
C27   C28   A    
C50   I2    S    
O8    C4    A    
C15   C19   A    
C1    O11   A    
C25   C31   A    
O15   V3    S    
C26   C32   A    
C45   C46   A    
C3    C51   S    
O4    V2    S    
C13   C14   T    
C16   C20   A    
C34   C38   A    
O10   V2    S    
O1    V3    S    
C52   C54   T    
C41   C43   A    
C18   C26   A    
O14   V4    S    
C2    C34   S    
C48   C50   A    
C31   H1    S    
O16   C6    A    
O1    C3    A    
C17   H7    S    
C12   C14   S    
C18   H8    S    
C38   H13   S    
C28   C29   A    
V2    O20   S    
O16   V4    S    
C42   C46   A    
C46   C47   A    
C45   C48   A    
C23   C27   A    
C53   C55   S    
O18   V4    S    
O5    V1    S    
C20   H5    S    
O17   C7    A    
O6    V2    S    
O10   C6    A    
O18   C8    A    
O2    V4    S    
C27   C30   A    
O15   C5    A    
V3    O19   S    
O13   V3    S    
V4    O20   S    
C5    C15   S    
O9    C5    A    
O13   V1    S    
C10   C12   T    
C32   H2    S    
C33   C37   A    
C40   H11   S    
O2    C4    A    
C39   H12   S    
C1    C33   S    
C37   H14   S    
C47   H17   S    
C44   C50   A    
C24   C28   A    
C2    O12   A    
C36   C38   A    
C41   C45   A    
C4    C52   S    
C19   H6    S    
