data_mof_unit_12810.cif
_audit_creation_date              2012-12-11T18:13:20-0500
_audit_creation_method            fapswitch 2.2
_symmetry_space_group_name_H-M    P1
_symmetry_Int_Tables_number       1
_space_group_crystal_system       triclinic
_cell_length_a                    8.163176
_cell_length_b                    12.695979
_cell_length_c                    18.702323
_cell_angle_alpha                 99.504833
_cell_angle_beta                  91.094118
_cell_angle_gamma                 98.579622
_cell_volume                      1888.39594053

loop_
_atom_site_label
_atom_site_type_symbol
_atom_type_description
_atom_site_fract_x
_atom_site_fract_y
_atom_site_fract_z
_atom_type_partial_charge
Ba1   Ba    Ba6+2 0.852780 0.548340 0.465070 1.658203
Ba2   Ba    Ba6+2 0.337060 0.451750 0.534940 1.639653
C1    C     C_3   0.583181 0.900290 0.253109 -0.414647
C2    C     C_3   0.633942 0.819941 0.297972 0.343359
C3    C     C_3   0.460413 0.275047 0.313944 0.310736
C4    C     C_3   0.434727 0.237750 0.232442 -0.402518
C5    C     C_3   0.061510 0.240426 0.736182 0.380630
C6    C     C_3   0.080285 0.216731 0.812779 -0.363299
C7    C     C_3   0.559087 0.179595 0.704059 0.342935
C8    C     C_3   0.615532 0.105609 0.752552 -0.422158
C9    C     C_R   0.993343 0.447867 0.047995 0.007090
C10   C     C_R   0.891946 0.394278 0.095244 0.033279
C11   C     C_R   0.728831 0.347412 0.072128 -0.085043
C12   C     C_3   0.130153 0.761765 0.265248 0.364209
C13   C     C_R   0.667157 0.352923 0.002800 -0.089601
C14   C     C_R   0.768248 0.403857 0.954677 0.032569
C15   C     C_R   0.931888 0.451812 0.977190 0.013891
C16   C     C_R   0.708550 0.405697 0.884179 -0.111604
C17   C     C_R   0.811439 0.451885 0.834054 -0.043654
C18   C     C_R   0.974761 0.503251 0.857019 -0.004947
C19   C     C_R   0.033906 0.503243 0.928976 -0.008146
C20   C     C_R   0.757508 0.446039 0.761084 -0.004964
C21   C     C_R   0.866573 0.487065 0.711959 -0.297609
C22   C     C_R   0.024133 0.543991 0.734085 0.044031
C23   C     C_3   0.110549 0.786478 0.188965 -0.366024
C24   C     C_R   0.079308 0.553926 0.808212 -0.043955
C25   C     C_R   0.156230 0.496414 0.071188 -0.007985
C26   C     C_R   0.215806 0.495746 0.142988 -0.005629
C27   C     C_R   0.111137 0.445310 0.191834 -0.043590
C28   C     C_R   0.953358 0.389642 0.165210 -0.041522
C29   C     C_R   0.236560 0.610292 0.834995 -0.042088
C30   C     C_R   0.297890 0.605823 0.905021 0.033721
C31   C     C_R   0.196613 0.552064 0.952235 0.006961
C32   C     C_R   0.258167 0.547949 0.022999 0.013779
C33   C     C_R   0.460923 0.652814 0.928187 -0.084195
C34   C     C_3   0.236664 0.786277 0.619433 0.309576
C35   C     C_R   0.522843 0.646877 0.997394 -0.089488
C36   C     C_R   0.421961 0.595604 0.045430 0.032286
C37   C     C_R   0.379641 0.546230 0.165765 -0.045039
C38   C     C_R   0.482190 0.592871 0.115699 -0.109572
C39   C     C_R   0.434576 0.550536 0.238452 -0.000438
C40   C     C_R   0.326442 0.508241 0.287440 -0.298326
C41   C     C_R   0.167005 0.454314 0.265775 0.043728
C42   C     C_R   0.766012 0.183654 0.528499 -0.376371
C43   C     C_R   0.430695 0.808342 0.469710 -0.303064
C44   C     C_R   0.403494 0.984757 0.444802 -0.078243
C45   C     C_3   0.282106 0.908250 0.638510 -0.334226
C46   C     C_R   0.339190 0.876411 0.440661 -0.008754
C47   C     C_R   0.578949 0.849413 0.510173 0.086154
C48   C     C_R   0.643304 0.961886 0.518732 -0.136671
C49   C     C_R   0.555189 0.029112 0.483240 -0.123262
C50   C     C_R   0.618588 0.139989 0.488858 0.051308
C51   C     C_R   0.856692 0.118671 0.560743 -0.036956
C52   C     C_R   0.792658 0.010345 0.559830 0.533378
C53   C     C_3   0.961283 0.212659 0.380811 0.276400
C54   C     C_3   0.949383 0.090553 0.364710 -0.342722
C55   C     C_3   0.729391 0.706460 0.682678 0.340392
C56   C     C_3   0.750969 0.744469 0.764284 -0.395164
H1    H     H_    0.725462 0.863194 0.341653 0.073783
H2    H     H_    0.396071 0.928388 0.674254 0.085585
H3    H     H_    0.304856 0.943955 0.588867 0.086950
H4    H     H_    0.179763 0.943538 0.667000 0.198728
H5    H     H_    0.840384 0.234371 0.397059 0.006411
H6    H     H_    0.055277 0.244050 0.425730 0.079778
H7    H     H_    0.855852 0.056896 0.320010 0.114845
H8    H     H_    0.912068 0.055326 0.413311 0.071498
H9    H     H_    0.071508 0.068307 0.348481 0.140194
H10   H     H_    0.846873 0.683215 0.661897 0.002473
H11   H     H_    0.629095 0.635776 0.671783 0.047790
H12   H     H_    0.530213 0.964791 0.288502 0.103836
H13   H     H_    0.857824 0.810854 0.776797 0.135000
H14   H     H_    0.773610 0.677156 0.792176 0.051213
H15   H     H_    0.636987 0.774454 0.785150 0.112651
H16   H     H_    0.521769 0.785743 0.323980 -0.051132
H17   H     H_    0.488655 0.858131 0.210419 0.113442
H18   H     H_    0.343169 0.298497 0.335606 0.017793
H19   H     H_    0.560354 0.346105 0.323993 0.058776
H20   H     H_    0.330197 0.169657 0.220695 0.128743
H21   H     H_    0.405864 0.305105 0.205821 0.056426
H22   H     H_    0.549128 0.210529 0.209835 0.117760
H23   H     H_    0.692181 0.937289 0.226381 0.129875
H24   H     H_    0.149410 0.721257 0.148884 0.071055
H25   H     H_    0.141527 0.318033 0.732826 0.083343
H26   H     H_    0.930321 0.248515 0.725737 -0.082842
H27   H     H_    0.212282 0.213856 0.826464 0.146990
H28   H     H_    0.037096 0.280859 0.852260 0.067963
H29   H     H_    0.005172 0.137786 0.817173 0.117615
H30   H     H_    0.669092 0.214127 0.676755 -0.056054
H31   H     H_    0.470150 0.131132 0.661126 0.072645
H32   H     H_    0.702739 0.153674 0.796307 0.114519
H33   H     H_    0.679116 0.043565 0.720151 0.127692
H34   H     H_    0.047623 0.685112 0.268601 0.095178
H35   H     H_    0.507145 0.064902 0.777798 0.128537
H36   H     H_    0.648236 0.307106 0.107901 0.061336
H37   H     H_    0.540600 0.316229 0.986531 0.070728
H38   H     H_    0.824939 0.479025 0.655787 0.068448
H39   H     H_    0.582211 0.368662 0.868743 0.107215
H40   H     H_    0.874265 0.344575 0.198912 0.096335
H41   H     H_    0.315596 0.655345 0.801266 0.096935
H42   H     H_    0.541372 0.693404 0.892516 0.062270
H43   H     H_    0.649472 0.683448 0.013623 0.070811
H44   H     H_    0.608969 0.629106 0.130893 0.108661
H45   H     H_    0.260675 0.751215 0.274730 -0.074758
H46   H     H_    0.369179 0.514417 0.343309 0.072090
H47   H     H_    0.330303 0.033515 0.419377 0.098414
H48   H     H_    0.815319 0.268240 0.530963 0.086392
H49   H     H_    0.380468 0.723487 0.464721 0.067483
H50   H     H_    0.979077 0.792230 0.176364 0.150065
H51   H     H_    0.188695 0.864295 0.184343 0.110464
H52   H     H_    0.345529 0.751438 0.598145 -0.013608
H53   H     H_    0.134087 0.766799 0.577537 0.088863
O1    O     O_2   0.873090 0.425890 0.325140 -0.467711
O2    O     O_3   0.688896 0.791683 0.650677 -0.586734
O3    O     O_3   0.086912 0.847200 0.315500 -0.602892
O4    O     O_2   0.316610 0.574140 0.674900 -0.468930
O5    O     O_3   0.067290 0.565720 0.585630 -0.501901
O6    O     O_3   0.530210 0.372990 0.631200 -0.465726
O7    O     O_3   0.189007 0.746500 0.682366 -0.639968
O8    O     O_3   0.611340 0.366290 0.463630 -0.478129
O9    O     O_3   0.108550 0.314140 0.595200 -0.497363
O10   O     O_2   0.197472 0.122112 0.553010 -0.469415
O11   O     O_3   0.109379 0.155756 0.686790 -0.565585
O12   O     O_3   0.122420 0.434370 0.414380 -0.496828
O13   O     O_3   0.578370 0.633800 0.536380 -0.509842
O14   O     O_2   0.341510 0.231850 0.465510 -0.471696
O15   O     O_3   0.504587 0.190014 0.345599 -0.649530
O16   O     O_2   0.416218 0.454065 0.756625 -0.497069
O17   O     O_3   0.478257 0.257000 0.746341 -0.594927
O18   O     O_3   0.659500 0.627100 0.368810 -0.479893
O19   O     O_2   0.777072 0.547033 0.243790 -0.495883
O20   O     O_3   0.003365 0.253455 0.317640 -0.640932
O21   O     O_3   0.708266 0.742231 0.252670 -0.598886
O22   O     O_2   0.848200 0.768190 0.534530 -0.408940
O23   O     O_3   0.081160 0.685950 0.404810 -0.493029
O24   O     O_2   0.000401 0.879293 0.449838 -0.464795
P1    P     P_3+3 0.041040 0.394770 0.336330 0.969224
P2    P     P_3+3 0.672880 0.754030 0.556100 1.056971
P3    P     P_3+3 0.127712 0.823728 0.403283 0.953482
P4    P     P_3+3 0.148670 0.605320 0.663680 0.969570
P5    P     P_3+3 0.067199 0.176380 0.598459 1.025056
P6    P     P_3+3 0.644351 0.614279 0.274848 0.947186
P7    P     P_3+3 0.522575 0.230315 0.439853 0.940315
P8    P     P_3+3 0.546270 0.384930 0.725047 0.950622
F1    F     F_    0.878307 0.956525 0.600451 -0.699818

loop_
_geom_bond_atom_site_label_1
_geom_bond_atom_site_label_2
_ccdc_geom_bond_type
O24   P3    D    
C52   F1    S    
C53   C54   S    
O22   P2    D    
C47   P2    S    
O12   P1    S    
C51   P5    S    
C39   C40   A    
C5    H25   S    
C17   C18   A    
C45   H4    S    
O6    P8    S    
C12   H45   S    
C5    C6    S    
C37   C39   A    
C51   C52   A    
C48   C52   A    
Ba2   P4    S    
O10   P5    D    
C26   C27   A    
C33   C35   A    
C22   C24   A    
C6    H27   S    
Ba1   O18   S    
C7    H30   S    
C13   H37   S    
C3    C4    S    
C56   H13   S    
C4    H20   S    
O18   P6    S    
C13   C14   A    
C44   H47   S    
C21   H38   S    
C34   C45   S    
Ba1   Ba2   S    
Ba1   O8    S    
O19   P6    D    
C45   H2    S    
Ba2   O5    S    
C42   C51   A    
C14   C15   A    
C53   H5    S    
C20   P8    S    
C1    H23   S    
C21   C22   A    
O9    P5    S    
C16   H39   S    
C29   H41   S    
Ba1   P1    S    
C1    H17   S    
C7    C8    S    
C2    H16   S    
C23   H51   S    
O5    P4    S    
C42   C50   A    
C5    H26   S    
C24   C29   A    
C25   C32   A    
C36   C38   A    
C27   C41   A    
O1    P1    D    
Ba1   O22   S    
C4    H21   S    
Ba2   O6    S    
C48   C49   A    
C22   P4    S    
C44   C46   A    
C7    O17   S    
C49   C50   A    
C30   C33   A    
O13   P2    S    
C17   C20   A    
C2    O21   S    
O20   P1    S    
C7    H31   S    
C37   C38   A    
Ba2   O9    S    
C16   C17   A    
C55   O2    S    
C26   C37   A    
Ba2   O12   S    
C38   H44   S    
C44   C49   A    
O15   P7    S    
C50   P7    S    
C1    C2    S    
C3    O15   S    
Ba1   O12   S    
C39   P6    S    
C35   C36   A    
Ba2   O4    S    
C56   H15   S    
C4    H22   S    
C29   C30   A    
C9    C25   A    
O14   P7    D    
Ba2   O8    S    
C53   H6    S    
C1    H12   S    
C34   H53   S    
C31   C32   A    
O16   P8    D    
C10   C11   A    
C12   H34   S    
Ba1   O5    S    
O4    P4    D    
C8    H33   S    
Ba2   O13   S    
C11   C13   A    
C34   H52   S    
C23   H24   S    
O2    P2    S    
C40   C41   A    
C5    O11   S    
C3    H19   S    
O7    P4    S    
Ba1   O23   S    
Ba1   P2    S    
C43   C46   A    
O21   P6    S    
C9    C15   A    
C10   C28   A    
C32   C36   A    
C40   H46   S    
C45   H3    S    
C9    C10   A    
C42   H48   S    
O23   P3    S    
C54   H9    S    
C28   H40   S    
C53   O20   S    
C8    H35   S    
C46   P3    S    
C11   H36   S    
C6    H29   S    
C30   C31   A    
C3    H18   S    
Ba1   O13   S    
O11   P5    S    
Ba1   O1    S    
C12   O3    S    
C35   H43   S    
C56   H14   S    
C55   C56   S    
C18   C24   A    
C54   H8    S    
C33   H42   S    
C2    H1    S    
C43   C47   A    
C6    H28   S    
O3    P3    S    
C12   C23   S    
C41   P1    S    
O17   P8    S    
C15   C19   A    
C27   C28   A    
Ba2   O14   S    
C43   H49   S    
C19   C31   A    
C18   C19   A    
C8    H32   S    
C14   C16   A    
C47   C48   A    
C25   C26   A    
O8    P7    S    
C20   C21   A    
C34   O7    S    
C55   H10   S    
C55   H11   S    
C54   H7    S    
C23   H50   S    
