data_mof_unit_55929.cif
_audit_creation_date              2013-03-05T15:41:17-0500
_audit_creation_method            fapswitch 2.2
_symmetry_space_group_name_H-M    P1
_symmetry_Int_Tables_number       1
_space_group_crystal_system       triclinic
_cell_length_a                    16.895262
_cell_length_b                    16.816199
_cell_length_c                    16.879482
_cell_angle_alpha                 66.106513
_cell_angle_beta                  67.392421
_cell_angle_gamma                 66.073591
_cell_volume                      3866.3611127

loop_
_atom_site_label
_atom_site_type_symbol
_atom_site_description
_atom_site_fract_x
_atom_site_fract_y
_atom_site_fract_z
_atom_type_partial_charge
O1    O     O_R   0.982940 0.138950 0.510160 -0.606978
O2    O     O_R   0.017060 0.861050 0.489840 -0.606345
O3    O     O_R   0.138950 0.510160 0.982940 -0.641500
O4    O     O_R   0.861050 0.489840 0.017060 -0.638240
O5    O     O_R   0.510160 0.982940 0.138950 -0.584454
O6    O     O_R   0.489840 0.017060 0.861050 -0.627209
O7    O     O_R   0.489840 0.861050 0.017060 -0.568169
O8    O     O_R   0.510160 0.138950 0.982940 -0.650834
O9    O     O_R   0.017060 0.489840 0.861050 -0.606824
O10   O     O_R   0.982940 0.510160 0.138950 -0.658122
O11   O     O_R   0.861050 0.017060 0.489840 -0.633489
O12   O     O_R   0.138950 0.982940 0.510160 -0.666247
C1    C     C_R   0.315103 0.995616 0.438329 -0.108943
C2    C     C_R   0.678768 0.036949 0.543645 -0.125047
C3    C     C_R   0.005632 0.428050 0.315315 -0.109225
C4    C     C_R   0.061601 0.537022 0.673835 -0.087956
C5    C     C_R   0.433523 0.301175 0.023460 -0.094421
C6    C     C_R   0.538453 0.677127 0.045900 -0.069543
C7    C     C_R   0.563941 0.002411 0.683853 -0.103529
C8    C     C_R   0.453589 0.949321 0.326403 -0.062320
C9    C     C_R   0.678969 0.557148 0.015942 -0.097279
C10   C     C_R   0.324999 0.442667 0.966451 -0.062974
C11   C     C_R   0.065903 0.667701 0.539079 -0.094811
C12   C     C_R   0.954537 0.323468 0.459168 -0.072477
O13   O     O_R   0.867700 0.025880 0.612340 -0.552627
O14   O     O_R   0.132300 0.974120 0.387660 -0.589115
O15   O     O_R   0.025880 0.612340 0.867700 -0.588467
O16   O     O_R   0.974120 0.387660 0.132300 -0.582427
O17   O     O_R   0.612340 0.867700 0.025880 -0.556219
O18   O     O_R   0.387660 0.132300 0.974120 -0.668897
O19   O     O_R   0.387660 0.974120 0.132300 -0.623377
O20   O     O_R   0.612340 0.025880 0.867700 -0.584417
O21   O     O_R   0.132300 0.387660 0.974120 -0.608532
O22   O     O_R   0.867700 0.612340 0.025880 -0.585726
O23   O     O_R   0.974120 0.132300 0.387660 -0.557655
O24   O     O_R   0.025880 0.867700 0.612340 -0.599158
C13   C     C_R   0.960534 0.179603 0.438716 1.013062
C14   C     C_R   0.037108 0.819963 0.562829 0.928144
C15   C     C_R   0.177872 0.432881 0.972633 1.074426
C16   C     C_R   0.821598 0.567075 0.026043 0.969561
C17   C     C_R   0.435845 0.967423 0.178253 0.994756
C18   C     C_R   0.567211 0.024803 0.822270 0.971772
C19   C     C_R   0.561884 0.820566 0.037761 1.021967
C20   C     C_R   0.425968 0.165127 0.001732 0.936047
C21   C     C_R   0.038133 0.561891 0.820941 1.025313
C22   C     C_R   0.975915 0.431711 0.177714 0.973023
C23   C     C_R   0.820945 0.034493 0.562909 0.961596
C24   C     C_R   0.175227 0.981723 0.430730 0.976183
C25   C     C_R   0.409369 0.974041 0.406112 0.005501
C26   C     C_R   0.598500 0.013904 0.590755 -0.007502
C27   C     C_R   0.988091 0.398380 0.409690 0.004366
C28   C     C_R   0.055910 0.579468 0.584326 -0.001829
C29   C     C_R   0.401471 0.396577 0.999399 0.003724
C30   C     C_R   0.584830 0.592741 0.028769 -0.011220
C31   C     C_R   0.266697 0.986177 0.391342 -0.148421
C32   C     C_R   0.723733 0.048943 0.592783 -0.159288
C33   C     C_R   0.972239 0.394047 0.273202 -0.188946
C34   C     C_R   0.063474 0.589326 0.722003 -0.165310
C35   C     C_R   0.384273 0.253970 0.016165 -0.125381
C36   C     C_R   0.589286 0.721719 0.056802 -0.153800
C37   C     C_R   0.603593 0.028191 0.727181 -0.208984
C38   C     C_R   0.399400 0.959862 0.272697 -0.148489
C39   C     C_R   0.724352 0.600100 0.035903 -0.214210
C40   C     C_R   0.270148 0.390900 0.976958 -0.147174
C41   C     C_R   0.064333 0.719005 0.590718 -0.206858
C42   C     C_R   0.941156 0.278821 0.410515 -0.174367
Zn1   Zn    Zn3+2 0.004880 0.004880 0.583590 1.052582
Zn2   Zn    Zn3+2 0.995120 0.995120 0.416410 1.104318
Zn3   Zn    Zn3+2 0.004880 0.583590 0.004880 1.006395
Zn4   Zn    Zn3+2 0.995120 0.416410 0.995120 1.038304
Zn5   Zn    Zn3+2 0.583590 0.004880 0.004880 1.097798
Zn6   Zn    Zn3+2 0.416410 0.995120 0.995120 1.057972
C43   C     C_R   0.490856 0.964980 0.729163 0.343584
C44   C     C_R   0.549913 0.920240 0.300672 0.387525
C45   C     C_R   0.085205 0.697769 0.443385 0.350145
C46   C     C_R   0.936000 0.295669 0.554581 0.370469
C47   C     C_R   0.722753 0.480080 0.982827 0.362047
C48   C     C_R   0.305221 0.538790 0.928432 0.334816
C49   C     C_R   0.272861 0.030558 0.513661 0.339838
C50   C     C_R   0.711128 0.045816 0.449545 0.361656
C51   C     C_R   0.512058 0.256565 0.055755 0.346227
C52   C     C_R   0.444014 0.713630 0.049972 0.433901
C53   C     C_R   0.056858 0.490003 0.267017 0.360444
C54   C     C_R   0.073387 0.441418 0.709570 0.358018
C55   C     C_R   0.305489 0.981508 0.304233 0.426353
C56   C     C_R   0.678762 0.059198 0.678079 0.405159
C57   C     C_R   0.932582 0.324599 0.324072 0.408509
C58   C     C_R   0.077129 0.674391 0.676511 0.426205
C59   C     C_R   0.296361 0.296173 0.012582 0.422913
C60   C     C_R   0.674791 0.674463 0.068876 0.389765
C61   C     C_R   0.679756 0.003637 0.414513 -0.175480
C62   C     C_R   0.323854 0.006794 0.573751 -0.181340
C63   C     C_R   0.040641 0.400608 0.673949 -0.143345
C64   C     C_R   0.052234 0.548787 0.310196 -0.187363
C65   C     C_R   0.405553 0.676899 0.015470 -0.165613
C66   C     C_R   0.570021 0.308121 0.035541 -0.190049
C67   C     C_R   0.598009 0.944551 0.336988 -0.133163
C68   C     C_R   0.431195 0.983448 0.679620 -0.196008
C69   C     C_R   0.332718 0.587120 0.960793 -0.107173
C70   C     C_R   0.673640 0.418640 0.008050 -0.176860
C71   C     C_R   0.971885 0.327615 0.596111 -0.129233
C72   C     C_R   0.069978 0.651751 0.397750 -0.211349
C73   C     C_R   0.731175 0.969389 0.340490 0.433093
C74   C     C_R   0.285675 0.001432 0.666006 0.463544
C75   C     C_R   0.021116 0.316210 0.721035 0.428630
C76   C     C_R   0.064179 0.634693 0.262064 0.470749
C77   C     C_R   0.326349 0.726187 0.984021 0.450610
C78   C     C_R   0.663690 0.270306 0.026923 0.459544
C79   C     C_R   0.691003 0.939888 0.301221 0.433465
C80   C     C_R   0.339377 0.989819 0.718840 0.471395
C81   C     C_R   0.292812 0.681762 0.952308 0.443643
C82   C     C_R   0.714701 0.325333 0.015038 0.445332
C83   C     C_R   0.979670 0.284394 0.685545 0.441709
C84   C     C_R   0.078606 0.683114 0.303624 0.388448
C85   C     C_R   0.550613 0.972828 0.415047 -0.044054
C86   C     C_R   0.466701 0.992001 0.587843 -0.040704
C87   C     C_R   0.002665 0.404767 0.545651 -0.032592
C88   C     C_R   0.046808 0.569730 0.447597 -0.041503
C89   C     C_R   0.408073 0.540081 0.995354 -0.025908
C90   C     C_R   0.581095 0.454651 0.018279 -0.042327
C91   C     C_R   0.594546 0.992575 0.457771 -0.055873
C92   C     C_R   0.416386 0.992513 0.538362 -0.040316
C93   C     C_R   0.449696 0.587216 0.011778 -0.057024
C94   C     C_R   0.532162 0.402442 0.021852 -0.049559
C95   C     C_R   0.027103 0.446524 0.587222 -0.039066
C96   C     C_R   0.034754 0.520640 0.403969 -0.053733
C97   C     C_R   0.458865 0.980001 0.452811 0.086070
C98   C     C_R   0.553288 0.999755 0.545160 0.082423
C99   C     C_R   0.008000 0.441392 0.453495 0.082605
C100  C     C_R   0.043448 0.532023 0.539539 0.080007
C101  C     C_R   0.446687 0.446086 0.006887 0.090287
C102  C     C_R   0.537959 0.544878 0.020502 0.083294
O25   O     O_3   0.250551 0.025675 0.244570 -0.594270
C103  C     C_3   0.226647 0.964498 0.225352 -0.029003
H1    H     H_    0.257027 0.891241 0.258272 0.211391
H2    H     H_    0.244435 0.976976 0.151980 0.161641
H3    H     H_    0.152684 0.981951 0.242216 0.185267
O26   O     O_3   0.712378 0.094263 0.715448 -0.571217
C104  C     C_3   0.662353 0.186754 0.705514 -0.090187
H4    H     H_    0.670664 0.226637 0.633283 0.192812
H5    H     H_    0.687118 0.214951 0.737357 0.219168
H6    H     H_    0.589777 0.195575 0.739985 0.099709
O27   O     O_3   0.894048 0.294296 0.286963 -0.565397
C105  C     C_3   0.804052 0.349272 0.293605 -0.153793
H7    H     H_    0.799975 0.420336 0.250123 0.082359
H8    H     H_    0.766367 0.348656 0.364327 0.182667
H9    H     H_    0.770469 0.322020 0.269910 0.215035
O28   O     O_3   0.095627 0.716805 0.719863 -0.600491
C106  C     C_3   0.183281 0.724925 0.676785 -0.117721
H10   H     H_    0.187222 0.777692 0.610448 0.126971
H11   H     H_    0.233454 0.659349 0.667659 0.223851
H12   H     H_    0.201661 0.746845 0.719107 0.209711
O29   O     O_3   0.232880 0.251440 0.073471 -0.550720
C107  C     C_3   0.208875 0.207015 0.034491 -0.094466
H13   H     H_    0.231113 0.227163 0.959654 0.165548
H14   H     H_    0.134710 0.222736 0.055067 0.168108
H15   H     H_    0.235395 0.132351 0.062312 0.166790
O30   O     O_3   0.712581 0.707583 0.104166 -0.554695
C108  C     C_3   0.716344 0.649690 0.191938 -0.102444
H16   H     H_    0.649813 0.639836 0.234344 0.183220
H17   H     H_    0.737721 0.680763 0.224013 0.218934
H18   H     H_    0.766856 0.582403 0.191148 0.073062
O31   O     O_3   0.301045 0.986485 0.808242 -0.558172
C109  C     C_3   0.270881 0.075620 0.814703 -0.184310
H19   H     H_    0.219192 0.121182 0.777233 0.202896
H20   H     H_    0.327635 0.104518 0.790582 0.153710
H21   H     H_    0.239333 0.073102 0.886387 0.162449
O32   O     O_3   0.743706 0.902468 0.231398 -0.599234
C110  C     C_3   0.783502 0.965072 0.156333 -0.081553
H22   H     H_    0.856180 0.944576 0.150986 0.159129
H23   H     H_    0.752664 0.037122 0.157533 0.204483
H24   H     H_    0.777137 0.962217 0.094596 0.172981
O33   O     O_3   0.094443 0.764843 0.251032 -0.604367
C111  C     C_3   0.185427 0.746989 0.202860 -0.115599
H25   H     H_    0.202986 0.706114 0.157475 0.147924
H26   H     H_    0.230719 0.711449 0.248146 0.211367
H27   H     H_    0.196366 0.813654 0.162331 0.214581
O34   O     O_3   0.942495 0.214331 0.741002 -0.628523
C112  C     C_3   0.009067 0.129921 0.742280 -0.087645
H28   H     H_    0.978927 0.075310 0.791651 0.145037
H29   H     H_    0.065817 0.123979 0.764152 0.214308
H30   H     H_    0.032862 0.117817 0.675848 0.218642
O35   O     O_3   0.805088 0.287641 0.010062 -0.649725
C113  C     C_3   0.815515 0.245807 0.097930 -0.200299
H31   H     H_    0.789225 0.186036 0.132119 0.223122
H32   H     H_    0.782515 0.294965 0.137872 0.157831
H33   H     H_    0.888138 0.220884 0.094224 0.174766
O36   O     O_3   0.228528 0.733717 0.904488 -0.623081
C114  C     C_3   0.147100 0.711007 0.949626 -0.280106
H34   H     H_    0.130828 0.689218 0.905381 0.230656
H35   H     H_    0.092122 0.772910 0.961603 0.141977
H36   H     H_    0.147011 0.656894 0.015121 0.223062
O37   O     O_3   0.196871 0.004074 0.706801 -0.626906
C115  C     C_3   0.188097 0.918608 0.723108 -0.298630
H37   H     H_    0.238875 0.861639 0.756454 0.236504
H38   H     H_    0.193131 0.909283 0.659755 0.167215
H39   H     H_    0.120723 0.915686 0.768578 0.177128
O38   O     O_3   0.822591 0.957903 0.309947 -0.587746
C116  C     C_3   0.866459 0.874168 0.363614 -0.231152
H40   H     H_    0.855503 0.815920 0.357965 0.148358
H41   H     H_    0.845046 0.872773 0.435184 0.150692
H42   H     H_    0.939508 0.865546 0.339336 0.238573
O39   O     O_3   0.707859 0.182006 0.022812 -0.610182
C117  C     C_3   0.729065 0.181955 0.933443 -0.208436
H43   H     H_    0.773348 0.225447 0.886741 0.206746
H44   H     H_    0.667388 0.204184 0.911173 0.154473
H45   H     H_    0.766114 0.111382 0.929846 0.176978
O40   O     O_3   0.297604 0.820556 0.966291 -0.507282
C118  C     C_3   0.203654 0.860247 0.981391 -0.105119
H46   H     H_    0.164446 0.813526 0.031955 0.125190
H47   H     H_    0.184894 0.888037 0.917089 0.220769
H48   H     H_    0.183983 0.918894 0.006638 0.151069
O41   O     O_3   0.059813 0.673939 0.173676 -0.611527
C119  C     C_3   0.968953 0.718221 0.173054 -0.265006
H49   H     H_    0.938845 0.772849 0.206375 0.189573
H50   H     H_    0.929041 0.669088 0.205243 0.163150
H51   H     H_    0.965102 0.750787 0.102370 0.167951
O42   O     O_3   0.048954 0.260107 0.797745 -0.638573
C120  C     C_3   0.977071 0.270540 0.874036 -0.066831
H52   H     H_    0.917819 0.258834 0.872223 0.226532
H53   H     H_    0.959430 0.338527 0.882087 0.215385
H54   H     H_    0.998709 0.218824 0.934076 0.141594
N1    N     N_R   0.498684 0.884106 0.805521 0.252012
O43   O     O_R   0.572023 0.846805 0.831932 -0.417956
O44   O     O_R   0.447161 0.833585 0.830175 -0.322806
N2    N     N_R   0.594271 0.848028 0.259404 0.197707
O45   O     O_R   0.562539 0.779157 0.292076 -0.444780
O46   O     O_R   0.651997 0.858349 0.181075 -0.312745
N3    N     N_R   0.141338 0.756953 0.394350 0.209552
O47   O     O_R   0.112127 0.837599 0.341776 -0.403350
O48   O     O_R   0.216840 0.735368 0.412770 -0.416448
N4    N     N_R   0.859249 0.263156 0.605858 0.208618
O49   O     O_R   0.780769 0.316959 0.594931 -0.445773
O50   O     O_R   0.867215 0.179107 0.655336 -0.349628
N5    N     N_R   0.792533 0.486289 0.898960 0.233827
O51   O     O_R   0.818930 0.559090 0.858326 -0.397102
O52   O     O_R   0.809593 0.434323 0.850938 -0.419783
N6    N     N_R   0.290177 0.579191 0.840124 0.203990
O53   O     O_R   0.262999 0.537835 0.809585 -0.435740
O54   O     O_R   0.329590 0.640156 0.781889 -0.386470
N7    N     N_R   0.195834 0.111479 0.510790 0.236041
O55   O     O_R   0.167563 0.153646 0.438432 -0.379081
O56   O     O_R   0.171963 0.157515 0.566543 -0.415587
N8    N     N_R   0.752214 0.116971 0.389040 0.246662
O57   O     O_R   0.743362 0.182444 0.417094 -0.441704
O58   O     O_R   0.782222 0.127398 0.303207 -0.395272
N9    N     N_R   0.516444 0.172211 0.128450 0.233120
O59   O     O_R   0.442478 0.151367 0.177411 -0.399367
O60   O     O_R   0.585505 0.130649 0.161680 -0.392104
N10   N     N_R   0.385228 0.764717 0.112343 0.165407
O61   O     O_R   0.396624 0.736949 0.192322 -0.425834
O62   O     O_R   0.332933 0.846148 0.085181 -0.418740
N11   N     N_R   0.131901 0.472907 0.190589 0.234679
O63   O     O_R   0.158822 0.394853 0.175423 -0.369534
O64   O     O_R   0.187790 0.521019 0.153146 -0.416893
N12   N     N_R   0.144535 0.386575 0.753733 0.222192
O65   O     O_R   0.222682 0.400855 0.716063 -0.377074
O66   O     O_R   0.129969 0.332406 0.835176 -0.392945

loop_
_geom_bond_atom_site_label_1
_geom_bond_atom_site_label_2
_geom_bond_distance
_ccdc_geom_bond_type
C24   C31   1.448968 S    
C2    C32   1.431777 A    
O39   C117  1.410404 S    
C1    C49   1.427896 A    
O9    C21   1.246287 A    
C68   C80   1.410429 A    
C93   C102  1.405370 A    
C71   C83   1.417997 A    
C110  H22   1.109704 S    
C51   N9    1.448431 S    
C71   C87   1.410921 A    
C115  H38   1.109270 S    
N1    O43   1.302038 A    
O13   Zn1   2.083773 S    
C4    C54   1.426634 A    
O12   C24   1.246562 A    
C1    C31   1.424455 A    
C89   C93   1.407013 A    
C103  H3    1.107002 S    
O4    Zn4   2.061443 S    
O34   C112  1.406851 S    
C27   C99   1.415934 A    
O24   Zn1   2.060233 S    
O42   C120  1.404211 S    
C2    C26   1.403287 A    
O41   C119  1.410672 S    
C113  H31   1.111646 S    
O6    Zn6   2.081569 S    
C15   C40   1.444738 S    
O18   Zn6   2.060151 S    
O16   C22   1.278035 A    
C81   O36   1.388353 S    
O21   C15   1.271355 A    
C16   C39   1.469720 S    
C86   C92   1.398005 A    
C53   N11   1.449720 S    
C85   C91   1.409529 A    
C40   C59   1.397051 A    
C75   C83   1.421791 A    
C109  H19   1.113137 S    
O23   C13   1.297409 A    
C7    C37   1.428550 A    
C78   O39   1.382539 S    
O2    Zn2   2.041647 S    
C106  H11   1.112353 S    
N11   O63   1.301416 A    
O1    C13   1.240231 A    
C104  H6    1.112640 S    
C119  H50   1.113160 S    
C115  H39   1.109213 S    
C120  H53   1.110284 S    
C20   C35   1.448063 S    
N10   O62   1.299026 A    
O27   C105  1.411345 S    
C47   N5    1.449755 S    
C118  H48   1.109237 S    
C85   C97   1.405220 A    
N8    O57   1.301209 A    
C47   C70   1.415883 A    
C45   N3    1.438687 S    
N7    O55   1.301896 A    
C35   C59   1.375758 A    
C92   C97   1.404112 A    
C114  H35   1.108644 S    
C111  H25   1.110752 S    
C63   C75   1.420992 A    
O11   C23   1.247199 A    
C95   C100  1.415976 A    
C84   O33   1.369629 S    
O4    C16   1.238460 A    
C113  H32   1.112375 S    
O40   C118  1.413301 S    
N12   O66   1.299032 A    
C46   N4    1.434711 S    
C116  H42   1.107385 S    
C89   C101  1.404948 A    
N5    O51   1.302133 A    
C108  H17   1.108690 S    
O38   C116  1.410350 S    
C70   C90   1.396573 A    
O7    C19   1.236644 A    
C67   C85   1.410988 A    
C87   C99   1.402955 A    
O13   C23   1.287316 A    
C50   N8    1.447535 S    
C107  H14   1.109825 S    
C72   C88   1.417103 A    
O14   C24   1.275455 A    
C112  H30   1.110126 S    
O15   C21   1.288352 A    
C12   C27   1.403144 A    
N9    O60   1.299481 A    
C83   O34   1.383356 S    
C66   C78   1.418342 A    
O3    C15   1.246409 A    
C116  H40   1.113147 S    
C48   N6    1.441843 S    
O5    Zn5   2.081569 S    
C13   C42   1.466602 S    
C117  H43   1.113298 S    
C3    C33   1.431735 A    
O18   C20   1.292677 A    
C17   C38   1.442673 S    
C105  H9    1.107141 S    
C6    C52   1.443186 A    
C38   C55   1.404446 A    
C82   O35   1.378498 S    
C63   C95   1.410704 A    
C64   C96   1.401335 A    
C43   C68   1.412661 A    
C25   C97   1.403383 A    
O12   Zn1   2.082617 S    
N6    O54   1.301854 A    
C21   C34   1.473596 S    
C32   C56   1.390582 A    
C66   C94   1.404315 A    
O32   C110  1.415767 S    
C7    C43   1.421335 A    
O9    Zn4   2.060610 S    
C10   C48   1.422232 A    
C107  H15   1.107052 S    
C105  H8    1.114222 S    
O26   C104  1.411721 S    
C106  H12   1.104247 S    
C11   C45   1.427669 A    
O7    Zn6   2.041421 S    
N11   O64   1.300867 A    
C51   C66   1.421005 A    
C6    C30   1.402713 A    
C119  H49   1.112911 S    
C12   C46   1.425302 A    
C3    C53   1.414187 A    
C96   C99   1.405249 A    
N10   O61   1.301488 A    
O33   C111  1.405955 S    
C53   C64   1.411273 A    
C69   C89   1.402579 A    
C59   O29   1.397544 S    
C33   C57   1.389279 A    
C94   C101  1.399483 A    
C34   C58   1.389523 A    
O36   C114  1.415481 S    
N7    O56   1.301036 A    
C73   O38   1.383857 S    
C31   C55   1.381481 A    
C114  H36   1.111366 S    
O35   C113  1.407423 S    
C54   N12   1.443614 S    
N3    O47   1.299684 A    
C72   C84   1.424501 A    
C79   O32   1.384667 S    
C62   C92   1.397237 A    
C45   C72   1.433572 A    
C8    C25   1.403386 A    
C67   C79   1.431188 A    
O2    C14   1.245563 A    
C62   C74   1.417855 A    
C68   C86   1.398356 A    
C108  H16   1.113426 S    
O22   Zn3   2.080717 S    
C117  H45   1.109281 S    
C74   O37   1.379723 S    
C69   C81   1.423809 A    
N12   O65   1.301243 A    
N4    O50   1.299686 A    
C118  H46   1.108517 S    
C58   O28   1.386115 S    
C108  H18   1.108618 S    
C8    C44   1.435050 A    
C4    C34   1.434347 A    
O28   C106  1.412878 S    
C18   C37   1.467334 S    
C107  H13   1.115038 S    
C77   O40   1.394862 S    
C103  H1    1.114311 S    
C65   C77   1.431623 A    
O21   Zn4   2.080719 S    
C91   C98   1.400640 A    
C1    C25   1.410358 A    
C10   C29   1.403686 A    
C19   C36   1.462200 S    
C6    C36   1.445481 A    
O19   Zn6   2.081899 S    
C76   C84   1.403453 A    
C75   O42   1.380793 S    
C3    C27   1.409796 A    
C2    C50   1.432015 A    
C22   C33   1.459732 S    
N5    O52   1.301420 A    
O25   C103  1.426453 S    
C110  H24   1.109364 S    
O22   C16   1.289831 A    
C74   C80   1.412066 A    
C26   C98   1.407177 A    
C86   C98   1.394443 A    
C5    C29   1.403059 A    
O10   C22   1.245235 A    
C120  H52   1.109104 S    
C43   N1    1.446899 S    
C12   C42   1.438451 A    
O11   Zn2   2.082617 S    
C104  H4    1.112835 S    
C41   C58   1.391309 A    
C49   C62   1.412432 A    
C110  H23   1.113382 S    
C65   C93   1.400932 A    
C46   C71   1.429540 A    
C76   O41   1.383612 S    
O5    C17   1.252910 A    
N6    O53   1.300637 A    
C64   C76   1.395484 A    
O8    Zn5   2.041419 S    
C52   C65   1.432099 A    
O19   C17   1.271790 A    
O3    Zn3   2.061443 S    
C90   C102  1.401010 A    
C77   C81   1.437415 A    
C52   N10   1.438583 S    
C109  H21   1.109463 S    
C111  H27   1.099313 S    
C29   C101  1.402882 A    
O8    C20   1.255413 A    
C61   C73   1.410721 A    
C105  H7    1.110460 S    
C119  H51   1.108672 S    
O15   Zn3   2.078923 S    
C103  H2    1.105738 S    
C80   O31   1.381796 S    
N1    O44   1.299085 A    
C88   C100  1.406455 A    
C70   C82   1.409691 A    
C4    C28   1.408498 A    
O1    Zn1   2.041647 S    
C36   C60   1.387080 A    
C112  H28   1.109160 S    
C30   C102  1.409742 A    
N2    O46   1.299765 A    
C113  H33   1.109128 S    
C9    C30   1.415229 A    
C73   C79   1.425316 A    
O14   Zn2   2.083773 S    
O20   Zn5   2.081899 S    
C11   C41   1.441392 A    
C50   C61   1.421062 A    
O24   C14   1.294937 A    
C5    C35   1.425272 A    
C28   C100  1.414078 A    
C44   N2    1.437769 S    
C106  H10   1.109653 S    
C120  H54   1.109079 S    
C117  H44   1.112772 S    
C104  H5    1.108655 S    
C7    C26   1.409895 A    
C11   C28   1.413986 A    
O30   C108  1.414425 S    
O23   Zn2   2.060231 S    
C42   C57   1.380127 A    
C39   C60   1.389538 A    
C109  H20   1.113061 S    
N4    O49   1.300184 A    
C118  H47   1.109221 S    
N8    O58   1.299395 A    
C115  H37   1.112830 S    
C5    C51   1.427567 A    
C54   C63   1.427065 A    
C49   N7    1.451324 S    
C8    C38   1.437966 A    
C114  H34   1.108525 S    
C111  H26   1.111651 S    
C9    C39   1.438090 A    
O31   C109  1.410104 S    
C37   C56   1.396236 A    
C56   O26   1.384392 S    
C10   C40   1.432140 A    
O16   Zn4   2.078923 S    
O10   Zn3   2.060610 S    
C78   C82   1.415226 A    
C57   O27   1.384605 S    
C60   O30   1.386460 S    
N3    O48   1.301379 A    
N2    O45   1.300693 A    
C61   C91   1.392594 A    
C9    C47   1.424977 A    
C48   C69   1.426800 A    
C116  H41   1.112989 S    
O20   C18   1.281297 A    
C23   C32   1.466178 S    
C88   C96   1.417518 A    
C112  H29   1.109119 S    
O29   C107  1.415831 S    
C14   C41   1.483620 S    
C87   C95   1.418806 A    
O17   C19   1.297316 A    
C44   C67   1.434791 A    
C90   C94   1.401940 A    
N9    O59   1.301593 A    
C55   O25   1.407466 S    
O37   C115  1.408646 S    
O17   Zn5   2.060150 S    
O6    C18   1.251136 A    
