data_mof_unit_38006.cif
_audit_creation_date              2012-10-26T19:25:57-0400
_audit_creation_method            fapswitch 2.2
_symmetry_space_group_name_H-M    P1
_symmetry_Int_Tables_number       1
_space_group_crystal_system       triclinic
_cell_length_a                    14.950677
_cell_length_b                    13.86542
_cell_length_c                    11.717881
_cell_angle_alpha                 90.5365
_cell_angle_beta                  89.237644
_cell_angle_gamma                 90.165966
_cell_volume                      2428.75561834

loop_
_atom_site_label
_atom_site_type_symbol
_atom_type_description
_atom_site_fract_x
_atom_site_fract_y
_atom_site_fract_z
_atom_type_partial_charge
C1    C     C_R   0.329133 0.499952 0.499980 0.510499
C2    C     C_R   0.518093 0.202994 0.401242 0.362462
C3    C     C_R   0.535351 0.793689 0.407578 0.362122
C4    C     C_R   0.471620 0.205630 0.595638 0.373851
C5    C     C_R   0.534624 0.896166 0.405431 -0.013083
C6    C     C_R   0.485835 0.103508 0.602836 -0.025945
C7    C     C_R   0.485256 0.897731 0.602440 -0.010710
C8    C     C_R   0.530343 0.101556 0.404237 -0.010451
C9    C     C_R   0.511306 0.948320 0.504509 -0.025445
C10   C     C_R   0.511232 0.051359 0.504624 -0.023053
C11   C     C_R   0.557414 0.947742 0.306327 -0.147655
C12   C     C_R   0.670759 0.500145 0.500970 0.518180
C13   C     C_R   0.472314 0.051722 0.704797 -0.156670
C14   C     C_R   0.470253 0.950526 0.704144 -0.142320
C15   C     C_R   0.556289 0.048648 0.306099 -0.147425
C16   C     C_R   0.500192 0.499694 0.284126 0.529640
C17   C     C_R   0.499668 0.500351 0.715881 0.539572
C18   C     C_1   0.500079 0.499316 0.162380 -0.022354
C19   C     C_1   0.499496 0.500892 0.837631 -0.007580
C20   C     C_1   0.499819 0.499723 0.059922 -0.043655
C21   C     C_1   0.499544 0.500520 0.940101 -0.037872
C22   C     C_R   0.813582 0.486821 0.399479 -0.141218
C23   C     C_R   0.906908 0.481828 0.398787 -0.027695
C24   C     C_R   0.186102 0.522731 0.600477 -0.149744
C25   C     C_R   0.766950 0.500388 0.501521 -0.017688
C26   C     C_R   0.232735 0.499835 0.500412 -0.027373
C27   C     C_R   0.811485 0.512795 0.604024 -0.125265
C28   C     C_R   0.187814 0.475356 0.401273 -0.137778
C29   C     C_R   0.905027 0.514534 0.605399 -0.026461
C30   C     C_R   0.094518 0.480804 0.398667 -0.023021
C31   C     C_R   0.952969 0.497685 0.502159 -0.055265
C32   C     C_R   0.046659 0.497262 0.502078 -0.054928
C33   C     C_3   0.869085 0.646803 0.806753 0.013570
C34   C     C_R   0.092868 0.514770 0.604962 -0.021386
C35   C     C_3   0.914965 0.710987 0.894762 -0.257930
C36   C     C_3   0.876107 0.812643 0.896576 -0.498418
C37   C     C_3   0.131307 0.554758 0.161954 -0.003730
C38   C     C_3   0.062137 0.622743 0.111289 -0.249557
C39   C     C_3   0.105020 0.719342 0.080475 -0.493589
C40   C     C_3   0.132243 0.455049 0.847061 -0.007335
C41   C     C_3   0.068894 0.384676 0.907227 -0.237761
C42   C     C_3   0.121642 0.303541 0.962704 -0.486110
C43   C     C_3   0.870163 0.349818 0.199812 0.010138
C44   C     C_3   0.923322 0.277505 0.127574 -0.258764
C45   C     C_R   0.951340 0.532230 0.707924 0.284423
C46   C     C_3   0.882072 0.176817 0.133076 -0.492455
C47   C     C_3   0.344347 0.735634 0.676048 0.039677
C48   C     C_3   0.290990 0.803253 0.755196 -0.308064
C49   C     C_3   0.191944 0.776098 0.758136 -0.488548
C50   C     C_3   0.421472 0.250411 0.262083 0.032170
C51   C     C_3   0.389102 0.159125 0.200013 -0.301220
C52   C     C_3   0.298024 0.175122 0.145925 -0.491053
C53   C     C_3   0.661630 0.725400 0.325944 0.043225
C54   C     C_3   0.717794 0.777874 0.235471 -0.300121
C55   C     C_3   0.813201 0.738639 0.229449 -0.488433
C56   C     C_R   0.048329 0.470319 0.294835 0.286866
C57   C     C_3   0.335824 0.217448 0.695628 -0.018982
C58   C     C_3   0.270258 0.267924 0.617471 -0.250026
C59   C     C_3   0.176424 0.224641 0.625371 -0.502879
C60   C     C_R   0.044891 0.525706 0.709292 0.286198
C61   C     C_R   0.954880 0.462535 0.296446 0.277365
C62   C     C_R   0.473468 0.795933 0.596096 0.358937
Cu1   Cu    Cu3+1 0.500000 0.597420 0.500000 0.990708
Cu2   Cu    Cu3+1 0.500000 0.402580 0.500000 1.008622
H1    H     H_    0.776234 0.479773 0.321231 0.125343
H2    H     H_    0.873317 0.682494 0.721661 0.111259
H3    H     H_    0.905732 0.679070 0.980687 0.175490
H4    H     H_    0.987551 0.715005 0.873702 0.189443
H5    H     H_    0.885286 0.846923 0.811906 0.149342
H6    H     H_    0.911034 0.857190 0.961502 0.137629
H7    H     H_    0.803701 0.810356 0.919021 0.153211
H8    H     H_    0.184923 0.541611 0.097329 0.142284
H9    H     H_    0.164265 0.591707 0.234843 0.122999
H10   H     H_    0.033552 0.589003 0.033740 0.223390
H11   H     H_    0.007122 0.636005 0.174092 0.164346
H12   H     H_    0.223349 0.542455 0.675658 0.108459
H13   H     H_    0.137328 0.752237 0.156329 0.145764
H14   H     H_    0.053234 0.769992 0.050730 0.137998
H15   H     H_    0.155956 0.709112 0.011619 0.160862
H16   H     H_    0.185480 0.477315 0.907008 0.145052
H17   H     H_    0.166405 0.415769 0.776213 0.113812
H18   H     H_    0.028869 0.423381 0.973486 0.237304
H19   H     H_    0.022333 0.353045 0.843800 0.152747
H20   H     H_    0.173520 0.274412 0.903432 0.124989
H21   H     H_    0.076246 0.243384 0.986118 0.137961
H22   H     H_    0.155062 0.330795 0.040668 0.188749
H23   H     H_    0.772426 0.520901 0.681985 0.133603
H24   H     H_    0.802055 0.356115 0.163822 0.154443
H25   H     H_    0.861528 0.320551 0.287784 0.121760
H26   H     H_    0.924115 0.301409 0.037454 0.175972
H27   H     H_    0.992967 0.274506 0.159230 0.184043
H28   H     H_    0.882053 0.150053 0.222139 0.148775
H29   H     H_    0.921881 0.126460 0.078603 0.140815
H30   H     H_    0.812327 0.177991 0.101583 0.156401
H31   H     H_    0.329441 0.660436 0.701397 0.164260
H32   H     H_    0.320740 0.744304 0.586618 0.133649
H33   H     H_    0.317677 0.799486 0.843134 0.172863
H34   H     H_    0.226263 0.455863 0.325433 0.124880
H35   H     H_    0.297529 0.878512 0.724584 0.152223
H36   H     H_    0.163679 0.778683 0.671020 0.152641
H37   H     H_    0.154668 0.827538 0.814094 0.142720
H38   H     H_    0.183075 0.702421 0.792720 0.187417
H39   H     H_    0.416036 0.310962 0.201239 0.162713
H40   H     H_    0.375481 0.268141 0.335046 0.129246
H41   H     H_    0.438001 0.138753 0.131797 0.170774
H42   H     H_    0.382577 0.098938 0.261397 0.158633
H43   H     H_    0.247734 0.196306 0.212131 0.149383
H44   H     H_    0.275375 0.107408 0.103842 0.146998
H45   H     H_    0.573623 0.910526 0.227237 0.145927
H46   H     H_    0.302744 0.232465 0.080505 0.145759
H47   H     H_    0.671075 0.646882 0.311196 0.176583
H48   H     H_    0.688316 0.743297 0.412300 0.124761
H49   H     H_    0.686574 0.768842 0.150442 0.178378
H50   H     H_    0.720988 0.855943 0.256888 0.150939
H51   H     H_    0.845552 0.745480 0.313962 0.149216
H52   H     H_    0.853083 0.780216 0.166130 0.145751
H53   H     H_    0.812907 0.661553 0.202626 0.167912
H54   H     H_    0.314599 0.231059 0.785517 0.134283
H55   H     H_    0.328761 0.138671 0.681343 0.114434
H56   H     H_    0.459068 0.089390 0.784602 0.134694
H57   H     H_    0.266813 0.344747 0.643115 0.180164
H58   H     H_    0.293871 0.260906 0.527587 0.176769
H59   H     H_    0.177232 0.148259 0.596007 0.144733
H60   H     H_    0.130785 0.265902 0.570086 0.158505
H61   H     H_    0.150266 0.228220 0.714196 0.144617
H62   H     H_    0.455611 0.913960 0.783462 0.147358
H63   H     H_    0.573914 0.085094 0.227615 0.148191
H64   H     H_    0.796944 0.641458 0.829997 0.145796
N1    N     N_R   0.500000 0.743810 0.500000 -0.235806
N2    N     N_R   0.500000 0.256190 0.500000 -0.231796
O1    O     O_R   0.370260 0.582280 0.500020 -0.515212
O2    O     O_3   0.093223 0.464032 0.190686 -0.581730
O3    O     O_3   0.087625 0.539963 0.812594 -0.585910
O4    O     O_3   0.911395 0.442215 0.195053 -0.563852
O5    O     O_3   0.437487 0.749700 0.689987 -0.551796
O6    O     O_3   0.512858 0.244459 0.294682 -0.552282
O7    O     O_3   0.569161 0.744985 0.312866 -0.550115
O8    O     O_3   0.424742 0.254052 0.681919 -0.533613
O9    O     O_R   0.629740 0.417720 0.499980 -0.484490
O10   O     O_R   0.629740 0.582280 0.499980 -0.526307
O11   O     O_R   0.370260 0.417720 0.500020 -0.517684
O12   O     O_R   0.500010 0.582270 0.337200 -0.448613
O13   O     O_R   0.499990 0.417730 0.662800 -0.440415
O14   O     O_R   0.499990 0.582270 0.662800 -0.455388
O15   O     O_R   0.500010 0.417730 0.337200 -0.468166
O16   O     O_3   0.906001 0.552561 0.809341 -0.555449

loop_
_geom_bond_atom_site_label_1
_geom_bond_atom_site_label_2
_ccdc_geom_bond_type
C45   C60   A    
C50   H40   S    
C35   H3    S    
Cu2   O15   S    
C11   H45   S    
Cu1   O10   S    
C35   C36   S    
C7    C62   A    
C53   C54   S    
C48   H33   S    
C43   H25   S    
C17   O14   A    
C53   O7    S    
C43   H24   S    
C39   H13   S    
C19   C21   T    
C24   C26   A    
C5    C11   A    
C55   H53   S    
C38   C39   S    
C46   H28   S    
C55   H52   S    
C41   H19   S    
C54   H49   S    
C27   C29   A    
C41   C42   S    
C2    N2    A    
C11   C15   A    
C7    C14   A    
C31   C32   A    
C52   H43   S    
C44   C46   S    
C22   C25   A    
C61   O4    S    
Cu1   O14   S    
C40   H16   S    
C42   H22   S    
Cu1   O1    S    
C9    C10   A    
C36   H7    S    
C57   H55   S    
C53   H47   S    
C50   H39   S    
C15   H63   S    
C13   C14   A    
C34   C60   A    
C62   N1    A    
C36   H6    S    
C33   H2    S    
C38   H11   S    
C22   C23   A    
C59   H59   S    
C58   H58   S    
C45   O16   S    
C39   H14   S    
C42   H20   S    
C4    C6    A    
C47   H32   S    
C49   H38   S    
C24   H12   S    
C4    N2    A    
C1    O1    A    
C58   C59   S    
C30   C56   A    
C33   H64   S    
C2    O6    S    
C51   C52   S    
C29   C45   A    
C16   O15   A    
C32   C34   A    
C62   O5    S    
C43   O4    S    
C16   O12   A    
C43   C44   S    
C22   H1    S    
C5    C9    A    
C37   C38   S    
C47   C48   S    
C46   H30   S    
C52   H46   S    
C51   H41   S    
C12   O10   A    
C50   C51   S    
C12   O9    A    
C42   H21   S    
C27   H23   S    
C56   O2    S    
C44   H27   S    
C3    O7    S    
C53   H48   S    
C16   C18   S    
C40   C41   S    
Cu2   N2    S    
C8    C15   A    
C1    C26   S    
C59   H61   S    
C17   C19   S    
C13   H56   S    
C44   H26   S    
C36   H5    S    
C38   H10   S    
C28   H34   S    
C59   H60   S    
C7    C9    A    
C48   H35   S    
C37   H9    S    
C54   C55   S    
C48   C49   S    
C58   H57   S    
C47   O5    S    
C3    N1    A    
C40   H17   S    
C2    C8    A    
C3    C5    A    
C6    C10   A    
Cu2   O13   S    
C25   C27   A    
C40   O3    S    
C26   C28   A    
C14   H62   S    
C37   O2    S    
C12   C25   S    
C17   O13   A    
C28   C30   A    
C29   C31   A    
C50   O6    S    
C49   H36   S    
C30   C32   A    
C57   C58   S    
C46   H29   S    
C55   H51   S    
C35   H4    S    
C51   H42   S    
C41   H18   S    
C54   H50   S    
C33   C35   S    
Cu1   O12   S    
C57   O8    S    
C18   C20   T    
Cu1   N1    S    
C24   C34   A    
C1    O11   A    
C33   O16   S    
C4    O8    S    
Cu1   Cu2   S    
C23   C61   A    
C20   C21   S    
C52   H44   S    
C8    C10   A    
Cu2   O11   S    
C37   H8    S    
C47   H31   S    
C56   C61   A    
C60   O3    S    
Cu2   O9    S    
C49   H37   S    
C39   H15   S    
C57   H54   S    
C6    C13   A    
C23   C31   A    
