data_mof_unit_7584.cif
_audit_creation_date              2013-03-05T16:11:03-0500
_audit_creation_method            fapswitch 2.2
_symmetry_space_group_name_H-M    P1
_symmetry_Int_Tables_number       1
_space_group_crystal_system       triclinic
_cell_length_a                    10.805047
_cell_length_b                    9.427932
_cell_length_c                    10.670087
_cell_angle_alpha                 89.572869
_cell_angle_beta                  87.709457
_cell_angle_gamma                 90.649766
_cell_volume                      1085.98141659

loop_
_atom_site_label
_atom_site_type_symbol
_atom_site_description
_atom_site_fract_x
_atom_site_fract_y
_atom_site_fract_z
_atom_type_partial_charge
O1    O     O_R   0.317570 0.620260 0.500070 -0.600288
O2    O     O_R   0.317570 0.379740 0.500070 -0.587052
C1    C     C_R   0.260213 0.499131 0.512676 0.922636
O3    O     O_R   0.499850 0.620240 0.316900 -0.582861
O4    O     O_R   0.499850 0.379760 0.316900 -0.594616
C2    C     C_R   0.502190 0.500522 0.259277 0.882190
Cu1   Cu    Cu3+1 0.499860 0.642410 0.500060 0.973930
Cu2   Cu    Cu3+1 0.499860 0.357590 0.500060 0.962039
O5    O     O_R   0.682190 0.620260 0.500030 -0.564554
O6    O     O_R   0.682190 0.379740 0.500030 -0.598756
O7    O     O_R   0.499910 0.620280 0.683200 -0.593541
O8    O     O_R   0.499910 0.379720 0.683200 -0.585954
C3    C     C_R   0.740360 0.500835 0.496071 0.892890
C4    C     C_R   0.498045 0.499464 0.740698 0.899805
C5    C     C_3   0.394290 0.557054 0.047534 -0.186771
C6    C     C_3   0.509340 0.366138 0.042319 -0.204414
C7    C     C_3   0.401184 0.422050 0.965709 -0.048856
H1    H     H_    0.320061 0.357362 0.940310 0.223298
H2    H     H_    0.308116 0.603608 0.088826 0.184750
H3    H     H_    0.517488 0.256207 0.078881 0.172661
C8    C     C_3   0.496427 0.498685 0.877324 -0.057745
C9    C     C_3   0.488899 0.634081 0.956539 -0.198259
C10   C     C_3   0.604463 0.442226 0.951330 -0.211043
C11   C     C_3   0.594661 0.575722 0.032034 0.374376
C12   C     C_3   0.502360 0.501174 0.122476 -0.102435
H4    H     H_    0.481786 0.744247 0.920190 0.160998
H5    H     H_    0.690903 0.396265 0.910023 0.188295
C13   C     C_3   0.064602 0.628934 0.587698 0.301488
C14   C     C_3   0.062776 0.352881 0.562305 0.315864
H6    H     H_    0.088722 0.724640 0.529507 0.131889
H7    H     H_    0.097915 0.269210 0.497341 0.129280
C15   C     C_3   0.922178 0.616524 0.591359 -0.444820
C16   C     C_3   0.921073 0.356726 0.551329 -0.454857
H8    H     H_    0.884847 0.585881 0.686310 0.230645
H9    H     H_    0.872247 0.336853 0.643783 0.216387
H10   H     H_    0.883225 0.722639 0.572879 0.208102
H11   H     H_    0.892227 0.267648 0.490969 0.206710
H12   H     H_    0.134068 0.612595 0.337075 0.197289
H13   H     H_    0.129944 0.428501 0.319928 0.219499
C17   C     C_3   0.087500 0.515069 0.376486 -0.628518
C18   C     C_3   0.122202 0.498156 0.516018 -0.191639
C19   C     C_3   0.878895 0.501998 0.497596 -0.177433
C20   C     C_3   0.943642 0.523519 0.362167 0.579829
C21   C     C_3   0.614364 0.084737 0.556158 -0.190668
C22   C     C_3   0.612962 0.917390 0.558930 -0.193049
H14   H     H_    0.625547 0.125901 0.652529 0.153457
H15   H     H_    0.619546 0.878798 0.657205 0.150771
H16   H     H_    0.697258 0.120947 0.499233 0.178119
H17   H     H_    0.697206 0.880307 0.507140 0.207736
H18   H     H_    0.398648 0.116943 0.677456 0.186674
H19   H     H_    0.392593 0.872098 0.673892 0.180864
C23   C     C_3   0.394154 0.081415 0.578669 -0.144413
C24   C     C_3   0.392729 0.914109 0.576294 -0.161939
C25   C     C_3   0.492696 0.084416 0.374389 -0.200896
C26   C     C_3   0.494825 0.917489 0.374306 -0.181378
N1    N     N_3   0.500250 0.143650 0.502780 -0.153363
N2    N     N_3   0.500250 0.856350 0.502780 -0.158890
H20   H     H_    0.406537 0.121225 0.331217 0.150849
H21   H     H_    0.411273 0.876302 0.328209 0.150050
H22   H     H_    0.571621 0.125354 0.313867 0.186906
H23   H     H_    0.576451 0.882393 0.316852 0.226706
H24   H     H_    0.305329 0.119991 0.542993 0.190939
H25   H     H_    0.304978 0.877829 0.535448 0.191741
N3    N     N_R   0.918710 0.662136 0.302912 0.140781
O9    O     O_R   0.972548 0.693368 0.194734 -0.248856
O10   O     O_R   0.845527 0.755255 0.354308 -0.371697
N4    N     N_R   0.899501 0.411358 0.277892 0.133481
O11   O     O_R   0.960753 0.294731 0.258893 -0.362846
O12   O     O_R   0.791187 0.422425 0.229896 -0.341741
N5    N     N_R   0.701021 0.661568 0.064320 0.161129
O13   O     O_R   0.808833 0.635552 0.011723 -0.232006
O14   O     O_R   0.684848 0.778389 0.126307 -0.341509
S1    S     S_3+6 0.122335 0.673844 0.740225 0.040022
O15   O     O_2   0.026145 0.649517 0.843935 -0.170988
O16   O     O_2   0.235661 0.591439 0.768752 -0.291955
O17   O     O_3   0.159253 0.847113 0.738708 -0.556313
H26   H     H_    0.195096 0.864893 0.821244 0.368397
S2    S     S_3+6 0.099258 0.289325 0.716075 0.003430
O18   O     O_2   0.235383 0.300126 0.736117 -0.321932
O19   O     O_2   0.029339 0.368879 0.817016 -0.214907
O20   O     O_3   0.055502 0.117975 0.725670 -0.519698
H27   H     H_    0.050345 0.095786 0.816636 0.396552

loop_
_geom_bond_atom_site_label_1
_geom_bond_atom_site_label_2
_geom_bond_distance
_ccdc_geom_bond_type
C26   H21   1.112706 S    
S1    O15   1.502076 D    
Cu2   N1    2.017059 S    
O20   H27   0.990622 S    
C11   N5    1.452289 S    
Cu1   Cu2   2.685263 S    
C25   H22   1.112674 S    
C21   C22   1.577686 S    
Cu1   O7    1.963702 S    
C22   N2    1.490257 S    
C16   C19   1.560639 S    
C15   H10   1.109123 S    
C4    C8    1.457179 S    
C5    C9    1.551897 S    
O1    C1    1.296658 A    
O4    C2    1.289413 A    
O7    C4    1.289305 A    
S2    O19   1.501058 D    
C5    C12   1.537137 S    
C2    C12   1.459581 S    
C14   C16   1.541050 S    
C13   C18   1.576690 S    
C5    C7    1.549632 S    
O5    C3    1.295840 A    
C17   C20   1.570808 S    
C14   S2    1.802459 S    
C6    C7    1.547800 S    
H18   C23   1.111124 S    
C10   C11   1.532543 S    
N5    O13   1.299395 A    
C10   H5    1.110622 S    
C6    H3    1.110363 S    
C8    C9    1.537348 S    
S1    O16   1.497818 D    
O3    Cu1   1.967031 S    
C13   S1    1.817283 S    
C3    C19   1.497533 S    
C21   H14   1.112395 S    
C20   N3    1.479704 S    
C22   H15   1.112597 S    
C25   N1    1.488147 S    
N4    O11   1.302782 A    
C13   C15   1.540931 S    
C11   C12   1.522155 S    
O3    C2    1.289329 A    
H13   C17   1.111003 S    
C24   N2    1.486411 S    
S2    O18   1.497177 D    
C16   H11   1.111488 S    
N4    O12   1.301046 A    
C15   H8    1.110374 S    
C5    H2    1.110450 S    
C21   N1    1.490018 S    
C22   H17   1.107282 S    
Cu2   O8    1.966794 S    
C7    H1    1.105910 S    
O17   H26   0.990780 S    
C20   N4    1.480299 S    
C17   C18   1.557253 S    
O8    C4    1.288858 A    
C6    C10   1.551355 S    
C26   N2    1.486693 S    
S1    O17   1.676972 S    
C9    C11   1.529298 S    
C19   C20   1.590690 S    
C23   C24   1.577651 S    
C25   H20   1.112892 S    
C6    C12   1.539885 S    
Cu1   O5    1.983462 S    
C25   C26   1.574213 S    
C1    C18   1.490144 S    
C14   C18   1.573774 S    
O1    Cu1   1.978330 S    
O2    Cu2   1.983040 S    
O6    C3    1.296589 A    
O4    Cu2   1.963933 S    
N3    O9    1.301847 A    
C8    C10   1.533313 S    
O2    C1    1.296375 A    
C14   H7    1.113930 S    
C23   H24   1.110574 S    
H12   C17   1.114570 S    
C24   H25   1.110780 S    
S2    O20   1.679318 S    
C26   H23   1.108878 S    
C13   H6    1.113989 S    
C16   H9    1.113558 S    
C7    C8    1.538142 S    
C23   N1    1.489150 S    
Cu2   O6    1.978752 S    
C9    H4    1.110540 S    
C15   C19   1.558058 S    
N5    O14   1.298852 A    
H19   C24   1.111330 S    
Cu1   N2    2.017396 S    
C21   H16   1.110936 S    
N3    O10   1.298087 A    
