data_mof_unit_53151.cif
_audit_creation_date              2013-03-05T16:05:38-0500
_audit_creation_method            fapswitch 2.2
_symmetry_space_group_name_H-M    P1
_symmetry_Int_Tables_number       1
_space_group_crystal_system       triclinic
_cell_length_a                    15.853828
_cell_length_b                    10.883467
_cell_length_c                    9.660072
_cell_angle_alpha                 88.447646
_cell_angle_beta                  89.668042
_cell_angle_gamma                 93.631962
_cell_volume                      1662.78809736

loop_
_atom_site_label
_atom_site_type_symbol
_atom_site_description
_atom_site_fract_x
_atom_site_fract_y
_atom_site_fract_z
_atom_type_partial_charge
O1    O     O_R   0.500000 0.319660 0.618740 -0.519180
O2    O     O_R   0.500000 0.680340 0.381260 -0.536869
O3    O     O_R   0.499990 0.319630 0.381170 -0.592807
O4    O     O_R   0.500010 0.680370 0.618830 -0.561634
C1    C     C_R   0.504809 0.262866 0.502151 0.851159
C2    C     C_R   0.494007 0.737056 0.498555 0.853633
O5    O     O_R   0.379080 0.500000 0.618760 -0.544237
O6    O     O_R   0.620920 0.500000 0.381240 -0.535463
O7    O     O_R   0.379080 0.499970 0.381190 -0.618164
O8    O     O_R   0.620920 0.500030 0.618810 -0.574629
C3    C     C_R   0.340190 0.499622 0.500359 0.801962
C4    C     C_R   0.659752 0.499556 0.499612 0.829491
Cu1   Cu    Cu3+1 0.500000 0.500020 0.640660 1.019110
Cu2   Cu    Cu3+1 0.500000 0.499980 0.359340 1.005726
C5    C     C_3   0.966463 0.417655 0.598429 -0.268010
C6    C     C_3   0.033185 0.577514 0.401347 -0.269341
C7    C     C_3   0.023013 0.384492 0.475156 -0.048497
C8    C     C_3   0.976665 0.610665 0.524615 -0.055780
H1    H     H_    0.938754 0.352225 0.679054 0.182633
H2    H     H_    0.060851 0.642979 0.320721 0.184226
C9    C     C_1   0.250615 0.499218 0.501297 -0.068634
C10   C     C_1   0.749211 0.497956 0.498493 -0.087196
C11   C     C_3   0.027566 0.531508 0.624165 -0.053938
C12   C     C_3   0.972086 0.463653 0.375597 -0.047460
C13   C     C_3   0.083387 0.497393 0.502097 0.042514
C14   C     C_3   0.916290 0.497779 0.497676 0.044160
C15   C     C_1   0.175094 0.498574 0.501927 0.112889
C16   C     C_1   0.824653 0.497324 0.497825 0.095099
C17   C     C_R   0.531814 0.068247 0.385979 -0.154488
C18   C     C_R   0.471815 0.931376 0.622288 -0.114280
C19   C     C_R   0.507695 0.942619 0.375199 0.210797
C20   C     C_R   0.487680 0.058875 0.628746 0.198156
C21   C     C_R   0.487319 0.871845 0.497109 -0.185316
C22   C     C_R   0.510590 0.128206 0.507225 -0.178731
C23   C     C_R   0.442721 0.425054 0.076334 0.301441
C24   C     C_R   0.561237 0.567648 0.922198 0.267265
C25   C     C_R   0.438401 0.434199 0.929007 -0.015762
C26   C     C_R   0.560605 0.568587 0.070847 -0.015799
N1    N     N_R   0.500020 0.500030 0.852070 -0.228679
N2    N     N_R   0.499980 0.499970 0.147930 -0.246507
C27   C     C_2   0.047043 0.256213 0.448069 0.898877
O9    O     O_2   0.991730 0.174979 0.429900 -0.551826
O10   O     O_R   0.132127 0.229993 0.443808 -0.762878
H3    H     H_    0.140057 0.140292 0.424746 0.349014
C28   C     C_2   0.952692 0.738958 0.551826 0.889607
O11   O     O_2   0.008040 0.820115 0.570103 -0.554022
O12   O     O_R   0.867631 0.765274 0.556118 -0.774289
H4    H     H_    0.859736 0.854917 0.575516 0.352664
C29   C     C_2   0.943078 0.425824 0.234645 0.900402
O13   O     O_2   0.995326 0.404589 0.146373 -0.553500
O14   O     O_R   0.856880 0.414812 0.204810 -0.716228
H5    H     H_    0.845460 0.389166 0.106210 0.351478
C30   C     C_2   0.056493 0.569274 0.765160 0.908708
O15   O     O_2   0.004218 0.591284 0.853078 -0.567951
O16   O     O_R   0.142648 0.579266 0.795463 -0.704487
H6    H     H_    0.153996 0.605428 0.893902 0.363855
C31   C     C_2   0.593364 0.131991 0.286793 0.913816
O17   O     O_2   0.654793 0.191311 0.332294 -0.569063
O18   O     O_R   0.582251 0.127043 0.144175 -0.803397
H7    H     H_    0.630506 0.173348 0.091835 0.332208
C32   C     C_2   0.434422 0.862256 0.744639 0.872299
O19   O     O_2   0.365881 0.805024 0.734833 -0.568549
O20   O     O_R   0.478987 0.858716 0.868671 -0.791151
H8    H     H_    0.450955 0.798319 0.938771 0.327706
N3    N     N_2   0.494941 0.889684 0.243024 -0.364017
H9    H     H_    0.532989 0.921825 0.161875 0.328245
C33   C     C_3   0.407436 0.861841 0.205487 -0.617764
H10   H     H_    0.389315 0.925338 0.120368 0.221585
H11   H     H_    0.363305 0.870855 0.294083 0.220377
H12   H     H_    0.399793 0.765683 0.170009 0.239878
N4    N     N_2   0.486762 0.116990 0.758879 -0.368261
H13   H     H_    0.442609 0.081897 0.830471 0.275170
C34   C     C_3   0.569668 0.145549 0.816087 -0.548284
H14   H     H_    0.591262 0.064047 0.874207 0.251727
H15   H     H_    0.566363 0.224564 0.885498 0.220850
H16   H     H_    0.616937 0.173276 0.733696 0.214745
N5    N     N_2   0.387502 0.333846 0.146360 -0.411507
H17   H     H_    0.372755 0.341320 0.248108 0.310572
C35   C     C_3   0.392237 0.206603 0.108062 -0.649084
H18   H     H_    0.405980 0.148914 0.200694 0.239409
H19   H     H_    0.442486 0.195982 0.030234 0.250773
H20   H     H_    0.330580 0.172211 0.065504 0.241505
N6    N     N_2   0.620206 0.647405 0.845276 -0.387696
H21   H     H_    0.614587 0.739523 0.862676 0.272089
C36   C     C_3   0.707501 0.614784 0.843674 -0.564089
H22   H     H_    0.735977 0.640663 0.741113 0.242956
H23   H     H_    0.712536 0.514330 0.863250 0.231815
H24   H     H_    0.744876 0.667850 0.921162 0.231593
C37   C     C_2   0.360285 0.382330 0.864033 0.952056
O21   O     O_2   0.292601 0.422510 0.895083 -0.557295
O22   O     O_R   0.362318 0.285163 0.773320 -0.749920
H25   H     H_    0.304214 0.257655 0.738121 0.329381
C38   C     C_2   0.631222 0.635445 0.140343 0.912270
O23   O     O_2   0.624683 0.740750 0.176781 -0.600099
O24   O     O_R   0.707518 0.579341 0.157881 -0.736034
H26   H     H_    0.752117 0.634717 0.204276 0.344904

loop_
_geom_bond_atom_site_label_1
_geom_bond_atom_site_label_2
_geom_bond_distance
_ccdc_geom_bond_type
N5    H17   1.015598 S    
O16   H6    1.013833 S    
C38   O23   1.218454 D    
C27   O10   1.396950 S    
C27   O9    1.222053 D    
O24   H26   1.014077 S    
C8    C14   1.537719 S    
O7    Cu2   1.927407 S    
C28   O11   1.222043 D    
O5    C3    1.302480 A    
O1    C1    1.303468 A    
C23   C25   1.426325 A    
C12   C14   1.537665 S    
C31   O18   1.391992 S    
C24   N6    1.426121 S    
C4    C10   1.419460 S    
C12   C29   1.499549 S    
C19   N3    1.425180 S    
C34   H14   1.110386 S    
C28   O12   1.396870 S    
O4    Cu1   1.968429 S    
C32   O20   1.395348 S    
O12   H4    1.013772 S    
C29   O14   1.396636 S    
C19   C21   1.414017 A    
C37   O22   1.393362 S    
C6    H2    1.110413 S    
C5    C11   1.550167 S    
C9    C15   1.196854 T    
O18   H7    1.013779 S    
C6    C12   1.550222 S    
C26   N2    1.380794 A    
C10   C16   1.196484 T    
Cu1   Cu2   2.717583 S    
C17   C19   1.403003 A    
C34   H15   1.108340 S    
O2    C2    1.310729 A    
C11   C30   1.499358 S    
C20   N4    1.422876 S    
C30   O16   1.396677 S    
C7    C12   1.539911 S    
C36   H23   1.112399 S    
C8    C11   1.539600 S    
C35   H18   1.109742 S    
O4    C2    1.307472 A    
O22   H25   1.013912 S    
C35   H19   1.105749 S    
C5    C14   1.546369 S    
N3    C33   1.451339 S    
C36   H22   1.108285 S    
C17   C22   1.405549 A    
C23   N5    1.433877 S    
C33   H10   1.110547 S    
C33   H11   1.112609 S    
C20   C22   1.411265 A    
C5    H1    1.110412 S    
O10   H3    1.013810 S    
N6    H21   1.030337 S    
O5    Cu1   1.929889 S    
O6    C4    1.301848 A    
C1    C22   1.473727 S    
N5    C35   1.449448 S    
O7    C3    1.302543 A    
O3    Cu2   1.968431 S    
O8    C4    1.302845 A    
N6    C36   1.450500 S    
C17   C31   1.489600 S    
C29   O13   1.222051 D    
C34   H16   1.112439 S    
O1    Cu1   1.980025 S    
C8    C28   1.499687 S    
N4    C34   1.447603 S    
C36   H24   1.109126 S    
C6    C13   1.546600 S    
C5    C7    1.550494 S    
O6    Cu2   1.929888 S    
C18   C21   1.414791 A    
C24   N1    1.373521 A    
O3    C1    1.311951 A    
O8    Cu1   1.927407 S    
C35   H20   1.109633 S    
C30   O15   1.222102 D    
C13   C15   1.453140 S    
C14   C16   1.452491 S    
C2    C21   1.477178 S    
C25   C37   1.478501 S    
C33   H12   1.109607 S    
C7    C13   1.537829 S    
C24   C26   1.436259 A    
C23   N2    1.382477 A    
O14   H5    1.013860 S    
C25   N1    1.376257 A    
C18   C20   1.397622 A    
C31   O17   1.224380 D    
C38   O24   1.398198 S    
C26   C38   1.471569 S    
C3    C9    1.419803 S    
C11   C13   1.537780 S    
C32   O19   1.223255 D    
O2    Cu2   1.980024 S    
C7    C27   1.499587 S    
Cu1   N1    2.042241 S    
Cu2   N2    2.042241 S    
O20   H8    1.011697 S    
N4    H13   1.029728 S    
C6    C8    1.550142 S    
N3    H9    1.026482 S    
C18   C32   1.483742 S    
C37   O21   1.222898 D    
