data_mof_unit_64838.cif
_audit_creation_date              2012-12-10T17:33:05-0500
_audit_creation_method            fapswitch 2.2
_symmetry_space_group_name_H-M    P1
_symmetry_Int_Tables_number       1
_space_group_crystal_system       triclinic
_cell_length_a                    30.189994
_cell_length_b                    30.189994
_cell_length_c                    23.507349
_cell_angle_alpha                 89.999945
_cell_angle_beta                  90.000096
_cell_angle_gamma                 90.0
_cell_volume                      21425.4379776

loop_
_atom_site_label
_atom_site_type_symbol
_atom_type_description
_atom_site_fract_x
_atom_site_fract_y
_atom_site_fract_z
_atom_type_partial_charge
C1    C     C_R   0.586579 0.000000 0.500000 1.086228
C2    C     C_R   0.971312 0.727157 0.596779 -0.072646
C3    C     C_1   1.000000 0.500000 0.279651 0.062369
C4    C     C_1   1.000000 0.500000 0.220349 0.062369
C5    C     C_1   0.500000 1.000000 0.220349 0.062369
C6    C     C_1   0.000000 0.500000 0.779651 0.062369
C7    C     C_1   0.500000 1.000000 0.779651 0.062369
C8    C     C_R   0.842174 0.985440 0.451798 -0.242833
C9    C     C_R   0.014560 0.842174 0.451798 -0.242831
C10   C     C_R   0.157825 0.014560 0.451798 -0.242832
C11   C     C_R   0.985440 0.157825 0.451798 -0.242832
C12   C     C_R   0.157826 0.985440 0.548202 -0.242832
C13   C     C_R   0.272843 0.971312 0.596779 -0.072645
C14   C     C_R   0.985440 0.842174 0.548202 -0.242832
C15   C     C_R   0.842175 0.014560 0.548202 -0.242832
C16   C     C_R   0.014560 0.157825 0.548202 -0.242832
C17   C     C_R   0.342174 0.485440 0.951798 -0.242833
C18   C     C_R   0.514560 0.342174 0.951798 -0.242832
C19   C     C_R   0.657825 0.514560 0.951798 -0.242832
C20   C     C_R   0.485440 0.657825 0.951798 -0.242831
C21   C     C_R   0.657826 0.485440 0.048202 -0.242832
C22   C     C_R   0.485440 0.342174 0.048202 -0.242831
C23   C     C_R   0.342174 0.514560 0.048202 -0.242832
C24   C     C_R   0.028688 0.272842 0.596779 -0.072645
C25   C     C_R   0.514560 0.657825 0.048202 -0.242831
C26   C     C_R   0.865042 1.000000 0.500000 -0.081507
C27   C     C_R   0.000000 0.865042 0.500000 -0.081508
C28   C     C_R   0.134958 0.000000 0.500000 -0.081507
C29   C     C_R   1.000000 0.134958 0.500000 -0.081507
C30   C     C_R   0.365042 0.500000 1.000000 -0.081507
C31   C     C_R   0.500000 0.365042 0.000000 -0.081508
C32   C     C_R   0.634958 0.500000 0.000000 -0.081507
C33   C     C_R   0.500000 0.634958 1.000000 -0.081507
C34   C     C_R   0.796165 0.014720 0.548455 0.117575
C35   C     C_R   0.272842 0.028688 0.403221 -0.072646
C36   C     C_R   0.985280 0.796165 0.548455 0.117575
C37   C     C_R   0.203835 0.985280 0.548455 0.117575
C38   C     C_R   0.014720 0.203835 0.548455 0.117575
C39   C     C_R   0.203835 0.014720 0.451545 0.117575
C40   C     C_R   0.014720 0.796165 0.451545 0.117575
C41   C     C_R   0.796165 0.985280 0.451545 0.117575
C42   C     C_R   0.985280 0.203835 0.451545 0.117575
C43   C     C_R   0.296165 0.514720 0.048455 0.117575
C44   C     C_R   0.485280 0.296165 0.048455 0.117575
C45   C     C_R   0.703835 0.485280 0.048455 0.117575
C46   C     C_R   0.028687 0.727157 0.403221 -0.072645
C47   C     C_R   0.514720 0.703835 0.048455 0.117575
C48   C     C_R   0.703835 0.514720 0.951545 0.117575
C49   C     C_R   0.514720 0.296165 0.951545 0.117575
C50   C     C_R   0.296165 0.485280 0.951545 0.117575
C51   C     C_R   0.485280 0.703835 0.951545 0.117575
C52   C     C_R   0.772904 1.000000 0.500000 0.125114
C53   C     C_R   0.000000 0.772904 0.500000 0.125114
C54   C     C_R   0.227096 0.000000 0.500000 0.125114
C55   C     C_R   1.000000 0.227096 0.500000 0.125114
C56   C     C_R   0.272904 0.500000 1.000000 0.125114
C57   C     C_R   0.727157 0.971312 0.403221 -0.072646
C58   C     C_R   0.500000 0.272904 0.000000 0.125114
C59   C     C_R   0.727096 0.500000 0.000000 0.125114
C60   C     C_R   0.500000 0.727096 1.000000 0.125114
C61   C     C_R   0.773129 0.029985 0.596007 -0.225323
C62   C     C_R   0.970016 0.773129 0.596007 -0.225323
C63   C     C_R   0.226871 0.970015 0.596007 -0.225323
C64   C     C_R   0.029985 0.226871 0.596007 -0.225324
C65   C     C_R   0.226871 0.029985 0.403993 -0.225324
C66   C     C_R   0.029984 0.773129 0.403993 -0.225324
C67   C     C_R   0.773129 0.970015 0.403993 -0.225323
C68   C     C_R   0.971312 0.272843 0.403221 -0.072647
C69   C     C_R   0.970015 0.226871 0.403993 -0.225324
C70   C     C_R   0.273129 0.529985 0.096007 -0.225323
C71   C     C_R   0.470015 0.273129 0.096007 -0.225323
C72   C     C_R   0.726871 0.470015 0.096007 -0.225323
C73   C     C_R   0.529985 0.726871 0.096007 -0.225324
C74   C     C_R   0.726871 0.529985 0.903993 -0.225324
C75   C     C_R   0.529984 0.273129 0.903993 -0.225323
C76   C     C_R   0.273129 0.470015 0.903993 -0.225323
C77   C     C_R   0.470015 0.726871 0.903993 -0.225324
C78   C     C_R   0.227157 0.528688 0.096779 -0.072646
C79   C     C_R   0.471312 0.227157 0.096779 -0.072646
C80   C     C_R   0.772843 0.471312 0.096779 -0.072646
C81   C     C_R   0.000000 0.586579 0.500000 1.086228
C82   C     C_R   0.528688 0.772842 0.096779 -0.072646
C83   C     C_R   0.772842 0.528688 0.903221 -0.072646
C84   C     C_R   0.528687 0.227157 0.903221 -0.072646
C85   C     C_R   0.227157 0.471312 0.903221 -0.072646
C86   C     C_R   0.471312 0.772843 0.903221 -0.072646
C87   C     C_R   0.703354 0.011550 0.550207 -0.013595
C88   C     C_R   0.988450 0.703354 0.550207 -0.013595
C89   C     C_R   0.296646 0.988450 0.550207 -0.013595
C90   C     C_R   0.011550 0.296646 0.550207 -0.013595
C91   C     C_R   0.296646 0.011550 0.449793 -0.013595
C92   C     C_R   0.413421 0.000000 0.500000 1.086229
C93   C     C_R   0.011550 0.703354 0.449793 -0.013595
C94   C     C_R   0.703354 0.988450 0.449793 -0.013595
C95   C     C_R   0.988449 0.296646 0.449793 -0.013594
C96   C     C_R   0.203354 0.511550 0.050207 -0.013595
C97   C     C_R   0.488450 0.203354 0.050207 -0.013595
C98   C     C_R   0.796646 0.488450 0.050207 -0.013595
C99   C     C_R   0.511550 0.796646 0.050207 -0.013595
C100  C     C_R   0.796646 0.511550 0.949793 -0.013595
C101  C     C_R   0.511550 0.203354 0.949793 -0.013595
C102  C     C_R   0.203354 0.488450 0.949793 -0.013595
C103  C     C_R   0.000000 0.413421 0.500000 1.086229
C104  C     C_R   0.488449 0.796646 0.949793 -0.013595
C105  C     C_R   0.726444 1.000000 0.500000 -0.053920
C106  C     C_R   0.000000 0.726444 0.500000 -0.053920
C107  C     C_R   0.273556 0.000000 0.500000 -0.053920
C108  C     C_R   1.000000 0.273556 0.500000 -0.053920
C109  C     C_R   0.226444 0.500000 1.000000 -0.053920
C110  C     C_R   0.500000 0.226444 0.000000 -0.053919
C111  C     C_R   0.773556 0.500000 0.000000 -0.053920
C112  C     C_R   0.500000 0.773556 1.000000 -0.053920
C113  C     C_R   0.657268 0.005451 0.552007 0.330645
C114  C     C_R   0.086579 0.500000 1.000000 1.086228
C115  C     C_R   0.994549 0.657268 0.552007 0.330645
C116  C     C_R   0.342732 0.994549 0.552007 0.330645
C117  C     C_R   0.005451 0.342732 0.552007 0.330644
C118  C     C_R   0.342732 0.005451 0.447993 0.330645
C119  C     C_R   0.005451 0.657268 0.447993 0.330645
C120  C     C_R   0.657267 0.994549 0.447993 0.330645
C121  C     C_R   0.994549 0.342732 0.447993 0.330644
C122  C     C_R   0.157268 0.505451 0.052007 0.330645
C123  C     C_R   0.494549 0.157267 0.052007 0.330645
C124  C     C_R   0.842732 0.494549 0.052007 0.330645
C125  C     C_R   0.500000 0.086579 0.000000 1.086228
C126  C     C_R   0.505451 0.842732 0.052007 0.330644
C127  C     C_R   0.842732 0.505451 0.947993 0.330645
C128  C     C_R   0.505451 0.157268 0.947993 0.330645
C129  C     C_R   0.157267 0.494549 0.947993 0.330645
C130  C     C_R   0.494549 0.842732 0.947993 0.330644
C131  C     C_R   0.634466 0.000000 0.500000 -0.310536
C132  C     C_R   0.000000 0.634466 0.500000 -0.310536
C133  C     C_R   0.365534 0.000000 0.500000 -0.310536
C134  C     C_R   0.000000 0.365534 0.500000 -0.310535
C135  C     C_R   0.134466 0.500000 1.000000 -0.310536
C136  C     C_R   0.913421 0.500000 0.000000 1.086229
C137  C     C_R   0.500000 0.134466 0.000000 -0.310536
C138  C     C_R   0.865534 0.500000 0.000000 -0.310536
C139  C     C_R   0.500000 0.865534 1.000000 -0.310535
C140  C     C_R   1.000000 0.912931 0.500000 0.906346
C141  C     C_R   0.087068 0.000000 0.500000 0.906345
C142  C     C_R   0.000000 0.087068 0.500000 0.906345
C143  C     C_R   0.912931 1.000000 0.500000 0.906346
C144  C     C_R   0.500000 0.412931 0.000000 0.906346
C145  C     C_R   0.587068 0.500000 0.000000 0.906345
C146  C     C_R   0.500000 0.587068 1.000000 0.906345
C147  C     C_R   0.500000 0.913421 0.000000 1.086229
C148  C     C_R   0.412931 0.500000 1.000000 0.906346
C149  C     C_R   0.500000 1.000000 0.609269 1.007150
C150  C     C_R   0.000000 0.500000 0.609269 1.007150
C151  C     C_R   0.500000 0.000000 0.390731 1.007150
C152  C     C_R   1.000000 0.500000 0.390731 1.007151
C153  C     C_R   0.000000 0.500000 0.109269 1.007150
C154  C     C_R   0.500000 0.000000 0.109269 1.007150
C155  C     C_R   0.000000 0.500000 0.890731 1.007150
C156  C     C_R   0.500000 0.000000 0.890731 1.007150
C157  C     C_1   0.500000 1.000000 0.669537 -0.082034
C158  C     C_R   0.727158 0.028688 0.596779 -0.072646
C159  C     C_1   0.000000 0.500000 0.669537 -0.082034
C160  C     C_1   0.500000 0.000000 0.330463 -0.082034
C161  C     C_1   1.000000 0.500000 0.330463 -0.082034
C162  C     C_1   1.000000 0.500000 0.169537 -0.082034
C163  C     C_1   0.500000 1.000000 0.169537 -0.082035
C164  C     C_1   0.000000 0.500000 0.830463 -0.082034
C165  C     C_1   0.500000 0.000000 0.830463 -0.082034
C166  C     C_1   0.500000 1.000000 0.720349 0.062369
C167  C     C_1   1.000000 0.500000 0.720349 0.062369
C168  C     C_1   0.500000 1.000000 0.279651 0.062369
H1    H     H_    0.860182 0.973872 0.414730 0.166366
H2    H     H_    0.526128 0.360182 0.914730 0.166366
H3    H     H_    0.639817 0.526128 0.914730 0.166366
H4    H     H_    0.473872 0.639817 0.914730 0.166366
H5    H     H_    0.639818 0.473872 0.085270 0.166366
H6    H     H_    0.473872 0.360182 0.085270 0.166366
H7    H     H_    0.360182 0.526128 0.085270 0.166366
H8    H     H_    0.526128 0.639817 0.085270 0.166366
H9    H     H_    0.790660 0.042882 0.632680 0.161787
H10   H     H_    0.957118 0.790660 0.632680 0.161787
H11   H     H_    0.209340 0.957117 0.632680 0.161787
H12   H     H_    0.026128 0.860182 0.414730 0.166366
H13   H     H_    0.042883 0.209340 0.632680 0.161787
H14   H     H_    0.209340 0.042883 0.367320 0.161787
H15   H     H_    0.042882 0.790660 0.367320 0.161787
H16   H     H_    0.790660 0.957117 0.367320 0.161787
H17   H     H_    0.957117 0.209340 0.367320 0.161787
H18   H     H_    0.290660 0.542882 0.132680 0.161787
H19   H     H_    0.457118 0.290660 0.132680 0.161787
H20   H     H_    0.709340 0.457117 0.132680 0.161787
H21   H     H_    0.542883 0.709340 0.132680 0.161787
H22   H     H_    0.709340 0.542883 0.867320 0.161787
H23   H     H_    0.139817 0.026128 0.414730 0.166366
H24   H     H_    0.542882 0.290660 0.867320 0.161787
H25   H     H_    0.290660 0.457118 0.867320 0.161787
H26   H     H_    0.457117 0.709340 0.867320 0.161787
H27   H     H_    0.710685 0.042774 0.633290 0.213436
H28   H     H_    0.957226 0.710685 0.633290 0.213436
H29   H     H_    0.289315 0.957226 0.633290 0.213436
H30   H     H_    0.042775 0.289315 0.633290 0.213436
H31   H     H_    0.289315 0.042774 0.366710 0.213436
H32   H     H_    0.042774 0.710685 0.366710 0.213436
H33   H     H_    0.710685 0.957226 0.366709 0.213436
H34   H     H_    0.973872 0.139818 0.414730 0.166366
H35   H     H_    0.957225 0.289315 0.366710 0.213436
H36   H     H_    0.210685 0.542774 0.133290 0.213436
H37   H     H_    0.457226 0.210685 0.133291 0.213436
H38   H     H_    0.789315 0.457226 0.133291 0.213436
H39   H     H_    0.542775 0.789315 0.133290 0.213436
H40   H     H_    0.789315 0.542774 0.866710 0.213436
H41   H     H_    0.542774 0.210685 0.866710 0.213436
H42   H     H_    0.210685 0.457226 0.866709 0.213436
H43   H     H_    0.457225 0.789315 0.866710 0.213436
H44   H     H_    0.584328 0.950657 0.653427 0.381872
H45   H     H_    0.139818 0.973872 0.585270 0.166366
H46   H     H_    0.049343 0.584328 0.653427 0.381872
H47   H     H_    0.415672 0.049343 0.653427 0.381873
H48   H     H_    0.950657 0.415672 0.653427 0.381872
H49   H     H_    0.415672 0.950657 0.346573 0.381872
H50   H     H_    0.950657 0.584328 0.346573 0.381873
H51   H     H_    0.584328 0.049343 0.346573 0.381872
H52   H     H_    0.049343 0.415672 0.346573 0.381872
H53   H     H_    0.084328 0.450657 0.153427 0.381872
H54   H     H_    0.549343 0.084328 0.153427 0.381872
H55   H     H_    0.915672 0.549343 0.153427 0.381873
H56   H     H_    0.973872 0.860182 0.585270 0.166366
H57   H     H_    0.450657 0.915672 0.153427 0.381872
H58   H     H_    0.915672 0.450657 0.846573 0.381872
H59   H     H_    0.450657 0.084328 0.846573 0.381872
H60   H     H_    0.084328 0.549343 0.846573 0.381872
H61   H     H_    0.549343 0.915672 0.846573 0.381872
H62   H     H_    0.860182 0.026128 0.585270 0.166366
H63   H     H_    0.026128 0.139817 0.585269 0.166366
H64   H     H_    0.360182 0.473872 0.914730 0.166366
O1    O     O_R   0.566060 0.037360 0.500050 -0.584900
O2    O     O_R   0.462640 0.066060 0.000050 -0.584900
O3    O     O_R   0.933940 0.462640 0.000050 -0.584899
O4    O     O_R   0.537360 0.933940 0.000050 -0.584900
O5    O     O_R   0.933940 0.537360 0.999950 -0.584900
O6    O     O_R   0.537360 0.066060 0.999950 -0.584900
O7    O     O_R   0.066060 0.462640 0.999950 -0.584900
O8    O     O_R   0.462640 0.933940 0.999950 -0.584900
O9    O     O_R   0.499980 0.037350 0.582800 -0.594321
O10   O     O_R   0.962650 0.499980 0.582800 -0.594321
O11   O     O_R   0.500020 0.962650 0.582800 -0.594321
O12   O     O_R   0.962640 0.566060 0.500050 -0.584900
O13   O     O_R   0.037350 0.500020 0.582800 -0.594321
O14   O     O_R   0.500020 0.037350 0.417200 -0.594321
O15   O     O_R   0.037350 0.499980 0.417200 -0.594321
O16   O     O_R   0.499980 0.962650 0.417200 -0.594321
O17   O     O_R   0.962650 0.500020 0.417200 -0.594321
O18   O     O_R   0.999980 0.537350 0.082800 -0.594321
O19   O     O_R   0.462650 0.999980 0.082800 -0.594321
O20   O     O_R   0.000020 0.462650 0.082800 -0.594321
O21   O     O_R   0.537350 0.000020 0.082800 -0.594321
O22   O     O_R   0.000020 0.537350 0.917200 -0.594321
O23   O     O_R   0.433940 0.962640 0.500050 -0.584900
O24   O     O_R   0.537350 0.999980 0.917200 -0.594321
O25   O     O_R   0.999980 0.462650 0.917200 -0.594321
O26   O     O_R   0.462650 0.000020 0.917200 -0.594321
O27   O     O_R   0.999980 0.933940 0.546750 -0.625502
O28   O     O_R   0.066060 0.999980 0.546750 -0.625502
O29   O     O_R   0.000020 0.066060 0.546750 -0.625502
O30   O     O_R   0.933940 0.000020 0.546750 -0.625502
O31   O     O_R   0.000020 0.933940 0.453250 -0.625502
O32   O     O_R   0.933940 0.999980 0.453250 -0.625502
O33   O     O_R   0.999980 0.066060 0.453250 -0.625502
O34   O     O_R   0.037360 0.433940 0.500050 -0.584900
O35   O     O_R   0.066060 0.000020 0.453250 -0.625502
O36   O     O_R   0.499980 0.433940 0.046750 -0.625502
O37   O     O_R   0.566060 0.499980 0.046750 -0.625502
O38   O     O_R   0.500020 0.566060 0.046750 -0.625502
O39   O     O_R   0.433940 0.500020 0.046750 -0.625502
O40   O     O_R   0.500020 0.433940 0.953250 -0.625502
O41   O     O_R   0.433940 0.499980 0.953250 -0.625502
O42   O     O_R   0.499980 0.566060 0.953250 -0.625502
O43   O     O_R   0.566060 0.500020 0.953250 -0.625502
O44   O     O_2   0.659169 0.990470 0.666841 -0.296173
O45   O     O_R   0.433940 0.037360 0.499950 -0.584900
O46   O     O_2   0.603276 0.042047 0.629999 -0.298946
O47   O     O_3   0.592562 0.957565 0.613615 -0.563347
O48   O     O_2   0.009530 0.659168 0.666841 -0.296173
O49   O     O_2   0.957954 0.603276 0.629999 -0.298946
O50   O     O_3   0.042435 0.592562 0.613615 -0.563347
O51   O     O_2   0.340832 0.009530 0.666841 -0.296173
O52   O     O_2   0.396724 0.957954 0.629999 -0.298946
O53   O     O_3   0.407438 0.042435 0.613615 -0.563347
O54   O     O_2   0.990471 0.340831 0.666841 -0.296173
O55   O     O_2   0.042047 0.396724 0.629998 -0.298945
O56   O     O_R   0.037360 0.566060 0.499950 -0.584900
O57   O     O_3   0.957566 0.407438 0.613615 -0.563347
O58   O     O_2   0.340831 0.990470 0.333159 -0.296173
O59   O     O_2   0.396724 0.042047 0.370001 -0.298945
O60   O     O_3   0.407438 0.957566 0.386385 -0.563346
O61   O     O_2   0.990470 0.659169 0.333159 -0.296173
O62   O     O_2   0.042046 0.603276 0.370001 -0.298946
O63   O     O_3   0.957565 0.592562 0.386385 -0.563347
O64   O     O_2   0.659168 0.009530 0.333159 -0.296173
O65   O     O_2   0.603276 0.957954 0.370001 -0.298946
O66   O     O_3   0.592562 0.042435 0.386385 -0.563347
O67   O     O_R   0.566060 0.962640 0.499950 -0.584900
O68   O     O_2   0.009529 0.340831 0.333159 -0.296173
O69   O     O_2   0.957953 0.396724 0.370002 -0.298945
O70   O     O_3   0.042434 0.407438 0.386385 -0.563347
O71   O     O_2   0.159169 0.490470 0.166841 -0.296173
O72   O     O_2   0.103276 0.542046 0.129998 -0.298946
O73   O     O_3   0.092562 0.457565 0.113615 -0.563346
O74   O     O_2   0.509530 0.159169 0.166841 -0.296173
O75   O     O_2   0.457954 0.103276 0.129999 -0.298946
O76   O     O_3   0.542435 0.092562 0.113615 -0.563347
O77   O     O_2   0.840831 0.509530 0.166841 -0.296173
O78   O     O_R   0.962640 0.433940 0.499950 -0.584900
O79   O     O_2   0.896724 0.457954 0.129999 -0.298945
O80   O     O_3   0.907438 0.542435 0.113615 -0.563347
O81   O     O_2   0.490471 0.840831 0.166841 -0.296173
O82   O     O_2   0.542047 0.896724 0.129998 -0.298945
O83   O     O_3   0.457566 0.907438 0.113615 -0.563347
O84   O     O_2   0.840831 0.490470 0.833159 -0.296173
O85   O     O_2   0.896724 0.542047 0.870001 -0.298945
O86   O     O_3   0.907438 0.457565 0.886385 -0.563347
O87   O     O_2   0.490470 0.159169 0.833159 -0.296173
O88   O     O_2   0.542046 0.103276 0.870001 -0.298946
O89   O     O_R   0.066060 0.537360 0.000050 -0.584900
O90   O     O_3   0.457565 0.092562 0.886385 -0.563347
O91   O     O_2   0.159168 0.509530 0.833159 -0.296173
O92   O     O_2   0.103276 0.457954 0.870001 -0.298946
O93   O     O_3   0.092562 0.542435 0.886385 -0.563347
O94   O     O_2   0.509529 0.840831 0.833159 -0.296173
O95   O     O_2   0.457953 0.896724 0.870001 -0.298945
O96   O     O_3   0.542434 0.907438 0.886385 -0.563347
S1    S     S_3+6 0.628343 0.000057 0.618134 0.008783
S2    S     S_3+6 0.499943 0.128343 0.118134 0.008783
S3    S     S_3+6 0.871657 0.499943 0.118134 0.008783
S4    S     S_3+6 0.500058 0.871657 0.118134 0.008783
S5    S     S_3+6 0.871657 0.500058 0.881866 0.008783
S6    S     S_3+6 0.500057 0.128343 0.881866 0.008783
S7    S     S_3+6 0.128343 0.499943 0.881866 0.008782
S8    S     S_3+6 0.499942 0.871657 0.881866 0.008783
S9    S     S_3+6 0.999943 0.628343 0.618134 0.008783
S10   S     S_3+6 0.371657 0.999942 0.618134 0.008783
S11   S     S_3+6 0.000058 0.371657 0.618134 0.008783
S12   S     S_3+6 0.371657 0.000058 0.381866 0.008783
S13   S     S_3+6 0.000057 0.628343 0.381866 0.008783
S14   S     S_3+6 0.628343 0.999943 0.381866 0.008782
S15   S     S_3+6 0.999942 0.371657 0.381866 0.008783
S16   S     S_3+6 0.128343 0.500057 0.118134 0.008783
Zn1   Zn    Zn3+2 0.500000 0.049860 0.500000 1.125663
Zn2   Zn    Zn3+2 1.000000 0.000000 0.437580 0.978734
Zn3   Zn    Zn3+2 0.500000 0.500000 0.062420 0.978734
Zn4   Zn    Zn3+2 0.500000 0.500000 0.937580 0.978734
Zn5   Zn    Zn3+2 0.950140 0.500000 0.500000 1.125663
Zn6   Zn    Zn3+2 0.500000 0.950140 0.500000 1.125663
Zn7   Zn    Zn3+2 0.049860 0.500000 0.500000 1.125663
Zn8   Zn    Zn3+2 0.000000 0.549860 0.000000 1.125663
Zn9   Zn    Zn3+2 0.450140 0.000000 0.000000 1.125663
Zn10  Zn    Zn3+2 1.000000 0.450140 0.000000 1.125663
Zn11  Zn    Zn3+2 0.549860 0.000000 0.000000 1.125663
Zn12  Zn    Zn3+2 0.000000 0.000000 0.562420 0.978734

loop_
_geom_bond_atom_site_label_1
_geom_bond_atom_site_label_2
_ccdc_geom_bond_type
C150  O13   A    
C61   H9    S    
C100  C127  A    
C8    C26   A    
C92   C133  S    
C142  O33   A    
C74   C83   A    
C41   C67   A    
C147  O8    A    
C54   C107  A    
C141  O35   A    
O61   S13   D    
C145  O43   A    
O6    Zn11  S    
O22   Zn8   S    
C115  S9    S    
C136  O3    A    
C101  C128  A    
O55   S11   D    
C152  O17   A    
C36   C53   A    
C74   H22   S    
C53   C106  A    
C38   C55   A    
O26   Zn9   S    
C78   C96   A    
C140  O31   A    
C59   C111  A    
O75   S2    D    
O19   Zn9   S    
O68   S15   D    
C115  C132  A    
H60   O93   S    
C24   H30   S    
O18   Zn8   S    
C17   C30   A    
C39   C65   A    
O47   S1    S    
C36   C62   A    
C19   C32   A    
C121  S15   S    
O95   S8    D    
C37   C63   A    
C119  S13   S    
C38   C64   A    
C18   H2    S    
C126  C139  A    
C68   C95   A    
C150  C159  S    
O62   S13   D    
O94   S8    D    
C90   C117  A    
C91   C107  A    
C146  O38   A    
C86   H43   S    
C151  O16   A    
C84   H41   S    
C32   C145  S    
C146  O42   A    
C101  C110  A    
C34   C61   A    
C50   C76   A    
C42   C55   A    
O11   Zn6   S    
C13   C63   A    
C149  O11   A    
C91   C118  A    
C81   O56   A    
O5    Zn8   S    
C20   C33   A    
C20   H4    S    
C7    C166  S    
O40   Zn4   S    
C21   H5    S    
C83   C100  A    
O28   Zn12  S    
C15   H62   S    
O13   Zn7   S    
C69   H17   S    
C117  S11   S    
C8    H1    S    
H57   O83   S    
C45   C59   A    
O23   Zn6   S    
C58   C110  A    
C23   C43   A    
C79   C97   A    
C71   H19   S    
C1    C131  S    
C24   C90   A    
C96   C109  A    
C10   H23   S    
O71   S16   D    
C61   C158  A    
C141  O28   A    
C159  C167  T    
C160  C168  T    
O10   Zn5   S    
C129  S7    S    
C87   C113  A    
C95   C108  A    
C92   O23   A    
C100  C111  A    
C102  C109  A    
C143  O32   A    
O46   S1    D    
C76   C85   A    
C125  O6    A    
C18   C49   A    
C154  O21   A    
C80   H38   S    
C92   O45   A    
O36   Zn3   S    
O48   S9    D    
C86   C104  A    
C151  O14   A    
C71   C79   A    
H61   O96   S    
C35   H31   S    
C98   C124  A    
C13   H29   S    
C5    C163  T    
O81   S4    D    
C144  O40   A    
C122  S16   S    
C14   C36   A    
C75   C84   A    
C39   C54   A    
O64   S14   D    
C152  O15   A    
C129  C135  A    
O7    Zn10  S    
C94   C120  A    
O89   Zn8   S    
C49   C75   A    
C142  O29   A    
H49   O60   S    
C152  C161  S    
C147  O4    A    
O37   Zn3   S    
O41   Zn4   S    
C17   H64   S    
C99   C126  A    
C21   C45   A    
C65   H14   S    
C122  C135  A    
C81   O12   A    
O84   S5    D    
C114  O89   A    
C8    C41   A    
C118  S12   S    
C1    O1    A    
C104  C112  A    
C123  S2    S    
C79   H37   S    
C50   C56   A    
H47   O53   S    
C11   H34   S    
C93   C106  A    
C87   C105  A    
O29   Zn12  S    
O14   Zn1   S    
C127  S5    S    
O2    Zn9   S    
C143  O30   A    
C118  C133  A    
C127  C138  A    
C52   C105  A    
C57   C94   A    
C14   C27   A    
H55   O80   S    
O32   Zn2   S    
O63   S13   S    
C3    C4    S    
C56   C109  A    
C48   C59   A    
O8    Zn9   S    
C126  S4    S    
C18   C31   A    
C153  O18   A    
C123  C137  A    
C16   H63   S    
C55   C108  A    
C88   C115  A    
C90   C108  A    
O53   S10   S    
C97   C123  A    
O35   Zn2   S    
O60   S12   S    
O44   S1    D    
C2    H28   S    
C33   C146  S    
C70   H18   S    
O39   Zn3   S    
C57   H33   S    
C40   C66   A    
C51   C60   A    
C93   C119  A    
C85   C102  A    
C26   C143  S    
C25   C33   A    
C66   H15   S    
C94   C105  A    
C120  C131  A    
C82   C99   A    
H54   O76   S    
C144  O36   A    
C12   C28   A    
C124  C138  A    
O69   S15   D    
C103  C134  S    
C46   C66   A    
C20   C51   A    
C155  O25   A    
C155  O22   A    
C23   H7    S    
C35   C65   A    
C11   C42   A    
C5    C168  S    
C12   C37   A    
C125  O2    A    
O86   S5    S    
O27   Zn12  S    
C44   C58   A    
C68   C69   A    
O20   Zn10  S    
O66   S14   S    
O4    Zn11  S    
C121  C134  A    
C25   C47   A    
C15   C34   A    
O79   S3    D    
C95   C121  A    
C7    C165  T    
C24   C64   A    
O80   S3    S    
C104  C130  A    
C136  O5    A    
O49   S9    D    
C148  O39   A    
O77   S3    D    
C12   H45   S    
O24   Zn11  S    
C130  C139  A    
C153  O20   A    
C64   H13   S    
O91   S7    D    
C47   C73   A    
H53   O73   S    
C125  C137  S    
O31   Zn2   S    
C9    C40   A    
C10   C39   A    
O30   Zn12  S    
O25   Zn10  S    
C77   H26   S    
C51   C77   A    
C48   C74   A    
C89   C107  A    
O57   S11   S    
H59   O90   S    
C128  S6    S    
C6    C164  T    
O50   S9    S    
C4    C162  T    
C73   C82   A    
C9    C27   A    
O70   S15   S    
C10   C28   A    
C80   C98   A    
O88   S6    D    
C1    O67   A    
C158  H27   S    
C78   H36   S    
O33   Zn2   S    
O59   S12   D    
C15   C26   A    
C30   C148  S    
C116  C133  A    
C34   C52   A    
C96   C122  A    
C153  C162  S    
H52   O70   S    
O96   S8    S    
C156  C165  S    
O38   Zn3   S    
C3    C161  T    
H44   O47   S    
C150  O10   A    
O56   Zn7   S    
C72   C80   A    
O17   Zn5   S    
C148  O41   A    
C149  C157  S    
C73   H21   S    
C114  O7    A    
O87   S6    D    
C140  O27   A    
C70   C78   A    
C102  C129  A    
C85   H42   S    
O15   Zn7   S    
O82   S4    D    
O45   Zn1   S    
O65   S14   D    
C139  C147  S    
C14   H56   S    
C19   H3    S    
O76   S2    S    
O74   S2    D    
C130  S8    S    
C154  O19   A    
C99   C112  A    
C124  S3    S    
H48   O57   S    
C31   C144  S    
O67   Zn6   S    
C63   H11   S    
C44   C71   A    
C145  O37   A    
C103  O34   A    
O54   S11   D    
C72   H20   S    
O78   Zn5   S    
O16   Zn6   S    
O43   Zn4   S    
H51   O66   S    
C47   C60   A    
C22   C44   A    
O85   S5    D    
C114  C135  S    
O72   S16   D    
C2    C88   A    
C41   C52   A    
O92   S7    D    
H46   O50   S    
C89   C116  A    
C68   H35   S    
C84   C101  A    
O73   S16   S    
O58   S12   D    
C57   C67   A    
O9    Zn1   S    
C82   H39   S    
C22   H6    S    
C157  C166  T    
C156  O26   A    
O90   S6    S    
C21   C32   A    
C22   C31   A    
O52   S10   D    
C23   C30   A    
C154  C163  S    
C136  C138  S    
C67   H16   S    
C19   C48   A    
C81   C132  S    
C16   C29   A    
C42   C69   A    
C49   C58   A    
C117  C134  A    
C128  C137  A    
C83   H40   S    
C60   C112  A    
C113  S1    S    
H50   O63   S    
C88   C106  A    
C46   H32   S    
H58   O86   S    
C119  C132  A    
C9    H12   S    
C37   C54   A    
C77   C86   A    
C43   C70   A    
O93   S7    S    
O3    Zn10  S    
O12   Zn5   S    
C6    C167  S    
C98   C111  A    
C113  C131  A    
C13   C89   A    
O51   S10   D    
C17   C50   A    
C62   H10   S    
C28   C141  S    
C155  C164  S    
C103  O78   A    
O1    Zn1   S    
C27   C140  S    
C87   C158  A    
O42   Zn4   S    
C151  C160  S    
C75   H24   S    
C97   C110  A    
C25   H8    S    
C46   C93   A    
O34   Zn7   S    
C29   C142  S    
C76   H25   S    
C120  S14   S    
C156  O24   A    
C43   C56   A    
C11   C29   A    
C149  O9    A    
C40   C53   A    
C116  S10   S    
O21   Zn11  S    
O83   S4    S    
C2    C62   A    
C16   C38   A    
C45   C72   A    
C35   C91   A    
