data_mof_unit_54918.cif
_audit_creation_date              2012-12-10T17:48:45-0500
_audit_creation_method            fapswitch 2.2
_symmetry_space_group_name_H-M    P1
_symmetry_Int_Tables_number       1
_space_group_crystal_system       triclinic
_cell_length_a                    15.744999
_cell_length_b                    10.677469
_cell_length_c                    9.999405
_cell_angle_alpha                 88.923318
_cell_angle_beta                  89.700918
_cell_angle_gamma                 94.332416
_cell_volume                      1675.93067477

loop_
_atom_site_label
_atom_site_type_symbol
_atom_type_description
_atom_site_fract_x
_atom_site_fract_y
_atom_site_fract_z
_atom_type_partial_charge
C1    C     C_R   0.508174 0.261222 0.501815 0.957145
C2    C     C_R   0.493852 0.040753 0.871832 0.494546
C3    C     C_R   0.441849 0.929406 0.860484 -0.163963
C4    C     C_R   0.338652 0.499195 0.500336 0.918432
C5    C     C_R   0.429889 0.876586 0.733814 0.613099
C6    C     C_R   0.471554 0.934296 0.619901 -0.157117
C7    C     C_R   0.505995 0.058105 0.628496 -0.260019
C8    C     C_R   0.518708 0.127993 0.506841 -0.174098
C9    C     C_R   0.523868 0.066268 0.384868 0.645877
C10   C     C_R   0.509328 0.938485 0.382113 -0.295768
C11   C     C_R   0.484282 0.871691 0.498775 -0.106013
C12   C     C_3   0.946580 0.423910 0.626860 0.529617
C13   C     C_R   0.386632 0.335133 0.148396 -0.075647
C14   C     C_R   0.327526 0.251256 0.088257 0.112956
C15   C     C_R   0.325726 0.246694 0.948658 0.056916
C16   C     C_R   0.492430 0.738603 0.499304 0.925732
C17   C     C_R   0.382547 0.327611 0.872598 0.625205
C18   C     C_R   0.443071 0.416323 0.931792 0.006417
C19   C     C_R   0.443867 0.417765 0.075406 0.030796
C20   C     C_R   0.554193 0.580204 0.069483 0.226728
C21   C     C_R   0.554154 0.580389 0.926259 0.247804
C22   C     C_R   0.661362 0.500627 0.499618 0.869557
C23   C     C_3   0.916939 0.494450 0.496579 -0.096661
C24   C     C_3   0.045486 0.417132 0.619564 1.031630
C25   C     C_3   0.048895 0.435353 0.365262 1.008796
C26   C     C_3   0.948287 0.430001 0.363503 0.098740
C27   C     C_1   0.750051 0.498860 0.498810 -0.154524
C28   C     C_3   0.082896 0.497375 0.497014 -0.318416
C29   C     C_3   0.919372 0.485001 0.758497 -0.680473
C30   C     C_3   0.403117 0.865736 0.984174 -0.660397
C31   C     C_3   0.616757 0.671816 0.138336 -0.823631
C32   C     C_3   0.266794 0.169146 0.175673 -0.744657
C33   C     C_3   0.263877 0.156945 0.875411 -0.664557
C34   C     C_3   0.956407 0.632689 0.499792 -0.618256
C35   C     C_3   0.616193 0.673577 0.853567 -0.798127
C36   C     C_3   0.910382 0.291290 0.353026 -0.589729
C37   C     C_3   0.917378 0.497840 0.234881 -0.739543
C38   C     C_3   0.096322 0.730459 0.403854 -0.678758
C39   C     C_3   0.054931 0.635695 0.508218 0.623278
C40   C     C_1   0.825201 0.496798 0.497838 0.106183
C41   C     C_1   0.174597 0.497577 0.499561 0.254474
C42   C     C_1   0.249858 0.498169 0.500678 -0.074249
C43   C     C_R   0.525971 0.104953 0.757304 0.585617
F1    F     F_    0.907309 0.303207 0.633389 -0.613365
F2    F     F_    0.077853 0.315938 0.356279 -0.626532
F3    F     F_    0.079558 0.681785 0.632225 -0.589601
F4    F     F_    0.084370 0.459468 0.736587 -0.603767
F5    F     F_    0.545134 0.128669 0.268408 -0.587260
F6    F     F_    0.583795 0.204331 0.774001 -0.596151
F7    F     F_    0.512383 0.088462 0.993993 -0.577958
F8    F     F_    0.374851 0.773204 0.720564 -0.630053
F9    F     F_    0.064343 0.292898 0.607682 -0.587593
F10   F     F_    0.375054 0.313715 0.740938 -0.658630
F11   F     F_    0.084374 0.501577 0.255336 -0.662454
H1    H     H_    0.935403 0.687746 0.412502 0.202421
H2    H     H_    0.364857 0.777189 0.961531 0.270000
H3    H     H_    0.605760 0.769644 0.107704 0.224748
H4    H     H_    0.612703 0.668851 0.246603 0.286106
H5    H     H_    0.682978 0.651809 0.112717 0.225721
H6    H     H_    0.276668 0.186982 0.283803 0.238715
H7    H     H_    0.200090 0.188154 0.152057 0.281993
H8    H     H_    0.276168 0.068654 0.159300 0.226074
H9    H     H_    0.222463 0.094818 0.942164 0.229420
H10   H     H_    0.221939 0.211387 0.811265 0.293616
H11   H     H_    0.299815 0.095652 0.810866 0.236604
H12   H     H_    0.519431 0.892008 0.288608 0.197525
H13   H     H_    0.615241 0.668608 0.745501 0.275426
H14   H     H_    0.602096 0.770923 0.877701 0.216860
H15   H     H_    0.682470 0.657754 0.882794 0.221103
H16   H     H_    0.924923 0.252981 0.253560 0.235693
H17   H     H_    0.937746 0.227568 0.427034 0.308801
H18   H     H_    0.840039 0.284028 0.365257 0.233037
H19   H     H_    0.945302 0.595689 0.223461 0.240128
H20   H     H_    0.936462 0.448631 0.143718 0.270588
H21   H     H_    0.846916 0.498944 0.233572 0.227568
H22   H     H_    0.081132 0.826980 0.430054 0.250999
H23   H     H_    0.385948 0.333810 0.254189 0.215233
H24   H     H_    0.166716 0.729099 0.403151 0.231896
H25   H     H_    0.072090 0.713507 0.301563 0.234446
H26   H     H_    0.931011 0.683124 0.585720 0.240600
H27   H     H_    0.953832 0.577786 0.774706 0.251068
H28   H     H_    0.849860 0.496113 0.760311 0.217585
H29   H     H_    0.933368 0.423357 0.845158 0.273838
H30   H     H_    0.454349 0.842665 0.054270 0.231188
H31   H     H_    0.361033 0.929614 0.033965 0.239525
N1    N     N_R   0.499210 0.498800 0.142780 -0.111300
N2    N     N_R   0.499180 0.498720 0.857170 -0.088559
O1    O     O_R   0.500000 0.316780 0.614690 -0.501164
O2    O     O_R   0.499990 0.316750 0.385360 -0.594563
O3    O     O_R   0.377150 0.500020 0.614720 -0.494903
O4    O     O_R   0.377140 0.499990 0.385380 -0.664415
O5    O     O_R   0.500010 0.683250 0.614640 -0.600661
O6    O     O_R   0.500000 0.683220 0.385310 -0.660116
O7    O     O_R   0.622860 0.500010 0.614620 -0.605550
O8    O     O_R   0.622850 0.499980 0.385280 -0.620736
Zn1   Zn    Zn3+2 0.500010 0.500020 0.653130 1.077646
Zn2   Zn    Zn3+2 0.499990 0.499980 0.346870 0.974221

loop_
_geom_bond_atom_site_label_1
_geom_bond_atom_site_label_2
_ccdc_geom_bond_type
C24   F9    S    
C37   H20   S    
O1    Zn1   S    
O6    Zn2   S    
C12   C29   S    
C1    C8    S    
C41   C42   T    
C19   N1    A    
C21   N2    A    
C33   H11   S    
C7    C8    A    
C38   H22   S    
C25   C28   S    
C12   C23   S    
C16   O6    A    
C31   H4    S    
C32   H7    S    
C29   H29   S    
C38   C39   S    
C38   H25   S    
C25   F2    S    
C23   C40   S    
C28   C41   S    
O5    Zn1   S    
C18   C19   A    
C22   O8    A    
C23   C26   S    
C31   H5    S    
N1    Zn2   S    
C2    F7    S    
C34   H26   S    
C8    C9    A    
C20   N1    A    
C7    C43   A    
C9    C10   A    
C2    C43   A    
C36   H17   S    
C4    O4    A    
C1    O1    A    
C37   H21   S    
C34   H1    S    
C13   C14   A    
C22   O7    A    
C36   H16   S    
C4    O3    A    
C10   H12   S    
C13   H23   S    
C13   C19   A    
C34   C39   S    
C25   F11   S    
C6    C11   A    
C43   F6    S    
C38   H24   S    
C28   C39   S    
C25   C26   S    
C30   H2    S    
O2    Zn2   S    
C3    C30   S    
C29   H27   S    
C11   C16   S    
C35   H13   S    
C27   C40   T    
C33   H9    S    
C23   C34   S    
N2    Zn1   S    
C17   C18   A    
O4    Zn2   S    
C30   H31   S    
O7    Zn1   S    
C39   F3    S    
C26   C36   S    
C16   O5    A    
C22   C27   S    
C32   H6    S    
C17   F10   S    
C15   C17   A    
C37   H19   S    
C1    O2    A    
C24   F4    S    
C24   C28   S    
C14   C32   S    
C3    C5    A    
O8    Zn2   S    
C26   C37   S    
O3    Zn1   S    
C6    C7    A    
C21   C35   S    
C12   C24   S    
C18   N2    A    
C31   H3    S    
C2    C3    A    
C32   H8    S    
C29   H28   S    
C12   F1    S    
C5    C6    A    
C4    C42   S    
C35   H14   S    
C33   H10   S    
C30   H30   S    
C10   C11   A    
C20   C21   A    
C35   H15   S    
C9    F5    S    
C14   C15   A    
C5    F8    S    
C15   C33   S    
C36   H18   S    
C20   C31   S    
