data_mof_unit_37179.cif
_audit_creation_date              2012-12-11T14:44:15-0500
_audit_creation_method            fapswitch 2.2
_symmetry_space_group_name_H-M    P1
_symmetry_Int_Tables_number       1
_space_group_crystal_system       triclinic
_cell_length_a                    19.14367
_cell_length_b                    11.095008
_cell_length_c                    18.822424
_cell_angle_alpha                 90.085706
_cell_angle_beta                  89.888929
_cell_angle_gamma                 90.385113
_cell_volume                      3997.76505343

loop_
_atom_site_label
_atom_site_type_symbol
_atom_type_description
_atom_site_fract_x
_atom_site_fract_y
_atom_site_fract_z
_atom_type_partial_charge
Br1   Br    Br    0.553892 0.894158 0.058134 -0.449387
Br2   Br    Br    0.394733 0.829141 0.923609 -0.510927
Br3   Br    Br    0.203109 0.201633 0.108607 -0.480383
Br4   Br    Br    0.895427 0.331576 0.924114 -0.520017
Br5   Br    Br    0.576453 0.938323 0.889160 -0.457916
Br6   Br    Br    0.053925 0.394133 0.058112 -0.446032
Br7   Br    Br    0.076637 0.438488 0.889125 -0.455839
Br8   Br    Br    0.919039 0.966175 0.562288 -0.592633
Br9   Br    Br    0.166094 0.148671 0.381457 -0.522934
Br10  Br    Br    0.351164 0.630821 0.612444 -0.582581
Br11  Br    Br    0.719340 0.645395 0.383412 -0.557877
Br12  Br    Br    0.703123 0.701501 0.108540 -0.485177
C1    C     C_R   0.728268 0.372597 0.144745 0.582971
C2    C     C_R   0.974576 0.980486 0.040837 0.030523
C3    C     C_R   0.000045 0.765323 0.031679 -0.034224
C4    C     C_R   0.536664 0.054241 0.021828 0.177141
C5    C     C_R   0.537870 0.065165 0.948023 0.190792
C6    C     C_R   0.036707 0.554228 0.021823 0.176983
C7    C     C_R   0.037931 0.565168 0.948016 0.192579
C8    C     C_3   0.881949 0.916551 0.406800 -0.333554
C9    C     C_3   0.151367 0.114265 0.550154 -0.360313
C10   C     C_3   0.357102 0.589868 0.445869 -0.355575
C11   C     C_3   0.668844 0.622782 0.545920 -0.354153
C12   C     C_3   0.620025 0.880775 0.443635 -0.361368
C13   C     C_R   0.501492 0.497237 0.971120 0.002144
C14   C     C_3   0.387179 0.902920 0.552460 -0.339153
C15   C     C_3   0.105563 0.411907 0.452078 -0.335003
C16   C     C_3   0.811575 0.242507 0.588923 -0.355762
C17   C     C_3   0.540358 0.416476 0.851051 -0.356456
C18   C     C_3   0.423854 0.338411 0.133516 -0.344602
C19   C     C_3   0.040580 0.916226 0.851073 -0.353085
C20   C     C_3   0.923907 0.838462 0.133552 -0.347220
C21   C     C_3   0.014169 0.122101 0.941140 -0.341466
C22   C     C_3   0.952496 0.088468 0.084887 -0.369988
C23   C     C_3   0.514793 0.622205 0.941510 -0.340091
C24   C     C_R   0.474630 0.480512 0.040918 0.030689
C25   C     C_3   0.452636 0.588473 0.085028 -0.372152
C26   C     C_3   0.513386 0.400875 0.583102 -0.359867
C27   C     C_3   0.510353 0.403459 0.425970 -0.366480
C28   C     C_3   0.083225 0.796186 0.599565 -0.369349
C29   C     C_3   0.075133 0.869445 0.449828 -0.328020
C30   C     C_R   0.728047 0.830633 0.045894 0.167270
C31   C     C_R   0.308345 0.877794 0.964195 0.140320
C32   C     C_R   0.228045 0.330665 0.045903 0.166648
C33   C     C_R   0.808611 0.378620 0.964369 0.141416
C34   C     C_R   0.731078 0.810687 0.973069 -0.056263
C35   C     C_R   0.302851 0.867649 0.037541 -0.120076
C36   C     C_R   0.231087 0.310683 0.973080 -0.057739
C37   C     C_R   0.270776 0.373792 0.854807 0.571299
C38   C     C_R   0.802995 0.368299 0.037687 -0.118937
C39   C     C_R   0.753383 0.903551 0.927215 0.036870
C40   C     C_R   0.240643 0.899067 0.071015 0.022054
C41   C     C_R   0.253391 0.403534 0.927218 0.036270
C42   C     C_R   0.740605 0.398968 0.071020 0.022132
C43   C     C_R   0.770764 0.016874 0.953755 -0.126033
C44   C     C_R   0.183691 0.937972 0.031044 -0.104449
C45   C     C_R   0.270768 0.516860 0.953746 -0.123888
C46   C     C_R   0.683548 0.437067 0.030931 -0.105010
C47   C     C_R   0.766546 0.037239 0.025895 -0.156473
C48   C     C_R   0.228273 0.872601 0.144738 0.579267
C49   C     C_R   0.189943 0.951997 0.959663 -0.172016
C50   C     C_R   0.266558 0.537237 0.025883 -0.158132
C51   C     C_R   0.689855 0.450989 0.959536 -0.171767
C52   C     C_R   0.746314 0.944133 0.072120 0.044890
C53   C     C_R   0.251650 0.924380 0.924746 0.028916
C54   C     C_R   0.246310 0.444163 0.072112 0.041875
C55   C     C_R   0.751769 0.424362 0.924774 0.029573
C56   C     C_R   0.502251 0.067498 0.468018 -0.174792
C57   C     C_R   0.517018 0.068053 0.539751 -0.175022
C58   C     C_R   0.955384 0.593831 0.451331 -0.160148
C59   C     C_R   0.770772 0.873804 0.854803 0.565979
C60   C     C_R   0.941865 0.589376 0.523502 -0.132314
C61   C     C_R   0.505873 0.172814 0.578267 0.023609
C62   C     C_R   0.507844 0.172827 0.428782 0.031071
C63   C     C_R   0.981659 0.659486 0.571015 0.065383
C64   C     C_R   0.004889 0.675588 0.425634 -0.005614
C65   C     C_R   0.538718 0.152679 0.142254 0.549551
C66   C     C_R   0.471158 0.156486 0.851006 0.567820
C67   C     C_R   0.038731 0.652673 0.142252 0.548442
C68   C     C_R   0.971164 0.656479 0.851008 0.569130
C69   C     C_R   0.507894 0.284571 0.541777 0.015030
C70   C     C_R   0.515108 0.395818 0.927395 0.027807
C71   C     C_R   0.509108 0.285146 0.466004 0.013354
C72   C     C_R   0.033338 0.737604 0.546999 0.024769
C73   C     C_R   0.038108 0.757578 0.473744 -0.009687
C74   C     C_R   0.818071 0.921743 0.454191 0.006693
C75   C     C_R   0.211873 0.047652 0.517208 -0.032550
C76   C     C_R   0.291723 0.539865 0.480633 -0.005067
C77   C     C_R   0.716908 0.525065 0.521890 -0.014252
C78   C     C_R   0.825912 0.925204 0.527698 0.151242
C79   C     C_R   0.214756 0.038164 0.442848 0.156930
C80   C     C_R   0.291692 0.529855 0.554532 0.166096
C81   C     C_R   0.469842 0.362650 0.069299 0.033173
C82   C     C_R   0.728482 0.514332 0.449541 0.140422
C83   C     C_R   0.765889 0.909168 0.572236 0.002275
C84   C     C_R   0.256097 0.948735 0.411921 0.014791
C85   C     C_R   0.245667 0.449176 0.587495 0.022755
C86   C     C_R   0.750289 0.405867 0.423448 0.020294
C87   C     C_R   0.700083 0.904036 0.543350 -0.179121
C88   C     C_R   0.311237 0.902984 0.449638 -0.141867
C89   C     C_R   0.185298 0.415707 0.552843 -0.153612
C90   C     C_R   0.777258 0.317051 0.468623 -0.153954
C91   C     C_R   0.692054 0.901453 0.470614 -0.018501
C92   C     C_R   0.015182 0.895706 0.927375 0.026061
C93   C     C_R   0.317467 0.925502 0.521883 -0.018416
C94   C     C_R   0.177111 0.438662 0.480530 -0.020914
C95   C     C_R   0.780489 0.337124 0.541649 -0.061624
C96   C     C_R   0.750543 0.921719 0.425597 0.072515
C97   C     C_R   0.264757 0.990690 0.558925 0.013325
C98   C     C_R   0.233076 0.494388 0.441191 0.027488
C99   C     C_R   0.749546 0.441984 0.569275 0.025541
C100  C     C_R   0.740420 0.973977 0.146383 0.579502
C101  C     C_R   0.259407 0.970866 0.852920 0.566895
C102  C     C_R   0.240409 0.474020 0.146371 0.587113
C103  C     C_R   0.969864 0.862657 0.069290 0.034976
C104  C     C_R   0.759443 0.470920 0.852950 0.555340
C105  C     C_R   0.729403 0.374218 0.352698 0.596938
C106  C     C_R   0.268458 0.385355 0.651297 0.571254
C107  C     C_R   0.232114 0.886115 0.347975 0.564535
C108  C     C_R   0.773469 0.875540 0.646129 0.557232
C109  C     C_R   0.532726 0.158387 0.354472 0.532385
C110  C     C_R   0.470420 0.158572 0.647932 0.520138
C111  C     C_R   0.032682 0.658628 0.353697 0.524672
C112  C     C_R   0.963185 0.655414 0.644892 0.546813
C113  C     C_R   0.740964 0.971260 0.354393 0.568529
C114  C     C_R   0.001383 0.997156 0.971005 0.001592
C115  C     C_R   0.270489 0.015796 0.637226 0.557580
C116  C     C_R   0.228744 0.517738 0.362755 0.567752
C117  C     C_R   0.758996 0.476046 0.643938 0.538692
C118  C     C_R   0.513991 0.170545 0.916138 -0.027546
C119  C     C_R   0.518693 0.155097 0.065369 -0.033007
C120  C     C_R   0.014017 0.670514 0.916140 -0.026174
C121  C     C_R   0.018712 0.655078 0.065369 -0.033034
C122  C     C_R   0.509837 0.277709 0.957327 -0.022504
C123  C     C_R   0.500021 0.265342 0.031677 -0.034826
C124  C     C_R   0.009885 0.777657 0.957333 -0.022748
Cr1   Cr    Cr6+3 0.772000 0.169640 0.250110 1.012232
Cr2   Cr    Cr6+3 0.383330 0.010620 0.749160 1.101625
Cr3   Cr    Cr6+3 0.116670 0.510620 0.250840 1.105163
Cr4   Cr    Cr6+3 0.883330 0.510620 0.749160 1.085257
Cr5   Cr    Cr6+3 0.228000 0.169640 0.749890 1.025570
Cr6   Cr    Cr6+3 0.272000 0.669640 0.250110 0.995473
Cr7   Cr    Cr6+3 0.728000 0.669640 0.749890 1.026178
Cr8   Cr    Cr6+3 0.614960 0.323350 0.249260 1.038351
Cr9   Cr    Cr6+3 0.385040 0.323350 0.750740 1.027404
Cr10  Cr    Cr6+3 0.114960 0.823350 0.249260 1.040762
Cr11  Cr    Cr6+3 0.885040 0.823350 0.750740 1.042304
Cr12  Cr    Cr6+3 0.616670 0.010620 0.250840 1.088511
H1    H     H_    0.655109 0.892733 0.578004 0.127870
H2    H     H_    0.133725 0.959999 0.054691 0.184106
H3    H     H_    0.288936 0.588232 0.918932 0.165888
H4    H     H_    0.633447 0.458422 0.054490 0.183180
H5    H     H_    0.779227 0.126033 0.045914 0.137804
H6    H     H_    0.147529 0.992972 0.933075 0.142768
H7    H     H_    0.279252 0.626009 0.045903 0.138073
H8    H     H_    0.647291 0.491046 0.932770 0.143085
H9    H     H_    0.493806 0.981931 0.441722 0.128631
H10   H     H_    0.521821 0.982295 0.566651 0.134960
H11   H     H_    0.928571 0.532069 0.415852 0.150173
H12   H     H_    0.351872 0.856469 0.421111 0.120196
H13   H     H_    0.901455 0.528696 0.542643 0.143055
H14   H     H_    0.919443 0.852993 0.429398 0.170290
H15   H     H_    0.869823 0.880673 0.353094 0.150944
H16   H     H_    0.906830 0.006972 0.402613 0.165296
H17   H     H_    0.114790 0.153878 0.511563 0.164594
H18   H     H_    0.119507 0.052299 0.583190 0.151839
H19   H     H_    0.171622 0.186878 0.583581 0.175381
H20   H     H_    0.398685 0.618828 0.482825 0.149434
H21   H     H_    0.380434 0.518764 0.412310 0.150962
H22   H     H_    0.344486 0.667977 0.412854 0.162728
H23   H     H_    0.143738 0.373790 0.583247 0.124768
H24   H     H_    0.638836 0.662556 0.501935 0.154956
H25   H     H_    0.629175 0.589616 0.583794 0.141854
H26   H     H_    0.701213 0.690098 0.571944 0.189443
H27   H     H_    0.605471 0.967793 0.422975 0.187117
H28   H     H_    0.617440 0.812458 0.400928 0.201317
H29   H     H_    0.582752 0.852346 0.485728 0.087694
H30   H     H_    0.403461 0.993915 0.564587 0.160760
H31   H     H_    0.388058 0.851361 0.601699 0.231751
H32   H     H_    0.424118 0.859205 0.515042 0.102273
H33   H     H_    0.079677 0.498231 0.448833 0.148671
H34   H     H_    0.794078 0.231239 0.447171 0.151542
H35   H     H_    0.104580 0.365015 0.400684 0.226940
H36   H     H_    0.073530 0.355936 0.488795 0.117283
H37   H     H_    0.861555 0.275264 0.611862 0.178093
H38   H     H_    0.774416 0.218284 0.632060 0.140710
H39   H     H_    0.822763 0.159971 0.558402 0.169139
H40   H     H_    0.565639 0.335622 0.828057 0.133241
H41   H     H_    0.496043 0.445651 0.817419 0.168684
H42   H     H_    0.579245 0.489478 0.845730 0.123296
H43   H     H_    0.412802 0.241129 0.141516 0.144331
H44   H     H_    0.447421 0.376516 0.182542 0.148816
H45   H     H_    0.719632 0.721299 0.952794 0.154787
H46   H     H_    0.372360 0.379663 0.124889 0.149795
H47   H     H_    0.065748 0.835247 0.828094 0.137646
H48   H     H_    0.996365 0.945610 0.817370 0.167933
H49   H     H_    0.079634 0.988956 0.845838 0.124651
H50   H     H_    0.912888 0.741184 0.141621 0.145013
H51   H     H_    0.947471 0.876675 0.182553 0.147826
H52   H     H_    0.872388 0.879630 0.124930 0.148490
H53   H     H_    0.070097 0.137092 0.928994 0.156359
H54   H     H_    0.983529 0.133564 0.891669 0.184371
H55   H     H_    0.000538 0.194835 0.978063 0.228734
H56   H     H_    0.346315 0.833259 0.068012 0.156741
H57   H     H_    0.931069 0.065895 0.137809 0.141417
H58   H     H_    0.998538 0.147188 0.094906 0.192491
H59   H     H_    0.911664 0.139477 0.056264 0.153870
H60   H     H_    0.570882 0.636872 0.930125 0.156276
H61   H     H_    0.484833 0.633985 0.891663 0.187947
H62   H     H_    0.500759 0.694952 0.978255 0.228294
H63   H     H_    0.431128 0.565854 0.137929 0.139895
H64   H     H_    0.498745 0.647031 0.095117 0.190793
H65   H     H_    0.411872 0.639652 0.056391 0.154624
H66   H     H_    0.536139 0.386914 0.636646 0.143558
H67   H     H_    0.219643 0.221295 0.952814 0.153801
H68   H     H_    0.549561 0.463027 0.556021 0.111489
H69   H     H_    0.461273 0.443202 0.587461 0.196259
H70   H     H_    0.477450 0.397538 0.377589 0.143297
H71   H     H_    0.488812 0.478644 0.457323 0.103840
H72   H     H_    0.564837 0.427731 0.411872 0.187041
H73   H     H_    0.099450 0.729520 0.640188 0.134859
H74   H     H_    0.132183 0.827598 0.573803 0.137346
H75   H     H_    0.057540 0.872983 0.626600 0.178148
H76   H     H_    0.051456 0.910311 0.402088 0.192307
H77   H     H_    0.069709 0.941630 0.489885 0.154192
H78   H     H_    0.846552 0.334510 0.068260 0.157788
H79   H     H_    0.130537 0.846065 0.443692 0.147377
H80   H     H_    0.788945 0.088259 0.918953 0.160138
O1    O     O_R   0.787540 0.042690 0.170470 -0.557844
O2    O     O_R   0.454130 0.051100 0.669160 -0.537752
O3    O     O_R   0.045870 0.551100 0.330840 -0.532716
O4    O     O_R   0.954130 0.551100 0.669160 -0.527014
O5    O     O_R   0.681340 0.959300 0.325510 -0.494364
O6    O     O_R   0.318660 0.959300 0.674490 -0.485402
O7    O     O_R   0.181340 0.459300 0.325510 -0.468192
O8    O     O_R   0.818660 0.459300 0.674490 -0.510183
O9    O     O_3   0.667880 0.167870 0.250070 -0.284433
O10   O     O_3   0.332120 0.167870 0.749930 -0.289648
O11   O     O_3   0.167880 0.667870 0.250070 -0.297857
O12   O     O_R   0.212460 0.042690 0.829530 -0.544980
O13   O     O_3   0.832120 0.667870 0.749930 -0.277511
O14   O     O_R   0.765660 0.292160 0.175050 -0.517868
O15   O     O_R   0.234340 0.292160 0.824950 -0.483065
O16   O     O_R   0.265660 0.792160 0.175050 -0.520501
O17   O     O_R   0.734340 0.792160 0.824950 -0.480295
O18   O     O_R   0.670190 0.408980 0.168550 -0.481247
O19   O     O_R   0.329810 0.408980 0.831450 -0.507110
O20   O     O_R   0.170190 0.908980 0.168550 -0.478586
O21   O     O_R   0.829810 0.908980 0.831450 -0.517526
O22   O     O_R   0.556580 0.251450 0.175160 -0.515131
O23   O     O_R   0.287540 0.542690 0.170470 -0.553383
O24   O     O_R   0.443420 0.251450 0.824840 -0.524319
O25   O     O_R   0.056580 0.751450 0.175160 -0.513203
O26   O     O_R   0.943420 0.751450 0.824840 -0.525051
O27   O     O_R   0.545920 0.049510 0.170320 -0.453671
O28   O     O_R   0.454080 0.049510 0.829680 -0.417505
O29   O     O_R   0.045920 0.549510 0.170320 -0.453204
O30   O     O_R   0.954080 0.549510 0.829680 -0.417990
O31   O     O_R   0.681390 0.957840 0.176710 -0.424019
O32   O     O_R   0.318610 0.957840 0.823290 -0.433072
O33   O     O_R   0.181390 0.457840 0.176710 -0.418965
O34   O     O_R   0.712460 0.542690 0.829530 -0.546715
O35   O     O_R   0.818610 0.457840 0.823290 -0.444202
O36   O     O_R   0.787500 0.044280 0.330990 -0.538419
O37   O     O_R   0.212500 0.044280 0.669010 -0.530852
O38   O     O_R   0.287500 0.544280 0.330990 -0.528287
O39   O     O_R   0.712500 0.544280 0.669010 -0.537582
O40   O     O_R   0.765610 0.293630 0.323860 -0.513356
O41   O     O_R   0.234390 0.293630 0.676140 -0.534466
O42   O     O_R   0.265610 0.793630 0.323860 -0.535986
O43   O     O_R   0.734390 0.793630 0.676140 -0.520212
O44   O     O_R   0.670140 0.410570 0.329080 -0.477257
O45   O     O_R   0.556540 0.252920 0.323970 -0.516348
O46   O     O_R   0.329860 0.410570 0.670920 -0.461380
O47   O     O_R   0.170140 0.910570 0.329080 -0.474343
O48   O     O_R   0.829860 0.910570 0.670920 -0.460894
O49   O     O_R   0.443460 0.252920 0.676030 -0.512719
O50   O     O_R   0.056540 0.752920 0.323970 -0.519644
O51   O     O_R   0.943460 0.752920 0.676030 -0.476279
O52   O     O_R   0.545870 0.051100 0.330840 -0.538058

loop_
_geom_bond_atom_site_label_1
_geom_bond_atom_site_label_2
_ccdc_geom_bond_type
C87   C91   A    
C9    C75   S    
C27   H70   S    
Cr5   O10   S    
C68   C120  S    
C43   C47   A    
C66   O24   A    
C28   C72   S    
Cr9   O24   S    
C32   C54   A    
C65   O27   A    
C109  O52   A    
C106  O46   A    
C62   C71   A    
C49   H6    S    
Br9   C79   S    
C29   H79   S    
C47   H5    S    
C111  O50   A    
C45   C50   A    
C11   H26   S    
C92   C124  A    
C14   H31   S    
C22   H58   S    
C28   H73   S    
Cr5   O12   S    
C87   H1    S    
C88   C93   A    
C38   C42   A    
C108  O43   A    
C68   O26   A    
C34   H45   S    
Cr7   O43   S    
C27   H71   S    
C24   C25   S    
Cr8   O44   S    
C102  O33   A    
C51   H8    S    
C58   H11   S    
C18   C81   S    
Cr8   O18   S    
C35   H56   S    
C100  O31   A    
C42   C46   A    
C19   H48   S    
Cr1   O40   S    
Cr2   O28   S    
C63   C72   A    
C52   C100  S    
Br5   C5    S    
C82   C86   A    
C16   C95   S    
C56   C62   A    
C2    C103  A    
C8    H16   S    
Cr11  O13   S    
Cr3   O29   S    
C21   H54   S    
C89   C94   A    
Cr10  O20   S    
C9    H17   S    
C50   H7    S    
C19   H47   S    
C6    C121  A    
Cr3   O3    S    
C6    C7    A    
C30   C34   A    
C61   C69   A    
C77   C82   A    
C4    C119  A    
C109  O45   A    
C15   H36   S    
C25   H63   S    
Br7   C7    S    
C20   H50   S    
C20   H51   S    
C40   C48   S    
C69   C71   A    
C79   C84   A    
C24   C81   A    
C99   C117  S    
C101  O12   A    
C11   H24   S    
C76   C80   A    
C4    C5    A    
Cr4   O35   S    
C8    C74   S    
C33   C55   A    
Br12  C30   S    
C60   H13   S    
C11   C77   S    
C57   C61   A    
C91   C96   A    
C101  O32   A    
Cr5   O41   S    
C96   C113  S    
C54   C102  S    
Cr7   O39   S    
Cr11  O48   S    
C117  O39   A    
C120  C124  A    
C106  O41   A    
C76   C98   A    
C116  O7    A    
C1    O18   A    
C36   H67   S    
Br10  C80   S    
C17   H42   S    
Cr1   O9    S    
C26   H69   S    
C118  C122  A    
C68   O30   A    
C39   C59   S    
C26   H66   S    
C60   C63   A    
Br6   C6    S    
C28   H75   S    
C14   C93   S    
C25   H65   S    
C37   O15   A    
Cr12  O5    S    
C46   H4    S    
C80   C85   A    
C108  O48   A    
Cr2   O32   S    
Br4   C33   S    
C14   H30   S    
C22   H57   S    
C36   C41   A    
C110  O2    A    
C51   C55   A    
Br3   C32   S    
C48   O16   A    
C75   C79   A    
Cr9   O19   S    
C117  O8    A    
Cr3   O11   S    
C63   C112  S    
C90   H34   S    
C27   H72   S    
Cr2   O2    S    
C113  O5    A    
C72   C73   A    
Cr1   O1    S    
Cr10  O47   S    
C74   C78   A    
C16   H39   S    
Br1   C4    S    
C50   C54   A    
C56   C57   A    
C37   C41   S    
C3    C124  A    
C112  O51   A    
C15   C94   S    
C86   C90   A    
C8    H15   S    
C107  O47   A    
C34   C39   A    
C21   H55   S    
C29   H77   S    
C9    H18   S    
Cr12  O9    S    
C28   H74   S    
Cr8   O45   S    
Cr7   O17   S    
Cr5   O37   S    
C43   H80   S    
C70   C122  A    
C55   C104  S    
Cr6   O42   S    
C25   H64   S    
C2    C114  A    
C16   H38   S    
C95   C99   A    
C88   H12   S    
C67   O29   A    
C1    O14   A    
C49   C53   A    
Br2   C31   S    
C31   C53   A    
C8    H14   S    
Cr9   O10   S    
Cr7   O13   S    
C57   H10   S    
C67   O25   A    
C111  O3    A    
C90   C95   A    
Cr7   O34   S    
Cr5   O15   S    
C18   H43   S    
Cr10  O11   S    
C32   C36   A    
C10   H22   S    
Cr4   O30   S    
C15   H33   S    
C13   C23   S    
C7    C120  A    
C75   C97   A    
Cr1   O14   S    
Br11  C82   S    
Cr2   O10   S    
Cr4   O4    S    
C84   C107  S    
C18   H44   S    
Cr3   O33   S    
C26   C69   S    
Cr3   O7    S    
C13   C70   A    
C83   C108  S    
C17   H41   S    
C38   H78   S    
Br8   C78   S    
C59   O17   A    
Cr12  O31   S    
C44   H2    S    
C56   H9    S    
C12   H28   S    
C110  O49   A    
C30   C52   A    
C19   H49   S    
C105  O44   A    
C86   C105  S    
C3    C103  A    
C1    C42   S    
C94   C98   A    
C46   C51   A    
C107  O42   A    
Cr8   O22   S    
Cr11  O21   S    
C115  O6    A    
C41   C45   A    
Cr6   O23   S    
C115  O37   A    
C5    C118  A    
C85   C106  S    
C64   C111  S    
C53   C101  S    
C23   H62   S    
Cr9   O49   S    
Cr6   O38   S    
C26   H68   S    
C81   C123  A    
C78   C83   A    
C2    C22   S    
Cr11  O51   S    
C48   O20   A    
C35   C40   A    
C11   H25   S    
C14   H32   S    
C22   H59   S    
C112  O4    A    
C29   C73   S    
C3    C121  A    
C77   C99   A    
Cr11  O26   S    
C119  C123  A    
C9    H19   S    
C17   H40   S    
C10   H21   S    
C12   C91   S    
C66   O28   A    
C19   C92   S    
Cr9   O46   S    
C66   C118  S    
C10   C76   S    
C10   H20   S    
Cr10  O25   S    
C47   C52   A    
C104  O35   A    
C16   H37   S    
Cr4   O13   S    
C65   C119  S    
C58   C64   A    
C21   H53   S    
C18   H46   S    
C93   C97   A    
C33   C38   A    
Cr6   O16   S    
C102  O23   A    
C84   C88   A    
C113  O36   A    
C37   O19   A    
C21   C114  S    
C97   C115  S    
Cr8   O9    S    
C89   H23   S    
C83   C87   A    
C39   C43   A    
C20   C103  S    
C23   H61   S    
C29   H76   S    
C122  C123  A    
C67   C121  S    
C15   H35   S    
C105  O40   A    
C104  O34   A    
C45   H3    S    
C100  O1    A    
C13   C24   A    
C27   C71   S    
Cr1   O36   S    
Cr12  O52   S    
C23   H60   S    
C17   C70   S    
C62   C109  S    
C92   C114  A    
Cr2   O6    S    
Cr12  O27   S    
C20   H52   S    
C61   C110  S    
C12   H29   S    
Cr4   O8    S    
C116  O38   A    
C44   C49   A    
C58   C60   A    
C65   O22   A    
C74   C96   A    
Cr10  O50   S    
C12   H27   S    
C31   C35   A    
C64   C73   A    
C59   O21   A    
C85   C89   A    
C40   C44   A    
C98   C116  S    
Cr6   O11   S    
