data_mof_unit_61012.cif
_audit_creation_date              2013-03-05T16:42:04-0500
_audit_creation_method            fapswitch 2.2
_symmetry_space_group_name_H-M    P1
_symmetry_Int_Tables_number       1
_space_group_crystal_system       triclinic
_cell_length_a                    17.775338
_cell_length_b                    16.577614
_cell_length_c                    10.684699
_cell_angle_alpha                 90.633697
_cell_angle_beta                  92.542425
_cell_angle_gamma                 90.950799
_cell_volume                      3144.73742162

loop_
_atom_site_label
_atom_site_type_symbol
_atom_site_description
_atom_site_fract_x
_atom_site_fract_y
_atom_site_fract_z
_atom_type_partial_charge
O1    O     O_R   0.391260 0.567930 0.500000 -0.542157
O2    O     O_R   0.608740 0.432070 0.500000 -0.537798
O3    O     O_R   0.608740 0.567930 0.500000 -0.530567
O4    O     O_R   0.391260 0.432070 0.500000 -0.529852
C1    C     C_R   0.355572 0.499265 0.508567 0.885441
C2    C     C_R   0.644463 0.500726 0.491380 0.885870
O5    O     O_R   0.499980 0.567900 0.316850 -0.551809
O6    O     O_R   0.500020 0.432100 0.683150 -0.556265
O7    O     O_R   0.500020 0.567900 0.683150 -0.558370
O8    O     O_R   0.499980 0.432100 0.316850 -0.558276
C3    C     C_R   0.500740 0.499523 0.259536 0.928825
C4    C     C_R   0.498981 0.500454 0.740393 0.931345
Cu1   Cu    Cu3+1 0.500000 0.580420 0.500000 1.144980
Cu2   Cu    Cu3+1 0.500000 0.419580 0.500000 1.145258
C5    C     C_3   0.549523 0.553842 0.045236 0.257228
C6    C     C_3   0.449794 0.445998 0.954478 0.257862
C7    C     C_3   0.566923 0.482040 0.961381 0.239782
C8    C     C_3   0.432362 0.517795 0.038390 0.243589
C9    C     C_3   0.480258 0.575410 0.960005 -0.203972
C10   C     C_3   0.519049 0.424451 0.039783 -0.207928
H1    H     H_    0.462242 0.635972 0.929117 0.270876
H2    H     H_    0.537139 0.363934 0.070674 0.271133
C11   C     C_3   0.498235 0.501654 0.876126 -0.300607
C12   C     C_3   0.501113 0.498222 0.123687 -0.300202
C13   C     C_R   0.848944 0.573742 0.497926 -0.147853
C14   C     C_R   0.150836 0.427458 0.498614 -0.148085
C15   C     C_R   0.155171 0.571050 0.537746 -0.144297
C16   C     C_R   0.845544 0.429192 0.469930 -0.145289
H3    H     H_    0.881560 0.629500 0.507638 0.200112
H4    H     H_    0.117940 0.372134 0.484910 0.199496
H5    H     H_    0.125638 0.626551 0.554620 0.200499
H6    H     H_    0.875442 0.373372 0.457729 0.199845
C17   C     C_R   0.770355 0.576109 0.488036 0.329089
C18   C     C_R   0.229386 0.424515 0.507324 0.328246
C19   C     C_R   0.233935 0.570482 0.547372 0.322110
C20   C     C_R   0.766813 0.429083 0.459329 0.322561
C21   C     C_R   0.727611 0.502379 0.477259 -0.242590
C22   C     C_R   0.272542 0.497628 0.523257 -0.240949
C23   C     C_R   0.886013 0.500896 0.491139 -0.011312
C24   C     C_R   0.114222 0.500200 0.511510 -0.011317
C25   C     C_1   0.966384 0.500679 0.498646 0.067884
C26   C     C_1   0.033859 0.500892 0.504590 0.067963
C27   C     C_R   0.538560 0.830813 0.596468 0.156666
C28   C     C_R   0.460517 0.167971 0.407400 0.160676
C29   C     C_R   0.455801 0.828653 0.411875 0.164174
C30   C     C_R   0.537291 0.172119 0.598620 0.160639
C31   C     C_R   0.538538 0.745044 0.594028 0.386858
C32   C     C_R   0.462511 0.253981 0.405781 0.381291
C33   C     C_R   0.459050 0.742752 0.409504 0.386149
C34   C     C_R   0.538107 0.257857 0.594569 0.392528
N1    N     N_R   0.500000 0.701220 0.500000 -0.312321
N2    N     N_R   0.500000 0.298780 0.500000 -0.311387
C35   C     C_R   0.496432 0.873495 0.505688 -0.197080
C36   C     C_R   0.498230 0.126258 0.504616 -0.200403
C37   C     C_1   0.497068 0.962872 0.506583 0.235432
C38   C     C_1   0.497657 0.036915 0.506729 0.232400
N3    N     N_R   0.606689 0.610102 0.097133 0.194942
O9    O     O_R   0.600062 0.687225 0.080085 -0.185399
O10   O     O_R   0.665472 0.582962 0.158855 -0.285394
N4    N     N_R   0.392809 0.389605 0.902236 0.193783
O11   O     O_R   0.398582 0.312678 0.922010 -0.184006
O12   O     O_R   0.335420 0.416335 0.836367 -0.288866
N5    N     N_R   0.641504 0.465070 0.917481 0.184717
O13   O     O_R   0.675569 0.399481 0.951283 -0.213845
O14   O     O_R   0.675452 0.516942 0.848045 -0.273442
N6    N     N_R   0.357741 0.534707 0.082186 0.183936
O15   O     O_R   0.323571 0.600182 0.048124 -0.213580
O16   O     O_R   0.323806 0.482827 0.151615 -0.274322
N7    N     N_R   0.736360 0.654109 0.482846 0.167613
O17   O     O_R   0.764157 0.712489 0.554087 -0.245310
O18   O     O_R   0.692681 0.672348 0.386760 -0.255273
N8    N     N_R   0.263030 0.346364 0.506135 0.166775
O19   O     O_R   0.235939 0.291036 0.428497 -0.242385
O20   O     O_R   0.304969 0.324145 0.602126 -0.256893
N9    N     N_R   0.273055 0.642868 0.590253 0.161391
O21   O     O_R   0.249627 0.712877 0.552612 -0.255688
O22   O     O_R   0.321186 0.640006 0.685480 -0.304076
N10   N     N_R   0.728387 0.355175 0.421994 0.161513
O23   O     O_R   0.751316 0.286912 0.467555 -0.256270
O24   O     O_R   0.681864 0.354151 0.324380 -0.302100
N11   N     N_R   0.581217 0.874044 0.693444 0.178478
O25   O     O_R   0.652407 0.859628 0.714075 -0.190842
O26   O     O_R   0.547290 0.921715 0.769328 -0.209296
N12   N     N_R   0.419242 0.123571 0.309681 0.190987
O27   O     O_R   0.350049 0.141994 0.278876 -0.176748
O28   O     O_R   0.451318 0.066141 0.248720 -0.228866
N13   N     N_R   0.409535 0.869803 0.320210 0.186348
O29   O     O_R   0.359046 0.920118 0.355690 -0.234308
O30   O     O_R   0.420591 0.860836 0.201396 -0.177837
N14   N     N_R   0.575915 0.132123 0.700202 0.177705
O31   O     O_R   0.647743 0.144517 0.722507 -0.197063
O32   O     O_R   0.537788 0.089898 0.778170 -0.204295
N15   N     N_R   0.573672 0.705303 0.698930 0.174301
O33   O     O_R   0.636751 0.668304 0.687091 -0.238847
O34   O     O_R   0.552924 0.722869 0.811039 -0.272450
N16   N     N_R   0.429789 0.292677 0.297922 0.172591
O35   O     O_R   0.368702 0.333792 0.306504 -0.238012
O36   O     O_R   0.450867 0.271851 0.187308 -0.271722
N17   N     N_R   0.415948 0.699722 0.313701 0.174493
O37   O     O_R   0.345001 0.684483 0.329057 -0.254087
O38   O     O_R   0.440802 0.696945 0.201082 -0.265472
N18   N     N_R   0.578475 0.301016 0.693457 0.175775
O39   O     O_R   0.646976 0.326027 0.677069 -0.248431
O40   O     O_R   0.555958 0.294698 0.807202 -0.266344

loop_
_geom_bond_atom_site_label_1
_geom_bond_atom_site_label_2
_geom_bond_distance
_ccdc_geom_bond_type
N6    O16   1.300180 A    
C37   C38   1.227317 T    
N5    O14   1.300241 A    
N15   O33   1.297346 A    
C25   C26   1.198197 T    
C9    C11   1.553855 S    
N13   O29   1.301111 A    
O3    C2    1.295863 A    
N11   O25   1.301332 A    
N14   O31   1.300910 A    
C23   C25   1.427392 S    
C5    C9    1.547703 S    
C4    C11   1.450841 S    
C19   N9    1.437116 S    
C7    C11   1.532089 S    
C8    C12   1.533050 S    
C20   C21   1.425996 A    
C29   N13   1.436270 S    
N12   O28   1.301149 A    
C32   N2    1.384403 A    
N10   O24   1.301764 A    
N3    O10   1.300066 A    
C3    C12   1.451731 S    
C7    C10   1.546386 S    
N4    O12   1.300183 A    
C8    C9    1.546756 S    
C6    N4    1.455484 S    
N7    O18   1.300849 A    
O7    Cu1   1.970145 S    
Cu1   N1    2.002574 S    
C14   C18   1.396921 A    
Cu2   N2    2.002574 S    
C10   C12   1.554015 S    
C33   N1    1.381196 A    
N16   O36   1.300369 A    
C34   N2    1.381933 A    
O6    C4    1.282504 A    
O3    Cu1   1.947360 S    
C17   N7    1.436931 S    
C24   C26   1.427356 S    
N6    O15   1.300186 A    
C29   C35   1.407287 A    
N15   O34   1.300271 A    
C1    C22   1.490948 S    
C5    N3    1.454985 S    
O2    C2    1.300243 A    
N11   O26   1.300248 A    
C27   C35   1.403758 A    
C35   C37   1.481433 S    
C13   H3    1.084454 S    
C36   C38   1.481388 S    
C15   H5    1.084153 S    
N18   O39   1.299600 A    
C16   H6    1.084208 S    
C19   C22   1.425589 A    
N12   O27   1.301197 A    
N8    O20   1.301145 A    
O8    Cu2   1.970146 S    
N10   O23   1.301384 A    
N8    O19   1.301680 A    
C31   N1    1.382996 A    
C16   C23   1.390329 A    
C15   C19   1.399453 A    
C17   C21   1.429257 A    
N4    O11   1.299948 A    
O5    C3    1.282958 A    
N9    O21   1.301393 A    
C33   N17   1.428211 S    
N14   O32   1.300202 A    
N17   O37   1.299937 A    
C29   C33   1.426153 A    
C15   C24   1.390727 A    
C6    C10   1.547910 S    
N16   O35   1.297708 A    
C30   C36   1.404499 A    
C31   N15   1.431169 S    
C2    C21   1.492128 S    
N18   O40   1.301067 A    
N9    O22   1.301788 A    
C5    C12   1.532326 S    
N17   O38   1.300699 A    
C10   H2    1.107890 S    
C14   H4    1.084496 S    
C6    C11   1.532388 S    
N13   O30   1.300489 A    
C27   N11   1.434577 S    
O1    C1    1.300005 A    
O1    Cu1   1.940529 S    
C18   N8    1.436070 S    
C5    C7    1.525914 S    
O6    Cu2   1.965578 S    
C32   N16   1.430804 S    
C9    H1    1.108175 S    
C18   C22   1.428099 A    
O4    C1    1.295374 A    
C28   N12   1.437801 S    
C34   N18   1.429036 S    
C30   N14   1.433147 S    
C8    N6    1.456530 S    
C30   C34   1.422332 A    
C20   N10   1.436682 S    
C7    N5    1.456455 S    
C14   C24   1.388196 A    
N3    O9    1.299973 A    
O4    Cu2   1.947362 S    
N7    O17   1.301788 A    
O2    Cu2   1.940528 S    
O7    C4    1.280620 A    
O8    C3    1.280564 A    
N5    O13   1.300180 A    
C28   C36   1.405705 A    
O5    Cu1   1.965579 S    
C16   C20   1.398995 A    
C6    C8    1.526358 S    
Cu1   Cu2   2.666345 S    
C27   C31   1.421792 A    
C13   C23   1.387968 A    
C28   C32   1.426015 A    
C13   C17   1.397492 A    
