data_mof_unit_9176.cif
_audit_creation_date              2012-12-11T14:41:06-0500
_audit_creation_method            fapswitch 2.2
_symmetry_space_group_name_H-M    P1
_symmetry_Int_Tables_number       1
_space_group_crystal_system       triclinic
_cell_length_a                    24.625525
_cell_length_b                    17.49644
_cell_length_c                    15.615061
_cell_angle_alpha                 89.802231
_cell_angle_beta                  129.825638
_cell_angle_gamma                 90.117697
_cell_volume                      5166.96848727

loop_
_atom_site_label
_atom_site_type_symbol
_atom_type_description
_atom_site_fract_x
_atom_site_fract_y
_atom_site_fract_z
_atom_type_partial_charge
C1    C     C_R   0.353988 0.356071 0.247537 -0.124122
C2    C     C_R   0.644575 0.681301 0.501594 -0.023356
C3    C     C_2   0.925833 0.327194 0.630915 1.045395
C4    C     C_2   0.286948 0.135720 0.589024 1.043854
C5    C     C_2   0.330574 0.834188 0.729142 0.994370
C6    C     C_2   0.786950 0.635724 0.589031 1.043857
C7    C     C_2   0.830575 0.334191 0.729141 0.994377
C8    C     C_2   0.576533 0.825359 0.373606 1.052033
C9    C     C_2   0.682736 0.394886 0.302300 0.986689
C10   C     C_2   0.076533 0.325359 0.373606 1.052037
C11   C     C_2   0.182738 0.894889 0.302303 0.986691
C12   C     C_2   0.266914 0.429518 0.629526 1.062347
C13   C     C_R   0.189655 0.899553 0.503298 0.083734
C14   C     C_2   0.220872 0.631630 0.449103 1.036128
C15   C     C_2   0.766917 0.929519 0.629528 1.062346
C16   C     C_2   0.720870 0.131630 0.449103 1.036130
C17   C     C_3   0.245700 0.424702 0.287542 -1.053859
C18   C     C_3   0.260517 0.639788 0.289470 -1.031219
C19   C     C_3   0.745700 0.924701 0.287542 -1.053866
C20   C     C_3   0.760516 0.139785 0.289470 -1.031224
C21   C     C_2   0.521758 0.339106 0.796342 0.955343
C22   C     C_2   0.544483 0.587709 0.853256 1.003360
C23   C     C_2   0.021757 0.839104 0.796339 0.955345
C24   C     C_R   0.144575 0.181301 0.501594 -0.023355
C25   C     C_2   0.044480 0.087721 0.853252 1.003345
C26   C     C_R   0.313009 0.390404 0.494972 -0.064804
C27   C     C_R   0.352547 0.678570 0.499947 -0.064375
C28   C     C_R   0.813009 0.890404 0.494972 -0.064802
C29   C     C_R   0.852545 0.178568 0.499946 -0.064363
C30   C     C_3   0.289713 0.254012 0.499193 -0.300312
C31   C     C_3   0.364238 0.790167 0.615579 -0.317763
C32   C     C_3   0.789713 0.754013 0.499192 -0.300311
C33   C     C_R   0.333565 0.602933 0.192607 -0.120238
C34   C     C_3   0.864236 0.290166 0.615577 -0.317764
C35   C     C_3   0.742229 0.695789 0.498417 -0.300208
C36   C     C_3   0.819084 0.349041 0.622381 -0.280498
C37   C     C_3   0.242228 0.195788 0.498414 -0.300210
C38   C     C_3   0.319084 0.849040 0.622383 -0.280495
C39   C     C_3   0.275909 0.348333 0.606503 -0.244442
C40   C     C_3   0.257888 0.704949 0.511870 -0.238061
C41   C     C_3   0.775909 0.848333 0.606504 -0.244442
C42   C     C_3   0.757887 0.204948 0.511872 -0.238063
C43   C     C_3   0.186170 0.349724 0.394639 -0.408520
C44   C     C_R   0.853988 0.856070 0.247537 -0.124122
C45   C     C_3   0.278986 0.796410 0.404255 -0.446543
C46   C     C_3   0.686170 0.849725 0.394639 -0.408522
C47   C     C_3   0.778983 0.296406 0.404253 -0.446540
C48   C     C_3   0.265917 0.338113 0.496790 0.153350
C49   C     C_3   0.314081 0.740999 0.505973 0.162857
C50   C     C_3   0.765916 0.838114 0.496790 0.153351
C51   C     C_3   0.814079 0.240997 0.505972 0.162853
C52   C     C_3   0.688142 0.739272 0.502380 0.159802
C53   C     C_3   0.739533 0.348038 0.507629 0.132121
C54   C     C_3   0.188142 0.239271 0.502380 0.159806
C55   C     C_R   0.833565 0.102934 0.192607 -0.120236
C56   C     C_3   0.239533 0.848038 0.507629 0.132122
C57   C     C_3   0.727826 0.791706 0.606959 -0.415028
C58   C     C_3   0.706163 0.267280 0.485810 -0.398647
C59   C     C_3   0.227828 0.291705 0.606959 -0.415028
C60   C     C_3   0.206164 0.767280 0.485808 -0.398652
C61   C     C_R   0.649663 0.360027 0.752207 -0.117265
C62   C     C_R   0.668273 0.606376 0.801054 -0.131560
C63   C     C_R   0.149663 0.860027 0.752207 -0.117264
C64   C     C_R   0.168272 0.106377 0.801053 -0.131561
C65   C     C_3   0.640560 0.790105 0.394892 -0.240920
C66   C     C_R   0.618251 0.316876 0.784429 0.050878
C67   C     C_3   0.746893 0.366847 0.416329 -0.221026
C68   C     C_3   0.140560 0.290105 0.394892 -0.240923
C69   C     C_3   0.246895 0.866849 0.416332 -0.221023
C70   C     C_2   0.645450 0.244660 0.846670 -0.131967
C71   C     C_2   0.697597 0.653683 0.979909 -0.127577
C72   C     C_2   0.145450 0.744660 0.846670 -0.131966
C73   C     C_2   0.197597 0.153684 0.979908 -0.127608
C74   C     C_2   0.698386 0.207104 0.862149 -0.094571
C75   C     C_2   0.767738 0.653404 0.040370 -0.114222
C76   C     C_2   0.198386 0.707104 0.862149 -0.094569
C77   C     C_R   0.649499 0.625019 0.865113 0.065398
C78   C     C_2   0.267737 0.153405 0.040369 -0.114220
C79   C     C_2   0.309535 0.650794 0.016671 -0.193289
C80   C     C_2   0.363675 0.242409 0.155863 -0.187933
C81   C     C_2   0.809535 0.150795 0.016671 -0.193289
C82   C     C_2   0.863675 0.742409 0.155863 -0.187933
C83   C     C_2   0.239207 0.652768 0.954134 -0.103797
C84   C     C_2   0.310000 0.203825 0.136576 -0.100026
C85   C     C_2   0.739207 0.152769 0.954134 -0.103798
C86   C     C_2   0.810000 0.703825 0.136576 -0.100028
C87   C     C_R   0.618348 0.406306 0.410502 -0.141671
C88   C     C_R   0.118251 0.816876 0.784429 0.050873
C89   C     C_R   0.592054 0.639891 0.407618 -0.086830
C90   C     C_R   0.118348 0.906305 0.410503 -0.141667
C91   C     C_R   0.092054 0.139890 0.407618 -0.086834
C92   C     C_R   0.382553 0.403744 0.588095 -0.101324
C93   C     C_R   0.408550 0.638730 0.592318 -0.056111
C94   C     C_R   0.882552 0.903744 0.588095 -0.101336
C95   C     C_R   0.908547 0.138728 0.592318 -0.056130
C96   C     C_R   0.692074 0.410577 0.592858 -0.107490
C97   C     C_R   0.666019 0.639975 0.594179 -0.086292
C98   C     C_R   0.192074 0.910577 0.592858 -0.107492
C99   C     C_R   0.149498 0.125022 0.865111 0.065399
C100  C     C_R   0.166019 0.139975 0.594179 -0.086294
C101  C     C_R   0.309734 0.403787 0.404405 0.344151
C102  C     C_R   0.329698 0.636098 0.406240 0.361259
C103  C     C_R   0.809734 0.903787 0.404405 0.344154
C104  C     C_R   0.829697 0.136097 0.406239 0.361261
C105  C     C_R   0.561139 0.358854 0.758085 -0.035360
C106  C     C_R   0.579215 0.603334 0.805001 -0.080368
C107  C     C_R   0.061139 0.858854 0.758084 -0.035355
C108  C     C_R   0.079214 0.103337 0.804998 -0.080340
C109  C     C_R   0.444440 0.357422 0.245662 -0.115950
C110  C     C_R   0.689655 0.399554 0.503298 0.083733
C111  C     C_R   0.425642 0.608360 0.198355 -0.085772
C112  C     C_R   0.944440 0.857422 0.245661 -0.115951
C113  C     C_R   0.925642 0.108360 0.198355 -0.085776
C114  C     C_R   0.387476 0.314745 0.216852 0.135776
C115  C     C_R   0.354814 0.624251 0.132703 0.136677
C116  C     C_R   0.887476 0.814745 0.216852 0.135779
C117  C     C_R   0.854814 0.124252 0.132703 0.136678
C118  C     C_2   0.294610 0.234854 0.409501 1.021019
C119  C     C_2   0.425834 0.827196 0.630920 1.045392
C120  C     C_2   0.794607 0.734854 0.409498 1.021023
H1    H     H_    0.308185 0.338821 0.236932 0.132225
H2    H     H_    0.286260 0.686778 0.599475 0.173138
H3    H     H_    0.762486 0.184379 0.240849 0.251294
H4    H     H_    0.492300 0.369710 0.885624 0.340059
H5    H     H_    0.465721 0.534200 0.836981 0.357093
H6    H     H_    0.992299 0.869706 0.885622 0.340060
H7    H     H_    0.965725 0.034204 0.836989 0.357089
H8    H     H_    0.831116 0.831729 0.678656 0.148917
H9    H     H_    0.786259 0.186778 0.599477 0.173137
H10   H     H_    0.761321 0.757986 0.685208 0.185529
H11   H     H_    0.689384 0.256614 0.536247 0.203020
H12   H     H_    0.261324 0.257984 0.685207 0.185531
H13   H     H_    0.189383 0.756613 0.536243 0.203022
H14   H     H_    0.668951 0.908679 0.392164 0.198072
H15   H     H_    0.735901 0.267033 0.327712 0.211842
H16   H     H_    0.168951 0.408679 0.392161 0.198069
H17   H     H_    0.279785 0.590711 0.154470 0.108283
H18   H     H_    0.235905 0.767037 0.327713 0.211841
H19   H     H_    0.175758 0.341479 0.315602 0.205260
H20   H     H_    0.317134 0.814465 0.392483 0.200053
H21   H     H_    0.675756 0.841482 0.315601 0.205259
H22   H     H_    0.817130 0.314461 0.392477 0.200053
H23   H     H_    0.618799 0.752907 0.321585 0.139389
H24   H     H_    0.785333 0.414596 0.448601 0.201143
H25   H     H_    0.118799 0.252907 0.321584 0.139387
H26   H     H_    0.285335 0.914598 0.448606 0.201146
H27   H     H_    0.696196 0.346444 0.762195 0.119536
H28   H     H_    0.808186 0.838821 0.236932 0.132224
H29   H     H_    0.721094 0.604916 0.828283 0.102736
H30   H     H_    0.196196 0.846444 0.762195 0.119537
H31   H     H_    0.221094 0.104916 0.828282 0.102737
H32   H     H_    0.689496 0.821456 0.610350 0.207007
H33   H     H_    0.657426 0.264601 0.396853 0.217562
H34   H     H_    0.189497 0.321454 0.610352 0.207006
H35   H     H_    0.157427 0.764601 0.396850 0.217562
H36   H     H_    0.213155 0.626132 0.982062 0.138477
H37   H     H_    0.288563 0.220053 0.176637 0.151798
H38   H     H_    0.713156 0.126131 0.982062 0.138477
H39   H     H_    0.779785 0.090713 0.154470 0.108283
H40   H     H_    0.788562 0.720054 0.176636 0.151795
H41   H     H_    0.718851 0.225042 0.821062 0.141842
H42   H     H_    0.792419 0.626429 0.010452 0.140195
H43   H     H_    0.218851 0.725042 0.821063 0.141841
H44   H     H_    0.292418 0.126431 0.010450 0.140197
H45   H     H_    0.334768 0.678361 0.987632 0.148149
H46   H     H_    0.384145 0.226241 0.114094 0.152251
H47   H     H_    0.834768 0.178362 0.987633 0.148151
H48   H     H_    0.884145 0.726241 0.114095 0.152250
H49   H     H_    0.626762 0.226145 0.890337 0.158414
H50   H     H_    0.710084 0.663892 0.417957 0.162616
H51   H     H_    0.674913 0.683328 0.011436 0.194864
H52   H     H_    0.126761 0.726144 0.890335 0.158412
H53   H     H_    0.174914 0.183329 0.011436 0.194875
H54   H     H_    0.593131 0.403466 0.323759 0.134659
H55   H     H_    0.566615 0.651319 0.321483 0.119722
H56   H     H_    0.093132 0.903464 0.323759 0.134658
H57   H     H_    0.066615 0.151318 0.321483 0.119719
H58   H     H_    0.401709 0.408924 0.671896 0.179109
H59   H     H_    0.436814 0.652746 0.678033 0.131466
H60   H     H_    0.901708 0.908924 0.671896 0.179112
H61   H     H_    0.839891 0.407743 0.631554 0.167455
H62   H     H_    0.936809 0.152742 0.678033 0.131460
H63   H     H_    0.737924 0.423589 0.677029 0.123733
H64   H     H_    0.709320 0.651802 0.680675 0.104316
H65   H     H_    0.237924 0.923588 0.677030 0.123732
H66   H     H_    0.209320 0.151801 0.680674 0.104320
H67   H     H_    0.481563 0.342052 0.233501 0.122959
H68   H     H_    0.455898 0.606279 0.170211 0.108783
H69   H     H_    0.981563 0.842052 0.233501 0.122958
H70   H     H_    0.955898 0.106279 0.170211 0.108783
H71   H     H_    0.344898 0.248264 0.579196 0.186127
H72   H     H_    0.210083 0.163894 0.417953 0.162620
H73   H     H_    0.389434 0.750757 0.687859 0.127166
H74   H     H_    0.844897 0.748265 0.579193 0.186129
H75   H     H_    0.889433 0.250758 0.687858 0.127173
H76   H     H_    0.358314 0.207322 0.374895 0.325764
H77   H     H_    0.531419 0.829673 0.718920 0.337318
H78   H     H_    0.858307 0.707316 0.374887 0.325765
H79   H     H_    0.031417 0.329671 0.718913 0.337318
H80   H     H_    0.363587 0.111770 0.752280 0.341194
H81   H     H_    0.314877 0.766464 0.816272 0.316056
H82   H     H_    0.863590 0.611780 0.752289 0.341195
H83   H     H_    0.339891 0.907743 0.631558 0.167453
H84   H     H_    0.814880 0.266469 0.816275 0.316057
H85   H     H_    0.470097 0.828860 0.274606 0.335698
H86   H     H_    0.633319 0.484413 0.196762 0.343086
H87   H     H_    0.970097 0.328865 0.274601 0.335698
H88   H     H_    0.133321 0.984416 0.196767 0.343077
H89   H     H_    0.313672 0.522803 0.727026 0.337103
H90   H     H_    0.230129 0.519354 0.437443 0.325817
H91   H     H_    0.813676 0.022801 0.727032 0.337102
H92   H     H_    0.730127 0.019354 0.437441 0.325817
H93   H     H_    0.261774 0.457613 0.246306 0.247181
H94   H     H_    0.331116 0.331731 0.678656 0.148911
H95   H     H_    0.218465 0.372981 0.236197 0.273892
H96   H     H_    0.208584 0.460656 0.287150 0.260217
H97   H     H_    0.247897 0.583231 0.250389 0.252055
H98   H     H_    0.214991 0.650822 0.285196 0.268128
H99   H     H_    0.262488 0.684380 0.240849 0.251293
H100  H     H_    0.761773 0.957612 0.246305 0.247182
H101  H     H_    0.718465 0.872981 0.236197 0.273893
H102  H     H_    0.708584 0.960656 0.287150 0.260217
H103  H     H_    0.747897 0.083229 0.250389 0.252056
H104  H     H_    0.714990 0.150818 0.285197 0.268128
N1    N     N_R   0.389430 0.421450 0.294590 -0.051684
N2    N     N_R   0.581780 0.577610 0.443390 -0.039979
N3    N     N_R   0.081780 0.922390 0.443390 -0.046619
N4    N     N_R   0.081780 0.077610 0.443390 -0.039978
N5    N     N_R   0.419850 0.423100 0.556610 -0.055514
N6    N     N_R   0.419850 0.576900 0.556610 -0.038233
N7    N     N_R   0.919850 0.923100 0.556610 -0.055516
N8    N     N_R   0.919850 0.076900 0.556610 -0.038240
N9    N     N_R   0.627410 0.423100 0.556610 -0.049009
N10   N     N_R   0.627410 0.576900 0.556610 -0.040224
N11   N     N_R   0.127410 0.923100 0.556610 -0.049008
N12   N     N_R   0.389430 0.578550 0.294590 -0.050712
N13   N     N_R   0.127410 0.076900 0.556610 -0.040224
N14   N     N_R   0.374220 0.422390 0.443390 -0.056978
N15   N     N_R   0.374220 0.577610 0.443390 -0.057587
N16   N     N_R   0.874220 0.922390 0.443390 -0.056978
N17   N     N_R   0.874220 0.077610 0.443390 -0.057587
N18   N     N_R   0.555000 0.424040 0.705410 -0.063937
N19   N     N_R   0.555000 0.575960 0.705410 -0.064702
N20   N     N_R   0.055000 0.924040 0.705410 -0.063934
N21   N     N_R   0.055000 0.075960 0.705410 -0.064705
N22   N     N_R   0.446630 0.421450 0.294590 -0.050302
N23   N     N_R   0.889430 0.921450 0.294590 -0.051684
N24   N     N_R   0.446630 0.578550 0.294590 -0.053027
N25   N     N_R   0.946630 0.921450 0.294590 -0.050302
N26   N     N_R   0.946630 0.078550 0.294590 -0.053027
N27   N     N_R   0.889430 0.078550 0.294590 -0.050712
N28   N     N_R   0.612200 0.424040 0.705410 -0.057695
N29   N     N_R   0.612200 0.575960 0.705410 -0.054335
N30   N     N_R   0.112200 0.924040 0.705410 -0.057695
N31   N     N_R   0.112200 0.075960 0.705410 -0.054336
N32   N     N_R   0.581780 0.422390 0.443390 -0.046619
Ni1   Ni    Ni4+2 0.382890 0.500000 0.370170 0.215993
Ni2   Ni    Ni4+2 0.882890 0.000000 0.370170 0.215993
Ni3   Ni    Ni4+2 0.618740 0.500000 0.629830 0.226552
Ni4   Ni    Ni4+2 0.118740 0.000000 0.629830 0.226551
Ni5   Ni    Ni4+2 0.514090 0.500000 0.370170 0.228593
Ni6   Ni    Ni4+2 0.014090 0.000000 0.370170 0.228594
Ni7   Ni    Ni4+2 0.487550 0.500000 0.629830 0.289190
Ni8   Ni    Ni4+2 0.987550 0.000000 0.629830 0.289190
O1    O     O_2   0.241427 0.231270 0.311424 -0.656987
O2    O     O_R   0.337645 0.157218 0.700705 -0.797954
O3    O     O_2   0.366712 0.878722 0.807123 -0.627436
O4    O     O_R   0.302110 0.769621 0.740423 -0.830564
O5    O     O_2   0.778980 0.568157 0.563556 -0.641891
O6    O     O_R   0.837647 0.657225 0.700711 -0.797954
O7    O     O_2   0.866713 0.378726 0.807121 -0.627431
O8    O     O_R   0.802112 0.269624 0.740426 -0.830564
O9    O     O_2   0.583404 0.874069 0.435803 -0.581785
O10   O     O_R   0.508849 0.801989 0.280587 -0.812263
O11   O     O_2   0.635642 0.350660 0.233899 -0.649025
O12   O     O_R   0.360968 0.220195 0.440666 -0.773955
O13   O     O_R   0.678242 0.472070 0.274811 -0.765284
O14   O     O_2   0.083405 0.374066 0.435808 -0.581783
O15   O     O_R   0.008849 0.301993 0.280582 -0.812259
O16   O     O_2   0.135645 0.850662 0.233900 -0.649026
O17   O     O_R   0.178244 0.972073 0.274817 -0.765286
O18   O     O_2   0.208739 0.459916 0.571709 -0.582196
O19   O     O_R   0.325763 0.469107 0.719888 -0.810721
O20   O     O_2   0.157202 0.629923 0.370722 -0.620368
O21   O     O_R   0.259995 0.564162 0.485846 -0.791822
O22   O     O_2   0.708741 0.959917 0.571714 -0.582195
O23   O     O_2   0.416242 0.879828 0.570869 -0.625097
O24   O     O_R   0.825766 0.969105 0.719891 -0.810722
O25   O     O_2   0.657200 0.129923 0.370724 -0.620367
O26   O     O_R   0.759993 0.064162 0.485845 -0.791824
O27   O     O_2   0.493626 0.276438 0.774322 -0.625102
O28   O     O_R   0.520059 0.390197 0.862995 -0.769741
O29   O     O_2   0.566424 0.616956 0.941189 -0.630295
O30   O     O_R   0.486010 0.539072 0.797603 -0.782949
O31   O     O_2   0.993624 0.776436 0.774315 -0.625103
O32   O     O_R   0.020058 0.890194 0.862995 -0.769729
O33   O     O_2   0.066405 0.116992 0.941162 -0.630302
O34   O     O_R   0.494502 0.801158 0.716303 -0.807348
O35   O     O_R   0.986018 0.039069 0.797617 -0.782938
O36   O     O_2   0.741423 0.731272 0.311422 -0.656987
O37   O     O_R   0.860963 0.720190 0.440660 -0.773954
O38   O     O_2   0.916240 0.379825 0.570862 -0.625098
O39   O     O_R   0.994500 0.301156 0.716299 -0.807335
O40   O     O_2   0.278977 0.068155 0.563543 -0.641890

loop_
_geom_bond_atom_site_label_1
_geom_bond_atom_site_label_2
_ccdc_geom_bond_type
C34   H75   S    
N7    Ni8   S    
C6    O6    S    
C11   O16   D    
C62   C77   A    
C106  N19   A    
C42   C58   S    
N9    Ni3   S    
C75   H42   S    
C72   H52   S    
C13   C90   A    
C14   O21   S    
C24   C54   S    
C57   H32   S    
C81   C117  S    
C6    C35   S    
C28   C94   A    
C3    O39   S    
C120  O36   D    
C20   H3    S    
C36   C53   S    
C112  H69   S    
C33   H17   S    
C111  N24   A    
C70   C74   D    
N20   N30   A    
C76   C83   S    
C80   H46   S    
C46   H21   S    
H6    O32   S    
C45   C69   S    
N8    N17   A    
C95   N8    A    
C46   C65   S    
C3    C34   S    
H85   O10   S    
H86   O13   S    
C58   H33   S    
C46   H14   S    
C75   C86   S    
C58   H11   S    
C23   C107  S    
C81   H47   S    
N22   Ni5   S    
C2    C52   S    
C87   N32   A    
C5    O3    D    
C27   C93   A    
C85   H38   S    
C119  O34   S    
C23   O32   S    
C120  O37   S    
C55   C117  A    
C87   H54   S    
C24   C100  A    
N15   Ni1   S    
H4    O28   S    
C53   C58   S    
C10   C68   S    
C40   H2    S    
N19   N29   A    
C60   H35   S    
C66   C70   S    
C61   N28   A    
C65   H23   S    
C61   H27   S    
C82   C116  S    
C44   C116  A    
C35   H50   S    
C36   H61   S    
C22   O29   D    
C26   C92   A    
C52   C65   S    
N3    Ni6   S    
C40   C60   S    
C79   C115  S    
C16   O25   D    
N12   N24   A    
C89   N2    A    
C118  O12   S    
H88   O17   S    
C87   C110  A    
C109  H67   S    
C99   C108  A    
N21   N31   A    
C34   C51   S    
C30   C48   S    
C7    O8    S    
C70   H49   S    
C98   H65   S    
N27   Ni2   S    
C54   C68   S    
C104  N17   A    
C18   C102  S    
N26   Ni6   S    
C44   N23   A    
C64   C99   A    
C103  N16   A    
C96   N9    A    
C10   O15   S    
C13   C56   S    
H80   O2    S    
C8    C65   S    
N6    N15   A    
C19   H102  S    
N19   Ni7   S    
C90   H56   S    
C54   C59   S    
N17   Ni2   S    
C57   H10   S    
C31   H73   S    
C43   C68   S    
C30   C118  S    
C29   C104  A    
N7    N16   A    
C9    C67   S    
C63   H30   S    
C118  O1    D    
N13   Ni4   S    
C21   O28   S    
C79   H45   S    
N2    Ni5   S    
C109  C114  A    
C113  C117  A    
H84   O8    S    
C71   H51   S    
C66   C105  A    
C18   H98   S    
C71   C77   S    
C119  O23   D    
C29   C51   S    
N1    N22   A    
N31   Ni4   S    
N8    Ni8   S    
C47   H15   S    
C9    O11   D    
H91   O24   S    
C27   C102  A    
H89   O19   S    
N18   N28   A    
C92   N5    A    
C97   N10   A    
C55   H39   S    
C45   H18   S    
C42   H9    S    
C34   C36   S    
C74   C85   S    
C43   H16   S    
C53   C67   S    
C1    H1    S    
H7    O35   S    
C37   H72   S    
C38   C56   S    
N28   Ni3   S    
C56   C69   S    
C25   O33   D    
C76   H43   S    
C19   H100  S    
C96   H63   S    
N16   Ni2   S    
N32   Ni5   S    
C81   C85   D    
C27   C49   S    
C93   N6    A    
C62   N29   A    
C63   C88   A    
C7    C36   S    
C112  C116  A    
C80   C84   D    
H5    O30   S    
C93   H59   S    
C82   H48   S    
C91   N4    A    
C63   N30   A    
C4    O2    S    
N14   Ni1   S    
C4    O40   D    
N9    N32   A    
C2    C97   A    
N20   Ni8   S    
N25   Ni6   S    
C17   H96   S    
C3    O38   D    
C8    O9    D    
H76   O12   S    
C26   C48   S    
C64   N31   A    
N23   N25   A    
C5    C38   S    
C6    O5    D    
C69   H26   S    
C9    O13   S    
C31   C49   S    
C23   O31   D    
C67   H24   S    
C59   H34   S    
N4    Ni6   S    
H77   O34   S    
N5    Ni7   S    
N10   Ni3   S    
H78   O37   S    
C59   H12   S    
C33   C115  A    
C64   H31   S    
C90   N3    A    
C112  N25   A    
C15   C41   S    
C88   C107  A    
C47   C51   S    
C14   O20   D    
N26   N27   A    
C82   C86   D    
C96   C110  A    
C108  N21   A    
C45   H20   S    
C56   C60   S    
C30   C37   S    
C41   C50   S    
C2    C89   A    
C113  H70   S    
N29   Ni3   S    
N30   Ni4   S    
C39   C59   S    
C25   O35   S    
C102  N15   A    
C15   O24   S    
C31   C119  S    
C111  H68   S    
C38   H83   S    
C107  N20   A    
C1    C114  A    
C11   O17   S    
C22   O30   S    
C105  N18   A    
N23   Ni2   S    
C97   H64   S    
N24   Ni5   S    
C1    N1    A    
C77   C106  A    
C16   O26   S    
N2    N10   A    
C11   C69   S    
C31   C38   S    
C12   C39   S    
C7    O7    D    
H82   O6    S    
C41   C57   S    
N4    N13   A    
C79   C83   D    
C28   C103  A    
C20   H103  S    
H79   O39   S    
C52   C57   S    
C12   O19   S    
C4    C37   S    
C5    O4    S    
C35   C52   S    
H90   O21   S    
N5    N14   A    
C86   H40   S    
C60   H13   S    
C21   C105  S    
C68   H25   S    
C40   C49   S    
C25   C108  S    
C39   C48   S    
C53   C110  S    
C78   H44   S    
C62   H29   S    
C19   H101  S    
C72   C76   D    
C47   H22   S    
N12   Ni1   S    
C26   C101  A    
C15   O22   D    
C13   C98   A    
C17   C101  S    
C19   C103  S    
C61   C66   A    
C98   N11   A    
N18   Ni7   S    
C43   H19   S    
C21   O27   D    
H81   O4    S    
C45   C49   S    
C43   C48   S    
C42   C51   S    
C41   H8    S    
C28   C50   S    
C32   C120  S    
C17   H93   S    
C18   H99   S    
C47   C67   S    
C72   C88   S    
C94   N7    A    
C20   H104  S    
C32   C35   S    
C32   H74   S    
C29   C95   A    
N11   Ni4   S    
C83   H36   S    
C22   C106  S    
C113  N26   A    
C100  H66   S    
C73   C78   D    
C100  N13   A    
C94   H60   S    
C30   H71   S    
C10   O14   D    
C33   N12   A    
C32   C50   S    
C92   H58   S    
C37   C54   S    
C80   C114  S    
C109  N22   A    
C55   N27   A    
C24   C91   A    
C16   C42   S    
H92   O26   S    
H87   O15   S    
C73   C99   S    
N6    Ni7   S    
C39   H94   S    
C101  N14   A    
C74   H41   S    
C84   H37   S    
C95   H62   S    
C20   C104  S    
N3    N11   A    
C46   C50   S    
N1    Ni1   S    
C71   C75   D    
C18   H97   S    
C91   H57   S    
C44   H28   S    
C73   H53   S    
C14   C40   S    
C78   C84   S    
C89   H55   S    
C111  C115  A    
C17   H95   S    
N21   Ni8   S    
C8    O10   S    
C12   O18   D    
