data_mof_unit_14583.cif
_audit_creation_date              2012-10-26T20:20:45-0400
_audit_creation_method            fapswitch 2.2
_symmetry_space_group_name_H-M    P1
_symmetry_Int_Tables_number       1
_space_group_crystal_system       triclinic
_cell_length_a                    8.733938
_cell_length_b                    10.874139
_cell_length_c                    9.515033
_cell_angle_alpha                 89.09186
_cell_angle_beta                  97.938562
_cell_angle_gamma                 90.314375
_cell_volume                      894.903672155

loop_
_atom_site_label
_atom_site_type_symbol
_atom_type_description
_atom_site_fract_x
_atom_site_fract_y
_atom_site_fract_z
_atom_type_partial_charge
C1    C     C_R   0.499917 0.262094 0.501355 0.564885
C2    C     C_R   0.534472 0.059507 0.631161 0.113501
C3    C     C_R   0.501248 0.871782 0.496235 0.014442
C4    C     C_R   0.498723 0.128217 0.503762 0.014427
C5    C     C_R   0.388742 0.437775 0.061397 0.007342
C6    C     C_R   0.611255 0.562228 0.938602 0.007347
C7    C     C_R   0.388548 0.438113 0.912581 0.011458
C8    C     C_R   0.611447 0.561893 0.087418 0.011463
C9    C     C_3   0.556065 0.879758 0.152936 -0.292799
C10   C     C_3   0.443763 0.120281 0.846996 -0.292778
C11   C     C_R   0.500072 0.737906 0.498643 0.564894
C12   C     C_R   0.203715 0.499966 0.463703 0.547628
C13   C     C_R   0.796285 0.500034 0.536296 0.547637
C14   C     C_2   0.037900 0.500063 0.443688 -0.155599
C15   C     C_2   0.962100 0.499936 0.556312 -0.155599
C16   C     C_R   0.463261 0.067902 0.374415 -0.164540
C17   C     C_R   0.536699 0.932098 0.625583 -0.164551
C18   C     C_R   0.465486 0.940492 0.368838 0.113514
Cu1   Cu    Cu3+1 0.500000 0.500020 0.640660 0.945729
Cu2   Cu    Cu3+1 0.500000 0.499980 0.359340 0.945733
H1    H     H_    0.977957 0.500282 0.335639 0.121783
H2    H     H_    0.589332 0.974560 0.123482 0.120543
H3    H     H_    0.521051 0.827681 0.054179 0.134289
H4    H     H_    0.657513 0.833497 0.214608 0.158641
H5    H     H_    0.670033 0.081988 0.823860 0.236260
H6    H     H_    0.410431 0.025474 0.876459 0.120509
H7    H     H_    0.342356 0.166529 0.785207 0.158669
H8    H     H_    0.478738 0.172397 0.945761 0.134296
H9    H     H_    0.022043 0.499717 0.664361 0.121780
H10   H     H_    0.434091 0.119606 0.276071 0.126630
H11   H     H_    0.565855 0.880394 0.723929 0.126620
H12   H     H_    0.299962 0.387431 0.106985 0.104154
H13   H     H_    0.700035 0.612572 0.893014 0.104155
H14   H     H_    0.299255 0.388442 0.846208 0.099859
H15   H     H_    0.700737 0.611568 0.153791 0.099861
H16   H     H_    0.329806 0.917950 0.176216 0.236287
N1    N     N_R   0.500040 0.500030 0.852080 -0.219471
N2    N     N_R   0.499960 0.499970 0.147920 -0.219472
N3    N     N_2   0.428538 0.883052 0.235039 -0.480298
N4    N     N_2   0.571364 0.116946 0.764969 -0.480253
O1    O     O_R   0.499990 0.319660 0.618740 -0.460954
O2    O     O_R   0.500010 0.680340 0.381260 -0.460954
O3    O     O_R   0.499990 0.319630 0.381170 -0.520746
O4    O     O_R   0.500010 0.680370 0.618830 -0.520751
O5    O     O_R   0.274840 0.500010 0.591370 -0.508930
O6    O     O_R   0.725160 0.499990 0.408630 -0.508922
O7    O     O_R   0.274830 0.499980 0.353800 -0.503861
O8    O     O_R   0.725170 0.500020 0.646200 -0.503856

loop_
_geom_bond_atom_site_label_1
_geom_bond_atom_site_label_2
_ccdc_geom_bond_type
C10   H7    S    
C4    C16   A    
C13   O8    A    
C2    C4    A    
C18   N3    S    
Cu1   O5    S    
C9    H4    S    
C15   H9    S    
Cu2   N2    S    
Cu2   O2    S    
Cu1   Cu2   S    
C6    H13   S    
C5    H12   S    
C10   H6    S    
C7    N1    A    
C6    N1    A    
C11   O4    A    
C5    N2    A    
C2    C17   A    
C8    N2    A    
C3    C18   A    
C12   O7    A    
C14   H1    S    
C1    O1    A    
C12   C14   S    
C3    C17   A    
C13   C15   S    
H5    N4    S    
C13   O6    A    
C17   H11   S    
C7    H14   S    
C9    H2    S    
C1    C4    S    
C3    C11   S    
C16   H10   S    
Cu2   O7    S    
C2    N4    S    
C9    N3    S    
Cu2   O3    S    
Cu1   O4    S    
C11   O2    A    
C16   C18   A    
C10   H8    S    
C5    C7    A    
C14   C15   D    
C9    H3    S    
C10   N4    S    
C6    C8    A    
Cu1   N1    S    
Cu1   O8    S    
C1    O3    A    
H16   N3    S    
Cu2   O6    S    
Cu1   O1    S    
C12   O5    A    
C8    H15   S    
