data_mof_unit_6265.cif
_audit_creation_date              2012-12-10T18:09:01-0500
_audit_creation_method            fapswitch 2.2
_symmetry_space_group_name_H-M    P1
_symmetry_Int_Tables_number       1
_space_group_crystal_system       triclinic
_cell_length_a                    12.599156
_cell_length_b                    13.12277
_cell_length_c                    13.655059
_cell_angle_alpha                 91.605018
_cell_angle_beta                  96.135044
_cell_angle_gamma                 97.372905
_cell_volume                      2224.18679991

loop_
_atom_site_label
_atom_site_type_symbol
_atom_type_description
_atom_site_fract_x
_atom_site_fract_y
_atom_site_fract_z
_atom_type_partial_charge
C1    C     C_R   0.560054 0.691164 0.510476 0.882678
C2    C     C_R   0.473975 0.034914 0.469102 0.106364
C3    C     C_R   0.403160 0.999793 0.383775 0.124008
C4    C     C_R   0.516834 0.495675 0.318231 0.965871
C5    C     C_R   0.412077 0.906620 0.336251 -0.248175
C6    C     C_R   0.488113 0.845342 0.373700 -0.132702
C7    C     C_R   0.468187 0.132754 0.509221 -0.240515
C8    C     C_R   0.333024 0.163623 0.376393 -0.029614
C9    C     C_R   0.598496 0.800400 0.523518 -0.148573
C10   C     C_R   0.898311 0.364005 0.652729 -0.113748
C11   C     C_R   0.213097 0.628045 0.385474 0.024118
C12   C     C_1   0.527662 0.491399 0.217047 -0.046035
C13   C     C_R   0.116123 0.667708 0.372681 -0.274042
C14   C     C_R   0.031962 0.629598 0.426198 -0.032161
C15   C     C_R   0.043131 0.541603 0.484274 -0.046098
C16   C     C_R   0.440460 0.308724 0.484980 0.868580
C17   C     C_R   0.146451 0.509566 0.499625 0.228716
C18   C     C_R   0.958337 0.484534 0.528524 0.008689
C19   C     C_R   0.981815 0.412676 0.601887 0.087818
C20   C     C_R   0.087494 0.391272 0.621693 -0.226201
C21   C     C_R   0.166447 0.434582 0.567295 -0.175096
C22   C     C_R   0.850084 0.491938 0.498939 0.019117
C23   C     C_R   0.329321 0.061857 0.341969 -0.211842
C24   C     C_R   0.794129 0.385087 0.626113 -0.021767
C25   C     C_R   0.482920 0.503542 0.681744 0.876032
C26   C     C_1   0.471684 0.506629 0.782883 -0.143788
C27   C     C_2   0.457533 0.510746 0.971298 -0.128564
C28   C     C_2   0.541147 0.485915 0.028565 -0.145397
C29   C     C_1   0.536403 0.488050 0.131338 0.056302
C30   C     C_1   0.462572 0.509211 0.868552 0.026518
C31   C     C_2   0.513408 0.761761 0.307034 0.918239
C32   C     C_2   0.915346 0.294247 0.734730 0.921559
C33   C     C_2   0.945029 0.695064 0.432237 0.897853
C34   C     C_R   0.407136 0.199939 0.459168 -0.135498
C35   C     C_2   0.264651 0.229391 0.318690 0.921446
C36   C     C_2   0.767624 0.969108 0.726548 0.956756
C37   C     C_R   0.672893 0.832781 0.605371 -0.249220
C38   C     C_R   0.689664 0.935406 0.638831 0.010426
C39   C     C_R   0.625922 0.003997 0.592905 -0.223032
C40   C     C_R   0.548735 0.971708 0.510607 0.089255
C41   C     C_R   0.546285 0.871900 0.468082 0.003601
H1    H     H_    0.364066 0.884743 0.266300 0.180242
H2    H     H_    0.824326 0.533391 0.435650 0.140715
H3    H     H_    0.279834 0.661410 0.348343 0.183484
H4    H     H_    0.849279 0.760356 0.517590 0.353537
H5    H     H_    0.109941 0.733256 0.326848 0.191627
H6    H     H_    0.243313 0.408627 0.580698 0.206649
H7    H     H_    0.386445 0.532231 0.001030 0.180302
H8    H     H_    0.117310 0.244295 0.251377 0.351309
H9    H     H_    0.275113 0.033872 0.276922 0.170335
H10   H     H_    0.823562 0.078519 0.832459 0.360833
H11   H     H_    0.516054 0.162347 0.576480 0.149567
H12   H     H_    0.713173 0.776642 0.646630 0.202813
H13   H     H_    0.639594 0.082068 0.622252 0.173015
H14   H     H_    0.612288 0.464544 0.998849 0.175151
H15   H     H_    0.674609 0.787976 0.347289 0.325479
H16   H     H_    0.728198 0.351451 0.664570 0.165532
H17   H     H_    0.110354 0.338284 0.676706 0.195939
H18   H     H_    0.887901 0.259227 0.873567 0.351444
N1    N     N_R   0.773270 0.445590 0.549770 -0.119399
N2    N     N_R   0.227520 0.553880 0.450750 -0.129128
O1    O     O_R   0.631100 0.627590 0.523760 -0.593932
O2    O     O_R   0.618476 0.738088 0.305776 -0.769107
O3    O     O_2   0.965901 0.221672 0.725507 -0.609153
O4    O     O_R   0.869375 0.309871 0.821786 -0.784940
O5    O     O_2   0.909052 0.735989 0.358733 -0.600152
O6    O     O_R   0.907222 0.713297 0.522885 -0.777680
O7    O     O_2   0.303831 0.311849 0.290242 -0.622932
O8    O     O_R   0.155745 0.193695 0.291943 -0.782844
O9    O     O_2   0.830577 0.911855 0.760016 -0.592097
O10   O     O_R   0.768676 0.066033 0.772033 -0.794978
O11   O     O_R   0.455900 0.662370 0.491970 -0.615417
O12   O     O_R   0.600200 0.480080 0.377830 -0.622134
O13   O     O_R   0.425000 0.514870 0.346040 -0.563819
O14   O     O_R   0.544100 0.337630 0.508030 -0.614870
O15   O     O_R   0.368900 0.372410 0.476240 -0.615557
O16   O     O_R   0.575000 0.485130 0.653960 -0.604304
O17   O     O_R   0.399800 0.519920 0.622170 -0.630934
O18   O     O_2   0.442185 0.715640 0.248484 -0.606247
Zn1   Zn    Zn3+2 0.616980 0.476780 0.521230 0.982025
Zn2   Zn    Zn3+2 0.383020 0.523220 0.478770 0.987745

loop_
_geom_bond_atom_site_label_1
_geom_bond_atom_site_label_2
_ccdc_geom_bond_type
C27   H7    S    
C15   C18   A    
C5    H1    S    
C12   C29   T    
C16   O14   A    
C3    C23   A    
C19   C20   A    
C1    O1    A    
C14   C33   S    
C25   O16   A    
O1    Zn1   S    
C28   C29   S    
C7    H11   S    
C22   N1    A    
C5    C6    A    
C17   N2    A    
C39   H13   S    
C8    C23   A    
C18   C19   A    
C16   C34   S    
C2    C7    A    
C24   H16   S    
C6    C41   A    
H4    O6    S    
C4    C12   S    
C18   C22   A    
O14   Zn1   S    
C4    O13   A    
O11   Zn2   S    
C36   O10   S    
C37   H12   S    
C6    C31   S    
H8    O8    S    
C13   C14   A    
C27   C30   S    
H10   O10   S    
C28   H14   S    
C36   O9    D    
C33   O5    D    
C1    O11   A    
C25   O17   A    
C31   O2    S    
C1    C9    S    
C32   O3    D    
C39   C40   A    
C23   H9    S    
C10   C24   A    
C25   C26   S    
C17   C21   A    
C8    C35   S    
C37   C38   A    
C10   C32   S    
C22   H2    S    
C10   C19   A    
C24   N1    A    
C9    C37   A    
H15   O2    S    
C11   H3    S    
C8    C34   A    
C4    O12   A    
C40   C41   A    
C26   C30   T    
C7    C34   A    
O13   Zn2   S    
C20   H17   S    
C3    C5    A    
C33   O6    S    
O16   Zn1   S    
C13   H5    S    
C15   C17   A    
N1    Zn1   S    
C16   O15   A    
C11   N2    A    
O15   Zn2   S    
C31   O18   D    
C9    C41   A    
C36   C38   S    
C2    C3    A    
N2    Zn2   S    
H18   O4    S    
C11   C13   A    
O17   Zn2   S    
C38   C39   A    
C35   O7    D    
O12   Zn1   S    
C2    C40   A    
C20   C21   A    
C35   O8    S    
C27   C28   D    
C14   C15   A    
C32   O4    S    
C21   H6    S    
