data_mof_unit_15523.cif
_audit_creation_date              2012-12-11T14:14:02-0500
_audit_creation_method            fapswitch 2.2
_symmetry_space_group_name_H-M    P1
_symmetry_Int_Tables_number       1
_space_group_crystal_system       triclinic
_cell_length_a                    17.01167
_cell_length_b                    7.256857
_cell_length_c                    16.883316
_cell_angle_alpha                 90.010769
_cell_angle_beta                  99.35525
_cell_angle_gamma                 89.987474
_cell_volume                      2056.54455468

loop_
_atom_site_label
_atom_site_type_symbol
_atom_type_description
_atom_site_fract_x
_atom_site_fract_y
_atom_site_fract_z
_atom_type_partial_charge
O1    O     O_R   0.414560 0.494370 0.416770 -0.522464
O2    O     O_R   0.585440 0.994370 0.583230 -0.522630
O3    O     O_R   0.578370 0.819590 0.429320 -0.521187
O4    O     O_R   0.421630 0.319590 0.570680 -0.520927
C1    C     C_R   0.605778 0.656629 0.414954 0.780601
C2    C     C_R   0.394185 0.156696 0.585010 0.780409
O5    O     O_R   0.414740 0.823790 0.407360 -0.546541
O6    O     O_R   0.585260 0.323790 0.592640 -0.546494
O7    O     O_R   0.420650 0.998510 0.561120 -0.531200
O8    O     O_R   0.579350 0.498510 0.438880 -0.531319
C3    C     C_R   0.388148 0.655035 0.385024 0.785118
C4    C     C_R   0.611853 0.155032 0.614976 0.784649
O9    O     O_3   0.502130 0.662240 0.550470 -0.381739
O10   O     O_3   0.497870 0.162240 0.449530 -0.382122
V1    V     V_3+5 0.499600 0.935390 0.490640 1.567891
V2    V     V_3+5 0.500400 0.435390 0.509360 1.568345
C5    C     C_2   0.785783 0.271793 0.787558 -0.125013
C6    C     C_2   0.214226 0.771781 0.212424 -0.124981
C7    C     C_2   0.821209 0.113535 0.816626 -0.290759
C8    C     C_2   0.178797 0.613528 0.183367 -0.291066
H1    H     H_    0.807421 0.401927 0.814452 0.140191
H2    H     H_    0.192588 0.901908 0.185524 0.140220
H3    H     H_    0.801829 0.982190 0.789893 0.131668
H4    H     H_    0.198180 0.482190 0.210101 0.131635
C9    C     C_2   0.718476 0.284566 0.718908 -0.107179
C10   C     C_2   0.281540 0.784568 0.281067 -0.107459
C11   C     C_2   0.678073 0.138883 0.683432 -0.274399
C12   C     C_2   0.321926 0.638883 0.316570 -0.275316
H5    H     H_    0.701425 0.422376 0.697622 0.145993
H6    H     H_    0.298610 0.922386 0.302326 0.145987
H7    H     H_    0.693369 0.000502 0.704446 0.117546
H8    H     H_    0.306609 0.500489 0.295585 0.117887
C13   C     C_R   0.328418 0.157359 0.633512 -0.170631
C14   C     C_R   0.671559 0.657068 0.366484 -0.170546
C15   C     C_R   0.167540 0.110932 0.863002 -0.057340
C16   C     C_R   0.832455 0.611185 0.136977 -0.057071
C17   C     C_R   0.286074 0.963808 0.827075 -0.151008
C18   C     C_R   0.713457 0.465366 0.172383 -0.150962
C19   C     C_R   0.230099 0.982445 0.878859 -0.165128
C20   C     C_R   0.769526 0.483835 0.120692 -0.165282
C21   C     C_R   0.161879 0.221087 0.793920 -0.179643
C22   C     C_R   0.838420 0.720323 0.206404 -0.179591
C23   C     C_R   0.216832 0.199236 0.740260 0.068027
C24   C     C_R   0.783360 0.698618 0.259960 0.068054
C25   C     C_R   0.279642 0.070263 0.757027 0.161842
C26   C     C_R   0.720166 0.570811 0.242757 0.162002
C27   C     C_R   0.335043 0.050532 0.703827 -0.285412
C28   C     C_R   0.664667 0.551225 0.295856 -0.286331
C29   C     C_R   0.262630 0.279591 0.615010 0.455383
C30   C     C_R   0.737666 0.778162 0.385381 0.455568
C31   C     C_R   0.208673 0.301145 0.669089 -0.224092
C32   C     C_R   0.791759 0.799541 0.331430 -0.223779
H9    H     H_    0.384794 0.956369 0.718373 0.131190
H10   H     H_    0.614643 0.457974 0.281000 0.130735
H11   H     H_    0.333586 0.863780 0.841156 0.111702
H12   H     H_    0.665640 0.366256 0.157961 0.111660
H13   H     H_    0.159605 0.397292 0.655348 0.183671
H14   H     H_    0.841099 0.894808 0.345492 0.183635
H15   H     H_    0.235232 0.894771 0.931387 0.115452
H16   H     H_    0.764169 0.396946 0.067893 0.115184
H17   H     H_    0.112874 0.317553 0.780232 0.128463
H18   H     H_    0.887715 0.815866 0.220412 0.128248
O11   O     O_R   0.920750 0.773600 0.061260 -0.535572
O12   O     O_R   0.079250 0.273600 0.938740 -0.535620
O13   O     O_R   0.085340 0.439850 0.092570 -0.540392
O14   O     O_R   0.914660 0.939850 0.907430 -0.540350
C33   C     C_R   0.112091 0.608297 0.114829 0.732630
C34   C     C_R   0.887910 0.108300 0.885168 0.732796
O15   O     O_R   0.921720 0.444130 0.070790 -0.536185
O16   O     O_R   0.078280 0.944130 0.929210 -0.536265
O17   O     O_R   0.914480 0.269530 0.916840 -0.537683
O18   O     O_R   0.085520 0.769530 0.083160 -0.537702
C35   C     C_R   0.895892 0.611486 0.086094 0.685980
C36   C     C_R   0.104121 0.111430 0.913915 0.686094
O19   O     O_3   0.997840 0.601520 0.949550 -0.376608
O20   O     O_3   0.002160 0.101520 0.050450 -0.376600
V3    V     V_3+5 0.000400 0.328340 0.009360 1.423376
V4    V     V_3+5 0.999600 0.828340 0.990640 1.423407
S1    S     S_3+6 0.243916 0.403914 0.523574 0.013825
O21   O     O_2   0.156916 0.451888 0.503914 -0.316392
O22   O     O_2   0.291875 0.578725 0.532112 -0.333649
O23   O     O_3   0.269661 0.275704 0.448781 -0.518788
H19   H     H_    0.240511 0.330676 0.398822 0.349565
S2    S     S_3+6 0.756544 0.901347 0.477118 0.013994
O24   O     O_2   0.843687 0.947627 0.497124 -0.316095
O25   O     O_2   0.709168 0.077051 0.468840 -0.333730
O26   O     O_3   0.730153 0.772989 0.551523 -0.518748
H20   H     H_    0.758915 0.827879 0.601685 0.349368

loop_
_geom_bond_atom_site_label_1
_geom_bond_atom_site_label_2
_ccdc_geom_bond_type
O14   C34   A    
O26   H20   S    
C15   C36   S    
C20   H16   S    
O16   V4    S    
O12   V3    S    
C8    C33   S    
C16   C22   A    
C6    C10   S    
S2    O26   S    
C21   H17   S    
O2    C4    A    
C2    O7    A    
C30   S2    S    
C28   H10   S    
S2    O25   D    
C13   C29   A    
C33   O18   A    
O18   V4    S    
O15   V3    S    
C8    H4    S    
O13   C33   A    
O1    C3    A    
O16   C36   A    
C30   C32   A    
O15   C35   A    
C31   H13   S    
C22   H18   S    
C27   H9    S    
C24   C32   A    
O5    V1    S    
O6    V2    S    
C21   C23   A    
C22   C24   A    
C24   C26   A    
O5    C3    A    
C25   C27   A    
C9    H5    S    
O14   V4    S    
C26   C28   A    
C14   C30   A    
O13   V3    S    
C4    C11   S    
C11   H7    S    
C12   H8    S    
O20   V3    S    
O4    C2    A    
S1    O22   D    
C7    H3    S    
O11   C35   A    
C29   C31   A    
C5    H1    S    
C29   S1    S    
O4    V2    S    
C15   C19   A    
C16   C20   A    
O6    C4    A    
C19   H15   S    
C1    C14   S    
C7    C34   S    
O1    V2    S    
S2    O24   D    
O2    V1    S    
C23   C25   A    
C32   H14   S    
C10   H6    S    
C13   C27   A    
C14   C28   A    
C17   C25   A    
O17   V3    S    
O3    V1    S    
C6    H2    S    
O3    C1    A    
S1    O23   S    
C9    C11   D    
C10   C12   D    
C2    C13   S    
C5    C9    S    
O7    V1    S    
C1    O8    A    
C17   C19   A    
O8    V2    S    
C18   C20   A    
C23   C31   A    
C3    C12   S    
C34   O17   A    
C5    C7    D    
C6    C8    D    
C15   C21   A    
O19   V4    S    
C18   C26   A    
C16   C35   S    
S1    O21   D    
C17   H11   S    
C18   H12   S    
O23   H19   S    
O9    V2    S    
O12   C36   A    
O10   V1    S    
O11   V4    S    
