data_mof_unit_15621.cif
_audit_creation_date              2012-12-11T15:49:11-0500
_audit_creation_method            fapswitch 2.2
_symmetry_space_group_name_H-M    P1
_symmetry_Int_Tables_number       1
_space_group_crystal_system       triclinic
_cell_length_a                    21.844485
_cell_length_b                    7.176121
_cell_length_c                    15.155975
_cell_angle_alpha                 89.999264
_cell_angle_beta                  108.607842
_cell_angle_gamma                 90.00003
_cell_volume                      2251.63330507

loop_
_atom_site_label
_atom_site_type_symbol
_atom_type_description
_atom_site_fract_x
_atom_site_fract_y
_atom_site_fract_z
_atom_type_partial_charge
O1    O     O_R   0.335860 0.638190 0.002110 -0.513912
O2    O     O_R   0.664140 0.361810 0.997890 -0.508256
O3    O     O_R   0.164140 0.138190 0.997890 -0.513913
O4    O     O_R   0.835860 0.861810 0.002110 -0.508258
O5    O     O_R   0.217530 0.305920 0.861960 -0.542262
O6    O     O_R   0.782470 0.694080 0.138040 -0.544719
O7    O     O_R   0.282470 0.805920 0.138040 -0.542263
O8    O     O_R   0.717530 0.194080 0.861960 -0.544719
C1    C     C_R   0.209117 0.477632 0.825621 0.667924
C2    C     C_R   0.794652 0.522518 0.174005 0.670678
C3    C     C_R   0.290883 0.977631 0.174379 0.667924
C4    C     C_R   0.705348 0.022520 0.825995 0.670677
O9    O     O_R   0.338690 0.308320 0.993240 -0.546598
O10   O     O_R   0.661310 0.691680 0.006760 -0.548187
O11   O     O_R   0.161310 0.808320 0.006760 -0.546597
O12   O     O_R   0.838690 0.191680 0.993240 -0.548183
O13   O     O_R   0.286170 0.140430 0.130100 -0.545316
O14   O     O_R   0.713830 0.859570 0.869900 -0.542233
O15   O     O_R   0.213830 0.640430 0.869900 -0.545317
O16   O     O_R   0.786170 0.359570 0.130100 -0.542233
C5    C     C_R   0.365543 0.477567 0.999606 0.705142
C6    C     C_R   0.635621 0.522149 0.004555 0.721329
C7    C     C_R   0.134457 0.977567 0.000394 0.705142
C8    C     C_R   0.864379 0.022149 0.995445 0.721331
O17   O     O_3   0.232630 0.472410 0.044750 -0.370330
O18   O     O_3   0.767370 0.527590 0.955250 -0.376162
O19   O     O_3   0.267370 0.972410 0.955250 -0.370330
O20   O     O_3   0.732630 0.027590 0.044750 -0.376165
V1    V     V_3+5 0.253220 0.196620 0.991700 1.452293
V2    V     V_3+5 0.746780 0.803380 0.008300 1.450532
V3    V     V_3+5 0.246780 0.696620 0.008300 1.452294
V4    V     V_3+5 0.753220 0.303380 0.991700 1.450539
C9    C     C_R   0.028767 0.827735 0.999406 -0.328220
C10   C     C_R   0.967723 0.171623 0.989456 -0.312963
C11   C     C_R   0.471233 0.327735 0.000594 -0.328220
C12   C     C_R   0.532277 0.671623 0.010545 -0.312965
H1    H     H_    0.051545 0.692534 0.005599 0.212641
H2    H     H_    0.945454 0.306692 0.987240 0.203013
H3    H     H_    0.448455 0.192534 0.994401 0.212641
H4    H     H_    0.554546 0.806692 0.012761 0.203011
C13   C     C_R   0.962011 0.836129 0.987978 0.459728
C14   C     C_R   0.030604 0.162584 0.983254 0.445926
C15   C     C_R   0.537989 0.336128 0.012022 0.459726
C16   C     C_R   0.469396 0.662584 0.016748 0.445926
C17   C     C_R   0.932344 0.009647 0.992164 -0.198622
C18   C     C_R   0.064403 0.989985 0.996074 -0.206920
C19   C     C_R   0.567656 0.509647 0.007837 -0.198620
C20   C     C_R   0.435597 0.489985 0.003927 -0.206917
C21   C     C_R   0.674954 0.006679 0.725353 -0.026980
C22   C     C_R   0.313897 0.992294 0.276391 -0.032054
C23   C     C_R   0.825044 0.506671 0.274647 -0.026983
C24   C     C_R   0.186103 0.492301 0.723609 -0.032055
C25   C     C_R   0.676332 0.865688 0.581430 -0.162444
C26   C     C_R   0.311612 0.156518 0.414570 -0.170544
C27   C     C_R   0.823669 0.365661 0.418569 -0.162445
C28   C     C_R   0.188385 0.656536 0.585430 -0.170543
C29   C     C_R   0.708927 0.924284 0.671674 -0.183016
C30   C     C_R   0.283101 0.113822 0.320759 -0.162663
C31   C     C_R   0.791073 0.424260 0.328324 -0.183016
C32   C     C_R   0.216897 0.613834 0.679240 -0.162663
C33   C     C_R   0.608428 0.037544 0.687207 -0.206747
C34   C     C_R   0.372237 0.908734 0.327485 -0.229992
C35   C     C_R   0.891570 0.537546 0.312794 -0.206747
C36   C     C_R   0.127762 0.408741 0.672516 -0.229993
C37   C     C_R   0.574010 0.980277 0.595252 0.077951
C38   C     C_R   0.406787 0.972408 0.418158 0.079049
C39   C     C_R   0.925989 0.480275 0.404749 0.077950
C40   C     C_R   0.093212 0.472417 0.581843 0.079048
C41   C     C_R   0.609191 0.888192 0.543853 0.142125
C42   C     C_R   0.374091 0.092471 0.462587 0.138120
C43   C     C_R   0.890810 0.388177 0.456147 0.142124
C44   C     C_R   0.125906 0.592487 0.537413 0.138120
C45   C     C_R   0.505991 0.008204 0.553353 0.055731
C46   C     C_R   0.473834 0.933479 0.462777 0.060172
C47   C     C_R   0.994007 0.508211 0.446648 0.055732
C48   C     C_R   0.026166 0.433482 0.537224 0.060172
C49   C     C_R   0.510783 0.833745 0.417124 -0.196089
C50   C     C_R   0.469610 0.114571 0.597404 -0.185597
C51   C     C_R   0.989218 0.333738 0.582877 -0.196090
C52   C     C_R   0.030387 0.614587 0.402597 -0.185597
C53   C     C_R   0.577141 0.815416 0.456142 -0.204368
C54   C     C_R   0.405073 0.155894 0.552616 -0.199811
C55   C     C_R   0.922861 0.315399 0.543857 -0.204369
C56   C     C_R   0.094923 0.655915 0.447385 -0.199811
H5    H     H_    0.603638 0.742116 0.417281 0.117908
H6    H     H_    0.379922 0.245104 0.587469 0.128064
H7    H     H_    0.896365 0.242089 0.582718 0.117908
H8    H     H_    0.120073 0.745130 0.412532 0.128064
H9    H     H_    0.391724 0.806800 0.291772 0.107870
H10   H     H_    0.584504 0.094627 0.733282 0.105922
H11   H     H_    0.108277 0.306805 0.708230 0.107870
H12   H     H_    0.915493 0.594641 0.266720 0.105922
H13   H     H_    0.237535 0.178147 0.282216 0.120664
H14   H     H_    0.760268 0.898374 0.700999 0.099717
H15   H     H_    0.262463 0.678159 0.717783 0.120665
H16   H     H_    0.739733 0.398340 0.298998 0.099718
H17   H     H_    0.703391 0.797143 0.541946 0.113883
H18   H     H_    0.286744 0.250342 0.447723 0.120900
H19   H     H_    0.796612 0.297105 0.458051 0.113884
H20   H     H_    0.213252 0.750365 0.552277 0.120901
H21   H     H_    0.490355 0.772443 0.349299 0.113626
H22   H     H_    0.490333 0.176555 0.665085 0.129423
H23   H     H_    0.009647 0.272433 0.650702 0.113625
H24   H     H_    0.009663 0.676574 0.334916 0.129423
O21   O     O_3   0.924756 0.676056 0.965380 -0.540854
C57   C     C_3   0.910183 0.640178 0.868550 0.046832
H25   H     H_    0.937453 0.516549 0.860347 0.153681
H26   H     H_    0.921237 0.757824 0.827575 0.091049
C58   C     C_3   0.839716 0.589797 0.823445 -0.662495
H27   H     H_    0.808601 0.701059 0.836190 0.237224
H28   H     H_    0.829202 0.575328 0.747063 0.147616
H29   H     H_    0.829372 0.453989 0.850574 0.231902
O22   O     O_3   0.057261 0.324786 0.962544 -0.543076
C59   C     C_3   0.046168 0.330187 0.865178 0.096548
H30   H     H_    0.995737 0.291214 0.823912 0.081773
H31   H     H_    0.079189 0.232128 0.845991 0.118775
C60   C     C_3   0.059448 0.525919 0.837016 -0.735675
H32   H     H_    0.108527 0.567780 0.878697 0.253783
H33   H     H_    0.053015 0.533070 0.761916 0.176665
H34   H     H_    0.026435 0.630106 0.849362 0.190923
O23   O     O_3   0.575244 0.176054 0.034618 -0.540856
C61   C     C_3   0.589816 0.140166 0.131447 0.046830
H35   H     H_    0.562542 0.016542 0.139647 0.153683
H36   H     H_    0.578766 0.257814 0.172425 0.091048
C62   C     C_3   0.660282 0.089758 0.176551 -0.662474
H37   H     H_    0.691401 0.201019 0.163812 0.237221
H38   H     H_    0.670797 0.075266 0.252932 0.147611
H39   H     H_    0.670620 0.953951 0.149412 0.231903
O24   O     O_3   0.442739 0.824785 0.037457 -0.543076
C63   C     C_3   0.453831 0.830182 0.134823 0.096546
H40   H     H_    0.504262 0.791206 0.176090 0.081772
H41   H     H_    0.420810 0.732124 0.154009 0.118778
C64   C     C_3   0.440552 0.025914 0.162984 -0.735680
H42   H     H_    0.391473 0.067778 0.121302 0.253784
H43   H     H_    0.446983 0.033063 0.238083 0.176664
H44   H     H_    0.473565 0.130101 0.150640 0.190922

loop_
_geom_bond_atom_site_label_1
_geom_bond_atom_site_label_2
_ccdc_geom_bond_type
O17   V3    S    
C55   H7    S    
O1    C5    A    
C27   C31   A    
O19   V1    S    
O13   V1    S    
C45   C46   A    
O3    C7    A    
C10   C14   A    
C48   C51   A    
C52   C56   A    
O4    V2    S    
O15   V3    S    
C4    C21   S    
C21   C29   A    
C38   C42   A    
O7    C3    A    
C13   O21   S    
C52   H24   S    
C8    C17   S    
C36   C40   A    
O9    V1    S    
C30   H13   S    
O22   C59   S    
C58   H28   S    
O16   V4    S    
O4    C8    A    
C50   H22   S    
C57   H25   S    
C2    C23   S    
C38   C46   A    
C34   H9    S    
O1    V3    S    
C37   C45   A    
C12   C19   A    
O2    V4    S    
C14   C18   A    
O3    V1    S    
C24   C32   A    
C49   H21   S    
C1    O15   A    
C2    O16   A    
C28   C44   A    
C46   C49   A    
C35   H12   S    
O2    C6    A    
C64   H44   S    
C45   C50   A    
C63   H41   S    
O14   V2    S    
C11   C15   A    
C47   C52   A    
C15   O23   S    
C43   C55   A    
C23   C35   A    
C40   C44   A    
C5    C20   S    
O11   C7    A    
C6    C19   S    
C25   C41   A    
O12   C8    A    
C7    C18   S    
C9    C18   A    
C27   H19   S    
C51   H23   S    
C1    C24   S    
O10   V2    S    
C11   C20   A    
C59   H30   S    
O5    V1    S    
C35   C39   A    
C21   C33   A    
C34   C38   A    
C22   C30   A    
C12   H4    S    
O7    V3    S    
C24   C36   A    
C58   H29   S    
C25   C29   A    
O18   V4    S    
C25   H17   S    
C16   O24   S    
C54   H6    S    
C9    H1    S    
C28   C32   A    
O8    V4    S    
C11   H3    S    
C47   C48   A    
O5    C1    A    
C62   H39   S    
C50   C54   A    
C14   O22   S    
C26   C42   A    
C49   C53   A    
O8    C4    A    
O9    C5    A    
C10   C17   A    
C40   C48   A    
O23   C61   S    
C44   C56   A    
C41   C53   A    
O6    V2    S    
C29   H14   S    
C64   H42   S    
C22   C34   A    
C60   H34   S    
C63   C64   S    
C23   C31   A    
C31   H16   S    
C28   H20   S    
C61   H36   S    
C33   H10   S    
C64   H43   S    
O24   C63   S    
C26   C30   A    
C3    O13   A    
C10   H2    S    
C56   H8    S    
O6    C2    A    
C59   H31   S    
O11   V3    S    
O12   V4    S    
O21   C57   S    
C9    C13   A    
O10   C6    A    
C61   C62   S    
C60   H33   S    
C63   H40   S    
C3    C22   S    
C60   H32   S    
C51   C55   A    
C62   H37   S    
C57   H26   S    
C37   C41   A    
O20   V2    S    
C39   C43   A    
C42   C54   A    
C53   H5    S    
C59   C60   S    
C12   C16   A    
C32   H15   S    
C33   C37   A    
C39   C47   A    
C4    O14   A    
C62   H38   S    
C13   C17   A    
C26   H18   S    
C36   H11   S    
C61   H35   S    
C58   H27   S    
C15   C19   A    
C27   C43   A    
C16   C20   A    
C57   C58   S    
