data_mof_unit_39019.cif
_audit_creation_date              2012-12-11T15:29:45-0500
_audit_creation_method            fapswitch 2.2
_symmetry_space_group_name_H-M    P1
_symmetry_Int_Tables_number       1
_space_group_crystal_system       triclinic
_cell_length_a                    13.507116
_cell_length_b                    13.526452
_cell_length_c                    27.562676
_cell_angle_alpha                 90.577177
_cell_angle_beta                  90.004099
_cell_angle_gamma                 60.042141
_cell_volume                      4362.68291693

loop_
_atom_site_label
_atom_site_type_symbol
_atom_type_description
_atom_site_fract_x
_atom_site_fract_y
_atom_site_fract_z
_atom_type_partial_charge
C1    C     C_R   0.620768 0.101417 0.569599 0.550033
C2    C     C_1   0.654920 0.697237 0.656711 -0.051397
C3    C     C_3   0.083197 0.129517 0.735222 -0.122914
C4    C     C_R   0.599876 0.779096 0.568398 0.554360
C5    C     C_3   0.178660 0.069347 0.773706 -0.105934
C6    C     C_1   0.088836 0.205635 0.898589 -0.007204
C7    C     C_1   0.220009 0.142843 0.615003 0.029447
C8    C     C_3   0.031371 0.241855 0.765680 -0.106190
C9    C     C_3   0.127483 0.181347 0.803134 0.032462
C10   C     C_3   0.107286 0.278824 0.737881 -0.130141
C11   C     C_3   0.158666 0.166842 0.708190 0.031245
C12   C     C_1   0.633623 0.728174 0.615271 -0.003089
C13   C     C_3   0.202501 0.219069 0.776244 -0.100847
C14   C     C_3   0.252675 0.107763 0.746187 0.105718
C15   C     C_1   0.110122 0.191003 0.855803 -0.042568
C16   C     C_R   0.276140 0.122497 0.568829 0.555872
C17   C     C_1   0.185330 0.156059 0.656177 -0.002368
C18   C     C_3   0.619337 0.281446 0.738289 0.095465
C19   C     C_3   0.557655 0.247276 0.776023 -0.097739
C20   C     C_1   0.693886 0.208250 0.900577 -0.007744
C21   C     C_1   0.638464 0.134719 0.616808 0.008507
C22   C     C_3   0.730077 0.224867 0.768461 -0.110539
C23   C     C_3   0.688942 0.554510 0.765279 -0.078816
C24   C     C_3   0.668849 0.188720 0.805550 0.026413
C25   C     C_3   0.770076 0.111032 0.740309 -0.116850
C26   C     C_3   0.659241 0.169276 0.710665 0.026380
C27   C     C_3   0.709325 0.075239 0.778150 -0.099974
C28   C     C_R   0.621963 0.100139 0.431557 0.542401
C29   C     C_3   0.598393 0.133517 0.747843 -0.122490
C30   C     C_1   0.678676 0.198471 0.858126 -0.043865
C31   C     C_1   0.649862 0.154003 0.658536 -0.017642
C32   C     C_R   0.640067 0.722216 0.383053 0.024924
C33   C     C_R   0.723212 0.735458 0.358048 -0.125816
C34   C     C_3   0.690932 0.638457 0.802679 0.028069
C35   C     C_R   0.735905 0.717541 0.308441 -0.123866
C36   C     C_R   0.668484 0.682366 0.283368 0.037685
C37   C     C_R   0.593910 0.657549 0.309098 -0.121433
C38   C     C_R   0.579036 0.678290 0.358762 -0.129753
C39   C     C_R   0.575975 0.704539 0.203105 -0.121807
C40   C     C_R   0.601954 0.776853 0.430492 0.540656
C41   C     C_R   0.584819 0.681802 0.153568 -0.130266
C42   C     C_R   0.789064 0.610311 0.157469 -0.126754
C43   C     C_R   0.780655 0.630355 0.206978 -0.124139
C44   C     C_R   0.674832 0.673395 0.230421 0.036561
C45   C     C_3   0.587170 0.655940 0.739975 -0.083608
C46   C     C_R   0.692367 0.629494 0.131017 0.023747
C47   C     C_R   0.225506 0.137342 0.383515 0.025354
C48   C     C_R   0.248422 0.041514 0.355047 -0.126150
C49   C     C_R   0.224496 0.053179 0.305859 -0.122592
C50   C     C_R   0.174899 0.161130 0.284603 0.036593
C51   C     C_R   0.143863 0.258068 0.313805 -0.118857
C52   C     C_R   0.279142 0.119991 0.431015 0.538795
C53   C     C_R   0.169839 0.246151 0.362972 -0.126715
C54   C     C_R   0.175073 0.250800 0.206062 -0.120547
C55   C     C_R   0.147662 0.268659 0.157089 -0.129204
C56   C     C_3   0.672188 0.671688 0.708566 0.040385
C57   C     C_R   0.094212 0.122029 0.158545 -0.125719
C58   C     C_R   0.119691 0.105645 0.207517 -0.122318
C59   C     C_R   0.157108 0.172188 0.231980 0.036621
C60   C     C_R   0.103272 0.207073 0.133461 0.023197
C61   C     C_R   0.641226 0.139336 0.385067 0.023965
C62   C     C_R   0.549019 0.231591 0.362040 -0.124407
C63   C     C_R   0.556298 0.251764 0.313298 -0.121433
C64   C     C_3   0.774005 0.570382 0.733038 -0.097928
C65   C     C_R   0.656550 0.181361 0.287066 0.036825
C66   C     C_R   0.752230 0.095637 0.311121 -0.120314
C67   C     C_3   0.589568 0.739059 0.778165 -0.070712
C68   C     C_R   0.744480 0.074340 0.359823 -0.128292
C69   C     C_R   0.716076 0.097668 0.204139 -0.119269
C70   C     C_R   0.728038 0.109956 0.154851 -0.127042
C71   C     C_R   0.618374 0.315854 0.164740 -0.127127
C72   C     C_R   0.608097 0.303598 0.214120 -0.122537
C73   C     C_R   0.659857 0.194474 0.234403 0.035431
C74   C     C_R   0.682392 0.219173 0.135203 0.024467
C75   C     C_R   0.048267 0.235833 0.947525 0.545759
C76   C     C_3   0.776392 0.653789 0.771504 -0.113533
C77   C     C_R   0.712629 0.560624 0.946170 0.546121
C78   C     C_3   0.674486 0.755351 0.746208 -0.080140
C79   C     C_R   0.723055 0.224407 0.948888 0.544960
C80   C     C_R   0.047693 0.243791 0.086334 0.542962
C81   C     C_R   0.709216 0.572293 0.084214 0.541221
C82   C     C_R   0.719811 0.233468 0.087453 0.541427
C83   C     C_1   0.701452 0.600216 0.897540 -0.006730
C84   C     C_2   0.570887 0.394628 0.714113 0.553496
C85   C     C_2   0.377890 0.033008 0.737358 0.536449
C86   C     C_1   0.696568 0.621081 0.855030 -0.052514
Cr1   Cr    Cr6+3 0.417550 0.169090 0.500530 1.032975
Cr2   Cr    Cr6+3 0.669180 0.913420 0.499920 1.024051
Cr3   Cr    Cr6+3 0.413260 0.917540 0.499520 1.033462
Cr4   Cr    Cr6+3 0.909770 0.175810 0.018240 1.023320
Cr5   Cr    Cr6+3 0.913300 0.427650 0.016090 1.022801
Cr6   Cr    Cr6+3 0.657770 0.431010 0.016900 1.025527
H1    H     H_    0.854088 0.652930 0.785215 0.113653
H2    H     H_    0.771740 0.769206 0.375873 0.133034
H3    H     H_    0.849384 0.500925 0.713912 0.116947
H4    H     H_    0.492703 0.742054 0.220319 0.101842
H5    H     H_    0.509028 0.698456 0.133609 0.125213
H6    H     H_    0.793878 0.737496 0.289506 0.098775
H7    H     H_    0.858258 0.605401 0.227157 0.100102
H8    H     H_    0.873276 0.569936 0.140959 0.134123
H9    H     H_    0.544242 0.626035 0.290602 0.099497
H10   H     H_    0.515348 0.666364 0.377509 0.124718
H11   H     H_    0.292593 0.956313 0.369872 0.134374
H12   H     H_    0.252442 0.254855 0.793353 0.122559
H13   H     H_    0.207335 0.300595 0.223939 0.103076
H14   H     H_    0.156075 0.334173 0.138407 0.125762
H15   H     H_    0.670134 0.837673 0.738198 0.123514
H16   H     H_    0.249990 0.976978 0.284134 0.100214
H17   H     H_    0.104579 0.044851 0.226655 0.100947
H18   H     H_    0.059858 0.073337 0.141322 0.133720
H19   H     H_    0.102233 0.342664 0.298407 0.102901
H20   H     H_    0.151070 0.321165 0.384392 0.124191
H21   H     H_    0.468240 0.283439 0.380623 0.131927
H22   H     H_    0.753449 0.012529 0.218797 0.104919
H23   H     H_    0.077395 0.364936 0.722816 0.114487
H24   H     H_    0.777363 0.034385 0.132554 0.123914
H25   H     H_    0.481323 0.318382 0.295611 0.100204
H26   H     H_    0.564623 0.379570 0.236704 0.101745
H27   H     H_    0.513923 0.804577 0.798435 0.169556
H28   H     H_    0.583625 0.401164 0.150503 0.134430
H29   H     H_    0.831779 0.042653 0.291872 0.101792
H30   H     H_    0.817109 0.003424 0.376894 0.125424
H31   H     H_    0.508757 0.657963 0.726533 0.157482
H32   H     H_    0.695177 0.471967 0.774394 0.125696
H33   H     H_    0.209133 0.983092 0.788749 0.117513
H34   H     H_    0.939687 0.298844 0.774522 0.108686
H35   H     H_    0.033571 0.093569 0.718001 0.115989
H36   H     H_    0.593502 0.490116 0.664440 0.336437
H37   H     H_    0.506320 0.951584 0.688813 0.322869
H38   H     H_    0.470540 0.302855 0.791092 0.135608
H39   H     H_    0.545101 0.096119 0.737435 0.171179
H40   H     H_    0.745648 0.990063 0.795094 0.123298
H41   H     H_    0.857049 0.055392 0.725142 0.113209
H42   H     H_    0.784000 0.262712 0.777726 0.097609
O1    O     O_R   0.301780 0.195490 0.553940 -0.505938
O2    O     O_R   0.636050 0.541380 0.962520 -0.504860
O3    O     O_R   0.666480 0.323610 0.968170 -0.493456
O4    O     O_R   0.522450 0.158840 0.550250 -0.486427
O5    O     O_R   0.817280 0.156800 0.072180 -0.519589
O6    O     O_R   0.005110 0.187160 0.067410 -0.504576
O7    O     O_R   0.026450 0.340060 0.069950 -0.521334
O8    O     O_R   0.808300 0.527240 0.065170 -0.505830
O9    O     O_R   0.634070 0.548770 0.069460 -0.521406
O10   O     O_R   0.664650 0.330470 0.067300 -0.503769
O11   O     O_3   0.826940 0.344820 0.017080 -0.248350
O12   O     O_R   0.658840 0.818280 0.449970 -0.507175
O13   O     O_R   0.694460 0.003360 0.553820 -0.509509
O14   O     O_R   0.657750 0.819520 0.549120 -0.496615
O15   O     O_R   0.501990 0.803120 0.552700 -0.496059
O16   O     O_R   0.318230 0.023430 0.549370 -0.486603
O17   O     O_R   0.302950 0.194150 0.446980 -0.521382
O18   O     O_R   0.523540 0.157600 0.451100 -0.505159
O19   O     O_R   0.695630 0.002030 0.446860 -0.522248
O20   O     O_2   0.474899 0.471269 0.724727 -0.540187
O21   O     O_R   0.635692 0.411185 0.679029 -0.709252
O22   O     O_2   0.442780 0.002557 0.771862 -0.581526
O23   O     O_R   0.503160 0.801780 0.445740 -0.522845
O24   O     O_R   0.420063 0.999814 0.690154 -0.707714
O25   O     O_R   0.319320 0.022190 0.450230 -0.507643
O26   O     O_3   0.499990 0.000010 0.499990 -0.247536
O27   O     O_R   0.819250 0.149410 0.965240 -0.506600
O28   O     O_R   0.006940 0.180310 0.968270 -0.494377
O29   O     O_R   0.028420 0.332670 0.963010 -0.505803
O30   O     O_R   0.810130 0.520390 0.966030 -0.495640

loop_
_geom_bond_atom_site_label_1
_geom_bond_atom_site_label_2
_ccdc_geom_bond_type
C66   C68   A    
C63   C65   A    
C1    C21   S    
C23   C45   S    
C27   C29   S    
C58   H17   S    
C35   C36   A    
C18   C26   S    
C24   C27   S    
C81   O8    A    
C2    C12   T    
C33   H2    S    
Cr4   O5    S    
C56   C78   S    
C6    C75   S    
C39   C41   A    
C20   C30   T    
C45   H31   S    
C5    C9    S    
C4    O15   A    
C21   C31   T    
C62   C63   A    
C71   H28   S    
Cr4   O28   S    
C75   O28   A    
C50   C59   S    
C36   C37   A    
C43   H7    S    
Cr4   O11   S    
C34   C86   S    
C63   H25   S    
C84   O21   S    
C3    H35   S    
C77   C83   S    
C4    O14   A    
C65   C73   S    
Cr1   O26   S    
C75   O29   A    
C18   C19   S    
C42   C46   A    
C49   C50   A    
Cr6   O9    S    
C9    C13   S    
H36   O21   S    
C33   C35   A    
C6    C15   T    
C84   O20   D    
C11   C17   S    
C57   H18   S    
C45   C56   S    
C8    C9    S    
C7    C17   T    
C22   C25   S    
C70   C74   A    
C18   C84   S    
C41   C46   A    
C56   C64   S    
C69   C73   A    
C77   O2    A    
C32   C38   A    
C4    C12   S    
C35   H6    S    
C25   H41   S    
C61   C62   A    
C54   H13   S    
C47   C53   A    
Cr5   O8    S    
C28   C61   S    
Cr2   O26   S    
C77   O30   A    
Cr3   O15   S    
C26   C31   S    
Cr1   O17   S    
C55   C60   A    
C27   H40   S    
Cr5   O29   S    
Cr6   O2    S    
C67   C78   S    
C79   O27   A    
Cr6   O3    S    
H37   O24   S    
Cr3   O25   S    
C49   H16   S    
C54   C59   A    
Cr2   O14   S    
C69   H22   S    
Cr4   O27   S    
Cr1   O1    S    
C40   O23   A    
C3    C11   S    
C64   H3    S    
C62   H21   S    
C82   O10   A    
C3    C8    S    
C68   H30   S    
C57   C60   A    
C55   H14   S    
C70   H24   S    
C25   C26   S    
C80   O6    A    
C48   H11   S    
C78   H15   S    
C51   C53   A    
C85   O22   D    
C47   C52   S    
C43   C44   A    
C45   C67   S    
C37   C38   A    
C42   H8    S    
C76   H1    S    
C46   C81   S    
C47   C48   A    
C23   C34   S    
C82   O5    A    
C50   C51   A    
C64   C76   S    
C66   H29   S    
C13   H12   S    
C5    C14   S    
C39   C44   A    
C53   H20   S    
C8    H34   S    
C48   C49   A    
C79   O3    A    
C22   H42   S    
C28   O18   A    
Cr1   O18   S    
C28   O19   A    
C41   H5    S    
Cr5   O30   S    
C1    O13   A    
C42   C43   A    
Cr1   O4    S    
C5    H33   S    
C19   C29   S    
Cr3   O16   S    
Cr5   O11   S    
Cr3   O26   S    
C74   C82   S    
C54   C55   A    
C60   C80   S    
C51   H19   S    
C20   C79   S    
Cr6   O11   S    
C18   C22   S    
C7    C16   S    
C14   C85   S    
C76   C78   S    
C72   C73   A    
C3    C5    S    
C10   C13   S    
C34   C67   S    
C71   C74   A    
Cr4   O6    S    
Cr3   O23   S    
C23   H32   S    
C25   C27   S    
C40   O12   A    
Cr2   O19   S    
C19   C24   S    
C58   C59   A    
C23   C64   S    
C71   C72   A    
C38   H10   S    
C2    C56   S    
C32   C33   A    
C37   H9    S    
C61   C68   A    
C57   C58   A    
C29   H39   S    
C52   O25   A    
C52   O17   A    
C11   C14   S    
Cr2   O13   S    
C22   C24   S    
C32   C40   S    
C9    C15   S    
C69   C70   A    
Cr6   O10   S    
C24   C30   S    
C39   H4    S    
C36   C44   S    
C10   C11   S    
C1    O4    A    
C81   O9    A    
C83   C86   T    
C26   C29   S    
C8    C10   S    
C65   C66   A    
C85   O24   S    
C72   H26   S    
Cr2   O12   S    
C16   O16   A    
C19   H38   S    
C13   C14   S    
C16   O1    A    
C67   H27   S    
C80   O7    A    
C10   H23   S    
C34   C76   S    
Cr5   O7    S    
