data_mof_unit_11245.cif
_audit_creation_date              2012-12-11T14:56:26-0500
_audit_creation_method            fapswitch 2.2
_symmetry_space_group_name_H-M    P1
_symmetry_Int_Tables_number       1
_space_group_crystal_system       triclinic
_cell_length_a                    10.572642
_cell_length_b                    10.721746
_cell_length_c                    17.123016
_cell_angle_alpha                 80.193209
_cell_angle_beta                  90.183701
_cell_angle_gamma                 119.62647
_cell_volume                      1655.15718449

loop_
_atom_site_label
_atom_site_type_symbol
_atom_type_description
_atom_site_fract_x
_atom_site_fract_y
_atom_site_fract_z
_atom_type_partial_charge
C1    C     C_R   0.223102 0.854399 0.128767 0.550780
C2    C     C_R   0.705644 0.258468 0.300188 -0.133569
C3    C     C_R   0.707450 0.247459 0.221540 -0.149992
C4    C     C_R   0.643994 0.309079 0.167103 0.047568
C5    C     C_1   0.684785 0.832246 0.201925 -0.047491
C6    C     C_1   0.702745 0.807645 0.270605 -0.050064
C7    C     C_1   0.180850 0.825729 0.211330 -0.032243
C8    C     C_1   0.151238 0.820105 0.279778 -0.030057
C9    C     C_1   0.644214 0.324122 0.778227 -0.051423
C10   C     C_1   0.652165 0.346252 0.707664 -0.038323
C11   C     C_R   0.624086 0.713226 0.804975 -0.128377
C12   C     C_R   0.635391 0.274594 0.088706 0.595890
C13   C     C_R   0.612727 0.697614 0.726777 -0.128364
C14   C     C_R   0.671609 0.821759 0.665673 0.035458
C15   C     C_R   0.749608 0.961892 0.683113 -0.123314
C16   C     C_R   0.758021 0.977802 0.761934 -0.125274
C17   C     C_R   0.689428 0.853097 0.822881 0.028186
C18   C     C_R   0.238804 0.969812 0.760474 -0.107097
C19   C     C_R   0.227863 0.961881 0.681481 0.067628
C20   C     C_R   0.166767 0.823698 0.659779 0.032239
C21   C     C_R   0.133218 0.698650 0.717494 -0.150861
C22   C     C_R   0.147037 0.708817 0.797063 -0.139243
C23   C     C_R   0.643433 0.856029 0.124384 0.561161
C24   C     C_R   0.193853 0.843707 0.818688 0.013152
C25   C     C_R   0.710805 0.772678 0.353554 0.552081
C26   C     C_R   0.682518 0.387339 0.398328 0.552156
C27   C     C_R   0.103346 0.810368 0.359126 0.546533
C28   C     C_R   0.678266 0.799741 0.585729 0.548547
C29   C     C_R   0.679486 0.383490 0.624637 0.569780
C30   C     C_R   0.102531 0.803916 0.585019 0.563087
C31   C     C_R   0.224816 0.864138 0.898875 0.547180
C32   C     C_R   0.637486 0.284931 0.861015 0.551405
C33   C     C_R   0.647156 0.867070 0.899429 0.560006
C34   C     C_R   0.570355 0.376161 0.193290 -0.014526
C35   C     C_R   0.567454 0.384351 0.273475 -0.159089
C36   C     C_R   0.641093 0.332028 0.325720 0.024192
Cr1   Cr    Cr6+3 0.402240 0.783890 0.019450 1.056206
Cr2   Cr    Cr6+3 0.382360 0.097900 0.991800 1.058962
Cr3   Cr    Cr6+3 0.715380 0.118170 0.988700 1.030244
Cr4   Cr    Cr6+3 0.936650 0.882420 0.465510 1.053576
Cr5   Cr    Cr6+3 0.605770 0.565620 0.493360 1.054564
Cr6   Cr    Cr6+3 0.921340 0.550490 0.496380 1.032523
H1    H     H_    0.086770 0.591569 0.702099 0.148491
H2    H     H_    0.118670 0.611892 0.841549 0.139138
H3    H     H_    0.518586 0.443072 0.293428 0.127531
H4    H     H_    0.761532 0.216418 0.340095 0.146617
H5    H     H_    0.758050 0.188869 0.203519 0.148267
H6    H     H_    0.572246 0.616020 0.851455 0.153860
H7    H     H_    0.559794 0.588079 0.714167 0.144892
H8    H     H_    0.801360 0.057995 0.635995 0.137799
H9    H     H_    0.808540 0.087000 0.774826 0.144779
H10   H     H_    0.284831 0.076764 0.776048 0.159774
O1    O     O_R   0.521780 0.757110 0.108900 -0.498993
O2    O     O_R   0.513330 0.228330 0.898660 -0.496619
O3    O     O_R   0.739230 0.266130 0.888050 -0.515363
O4    O     O_R   0.712580 0.991850 0.918770 -0.509464
O5    O     O_3   0.499990 0.999980 0.999980 -0.271517
O6    O     O_R   0.083770 0.911170 0.376030 -0.507122
O7    O     O_R   0.808770 0.880340 0.383890 -0.494562
O8    O     O_R   0.584340 0.689460 0.394160 -0.502062
O9    O     O_R   0.614320 0.443940 0.423590 -0.507614
O10   O     O_R   0.805020 0.410040 0.421340 -0.515419
O11   O     O_R   0.049240 0.685450 0.403290 -0.495949
O12   O     O_R   0.275160 0.783810 0.101120 -0.496622
O13   O     O_R   0.077520 0.903010 0.551800 -0.475722
O14   O     O_R   0.802980 0.872780 0.546830 -0.492163
O15   O     O_R   0.578090 0.681300 0.569920 -0.508450
O16   O     O_R   0.608530 0.436370 0.586530 -0.474969
O17   O     O_R   0.798770 0.401880 0.597100 -0.518173
O18   O     O_R   0.043450 0.677890 0.566230 -0.510852
O19   O     O_3   0.821250 0.666180 0.485090 -0.287493
O20   O     O_R   0.237900 0.972600 0.090980 -0.506991
O21   O     O_R   0.511190 0.220540 0.061620 -0.463536
O22   O     O_R   0.736920 0.257720 0.063840 -0.530910
O23   O     O_R   0.710450 0.984050 0.081720 -0.502573
O24   O     O_R   0.524090 0.765520 0.933110 -0.491441
O25   O     O_R   0.277300 0.791600 0.938160 -0.499497
O26   O     O_R   0.240210 0.981010 0.915190 -0.521925
C37   C     C_2   0.502137 0.445085 0.139628 0.237630
H11   H     H_    0.421332 0.465483 0.164527 0.117597
O27   O     O_2   0.538741 0.485076 0.068182 -0.492825
I1    I     I_    0.294347 0.165514 0.602986 -0.341342

loop_
_geom_bond_atom_site_label_1
_geom_bond_atom_site_label_2
_ccdc_geom_bond_type
Cr4   O19   S    
C12   O22   A    
C19   C20   A    
C16   H9    S    
Cr5   O9    S    
C18   H10   S    
C7    C8    T    
Cr5   O15   S    
C20   C30   S    
C2    H4    S    
C18   C24   A    
C21   C22   A    
C26   O9    A    
C34   C35   A    
C5    C6    T    
Cr3   O22   S    
C6    C25   S    
C15   C16   A    
Cr2   O5    S    
Cr6   O18   S    
C18   C19   A    
C15   H8    S    
C9    C32   S    
C21   H1    S    
Cr3   O3    S    
C35   C36   A    
C16   C17   A    
C5    C23   S    
C31   O25   A    
C25   O8    A    
Cr3   O23   S    
C4    C12   S    
C19   I1    S    
C9    C10   T    
Cr6   O10   S    
C32   O3    A    
Cr5   O19   S    
Cr1   O1    S    
C33   O4    A    
Cr4   O7    S    
Cr4   O14   S    
C13   C14   A    
C11   H6    S    
C17   C33   S    
C32   O2    A    
C30   O18   A    
C23   O1    A    
Cr5   O16   S    
C29   O17   A    
Cr2   O20   S    
C1    O20   A    
Cr4   O6    S    
C28   O15   A    
C37   O27   D    
Cr2   O26   S    
Cr1   O25   S    
Cr6   O17   S    
C28   O14   A    
C34   C37   S    
C29   O16   A    
C33   O24   A    
Cr3   O4    S    
Cr2   O2    S    
C27   O11   A    
C13   H7    S    
C26   C36   S    
Cr1   O24   S    
Cr4   O13   S    
C22   C24   A    
C3    C4    A    
C35   H3    S    
C1    O12   A    
Cr1   O12   S    
C31   O26   A    
C2    C36   A    
C11   C17   A    
C22   H2    S    
C1    C7    S    
Cr5   O8    S    
C23   O23   A    
C27   O6    A    
C2    C3    A    
C26   O10   A    
C24   C31   S    
C11   C13   A    
C10   C29   S    
C3    H5    S    
Cr6   O19   S    
C4    C34   A    
C30   O13   A    
C37   H11   S    
C20   C21   A    
C8    C27   S    
C14   C15   A    
C25   O7    A    
C14   C28   S    
C12   O21   A    
Cr6   O11   S    
Cr1   O5    S    
Cr2   O21   S    
Cr3   O5    S    
