data_mof_unit_64281.cif
_audit_creation_date              2012-12-10T17:28:58-0500
_audit_creation_method            fapswitch 2.2
_symmetry_space_group_name_H-M    P1
_symmetry_Int_Tables_number       1
_space_group_crystal_system       triclinic
_cell_length_a                    18.646158
_cell_length_b                    18.679729
_cell_length_c                    18.694213
_cell_angle_alpha                 109.500814
_cell_angle_beta                  109.459462
_cell_angle_gamma                 109.477079
_cell_volume                      5010.92762127

loop_
_atom_site_label
_atom_site_type_symbol
_atom_type_description
_atom_site_fract_x
_atom_site_fract_y
_atom_site_fract_z
_atom_type_partial_charge
C1    C     C_R   0.621700 0.501664 0.619950 0.810534
C2    C     C_R   0.378902 0.498887 0.379956 0.805848
C3    C     C_3   0.342722 0.246516 0.515190 -0.425052
C4    C     C_3   0.660730 0.757401 0.491712 -0.420272
C5    C     C_3   0.312163 0.310768 0.500992 0.144912
C6    C     C_3   0.688239 0.689390 0.499526 0.141591
C7    C     C_3   0.189563 0.186836 0.498142 0.165566
C8    C     C_3   0.810692 0.813055 0.501960 0.166318
C9    C     C_3   0.153235 0.188834 0.411138 -0.361322
C10   C     C_3   0.848520 0.807230 0.586586 -0.354886
C11   C     C_3   0.270286 0.172646 0.512921 0.014144
C12   C     C_3   0.732790 0.830739 0.493178 0.003287
C13   C     C_3   0.759602 0.596308 0.765756 -0.402962
C14   C     C_3   0.264628 0.416214 0.219825 -0.395711
C15   C     C_3   0.828332 0.595405 0.839105 -0.393447
C16   C     C_3   0.196592 0.420267 0.149197 -0.397034
C17   C     C_3   0.646084 0.443176 0.722550 0.324475
C18   C     C_3   0.350032 0.586274 0.308957 0.328526
C19   C     C_3   0.740305 0.462043 0.652589 -0.455654
C20   C     C_3   0.235788 0.496508 0.332830 -0.469915
C21   C     C_3   0.690012 0.501263 0.689187 0.089501
C22   C     C_3   0.310148 0.499293 0.311230 0.066413
C23   C     C_R   0.380807 0.380041 0.500922 0.789832
C24   C     C_R   0.619324 0.620008 0.499238 0.788324
C25   C     C_3   0.810336 0.500368 0.811869 0.123056
C26   C     C_3   0.189353 0.502422 0.191079 0.103439
C27   C     C_3   0.717595 0.444297 0.796706 -0.444951
C28   C     C_3   0.280115 0.585889 0.235079 -0.421208
C29   C     C_3   0.810737 0.461520 0.724785 -0.411862
C30   C     C_3   0.165878 0.500387 0.263127 -0.391748
C31   C     C_3   0.000641 0.310736 0.811763 0.118442
C32   C     C_3   0.999466 0.689173 0.188360 0.121502
C33   C     C_R   0.001585 0.121575 0.620019 0.775155
C34   C     C_R   0.998085 0.878125 0.379941 0.772887
C35   C     C_R   0.120080 0.118145 0.498160 0.787273
C36   C     C_R   0.879970 0.881629 0.501658 0.789322
C37   C     C_R   0.000061 0.620161 0.119963 0.806797
C38   C     C_R   0.000167 0.379825 0.880256 0.811873
C39   C     C_R   0.879740 0.500645 0.880770 0.796947
C40   C     C_R   0.120157 0.501890 0.121786 0.793555
C41   C     C_3   0.968081 0.244083 0.654326 -0.417228
C42   C     C_3   0.026647 0.752452 0.344015 -0.420662
C43   C     C_3   0.937746 0.145928 0.718510 -0.007907
C44   C     C_3   0.065857 0.854092 0.285187 -0.007428
C45   C     C_3   0.095938 0.326725 0.841248 0.012915
C46   C     C_3   0.904837 0.675577 0.156606 0.011232
C47   C     C_3   0.938877 0.217415 0.791284 -0.335716
C48   C     C_3   0.064642 0.782747 0.212184 -0.336367
C49   C     C_3   0.966904 0.314418 0.725986 -0.479554
C50   C     C_3   0.028687 0.682590 0.272773 -0.479006
C51   C     C_3   0.001249 0.189804 0.689443 0.102617
C52   C     C_3   0.998429 0.809940 0.310420 0.102693
C53   C     C_3   0.096033 0.255309 0.769073 -0.414486
C54   C     C_3   0.904614 0.747350 0.228370 -0.411230
C55   C     C_3   0.292428 0.350500 0.574828 -0.353738
C56   C     C_3   0.704102 0.649999 0.422419 -0.362258
C57   C     C_3   0.221761 0.277475 0.574219 -0.476411
C58   C     C_3   0.774066 0.723003 0.422372 -0.475819
C59   C     C_3   0.226456 0.258882 0.411503 -0.410024
C60   C     C_3   0.775484 0.737410 0.586730 -0.412629
Cu1   Cu    Cu3+1 0.499950 0.562450 0.562440 0.920721
Cu2   Cu    Cu3+1 0.500050 0.437550 0.437560 0.903659
Cu3   Cu    Cu3+1 0.062480 0.999960 0.562430 0.910034
Cu4   Cu    Cu3+1 0.937520 0.000040 0.437570 0.911091
Cu5   Cu    Cu3+1 0.062470 0.562430 0.999950 0.915653
Cu6   Cu    Cu3+1 0.937530 0.437570 0.000050 0.912305
H1    H     H_    0.359178 0.218385 0.464456 0.174528
H2    H     H_    0.648131 0.785768 0.545698 0.179735
H3    H     H_    0.404069 0.282882 0.579706 0.161032
H4    H     H_    0.598000 0.724358 0.429686 0.198146
H5    H     H_    0.298454 0.177260 0.578144 0.156552
H6    H     H_    0.703057 0.828404 0.429301 0.158375
H7    H     H_    0.237775 0.226438 0.357825 0.173240
H8    H     H_    0.767182 0.769528 0.642992 0.170274
H9    H     H_    0.124515 0.123683 0.353552 0.161289
H10   H     H_    0.880244 0.871768 0.646257 0.161393
H11   H     H_    0.728926 0.631430 0.792590 0.181455
H12   H     H_    0.312102 0.406492 0.200336 0.157735
H13   H     H_    0.793314 0.634606 0.740883 0.151399
H14   H     H_    0.230449 0.356706 0.222917 0.169919
H15   H     H_    0.894968 0.637685 0.852375 0.183386
H16   H     H_    0.131692 0.359680 0.114468 0.180018
H17   H     H_    0.826835 0.624243 0.900692 0.164923
H18   H     H_    0.216363 0.422164 0.099743 0.171347
H19   H     H_    0.125724 0.220921 0.795652 0.175875
H20   H     H_    0.878607 0.784146 0.202337 0.176295
H21   H     H_    0.718103 0.468857 0.859702 0.156884
H22   H     H_    0.299222 0.589797 0.185692 0.188914
H23   H     H_    0.694130 0.393696 0.596778 0.175830
H24   H     H_    0.262692 0.552542 0.398597 0.174888
H25   H     H_    0.772155 0.501164 0.627268 0.176191
H26   H     H_    0.204392 0.435523 0.334820 0.167460
H27   H     H_    0.876416 0.500371 0.734019 0.180671
H28   H     H_    0.100602 0.442152 0.233610 0.189850
H29   H     H_    0.797728 0.393148 0.703829 0.147741
H30   H     H_    0.161696 0.559768 0.295023 0.145843
H31   H     H_    0.608390 0.374629 0.666723 0.086177
H32   H     H_    0.364034 0.638826 0.370904 0.111910
H33   H     H_    0.703369 0.375611 0.776273 0.149106
H34   H     H_    0.274953 0.645478 0.263462 0.131108
H35   H     H_    0.898853 0.303345 0.703002 0.159827
H36   H     H_    0.096283 0.692213 0.297444 0.158416
H37   H     H_    0.900516 0.200469 0.596554 0.183962
H38   H     H_    0.093091 0.793854 0.403511 0.184400
H39   H     H_    0.139009 0.287406 0.746895 0.133297
H40   H     H_    0.858453 0.715294 0.247772 0.134100
H41   H     H_    0.011292 0.276302 0.632438 0.167053
H42   H     H_    0.980190 0.719638 0.362731 0.165256
H43   H     H_    0.008642 0.380351 0.737621 0.177976
H44   H     H_    0.984659 0.616279 0.258768 0.179009
H45   H     H_    0.136781 0.391292 0.849499 0.155429
H46   H     H_    0.861545 0.610881 0.146518 0.153551
H47   H     H_    0.869846 0.105800 0.661026 0.158984
H48   H     H_    0.132736 0.891827 0.343949 0.159668
H49   H     H_    0.870713 0.205922 0.768971 0.143899
H50   H     H_    0.132172 0.792247 0.235579 0.142935
H51   H     H_    0.959125 0.212481 0.851738 0.187096
H52   H     H_    0.047381 0.789858 0.152948 0.188344
H53   H     H_    0.269044 0.396034 0.565541 0.171989
H54   H     H_    0.726712 0.603111 0.428572 0.176040
H55   H     H_    0.353431 0.388961 0.639814 0.181705
H56   H     H_    0.641820 0.612757 0.358809 0.171092
H57   H     H_    0.249514 0.279502 0.638082 0.161350
H58   H     H_    0.744403 0.723463 0.360166 0.162324
H59   H     H_    0.165732 0.289365 0.567042 0.162626
H60   H     H_    0.828145 0.709028 0.424789 0.160922
H61   H     H_    0.205197 0.304351 0.398223 0.143481
H62   H     H_    0.795038 0.689574 0.595986 0.144246
H63   H     H_    0.099453 0.204511 0.403271 0.174585
H64   H     H_    0.900266 0.789154 0.590045 0.172826
O1    O     O_R   0.591120 0.552750 0.643890 -0.566369
O2    O     O_R   0.408880 0.447250 0.356110 -0.599459
O3    O     O_R   0.947240 0.538460 0.091150 -0.597160
O4    O     O_R   0.052760 0.461540 0.908850 -0.593718
O5    O     O_R   0.961590 0.552710 0.908800 -0.595974
O6    O     O_R   0.038410 0.447290 0.091200 -0.595248
O7    O     O_R   0.856080 0.447270 0.908890 -0.593198
O8    O     O_R   0.143920 0.552730 0.091110 -0.591916
O9    O     O_R   0.591210 0.447270 0.538420 -0.609020
O10   O     O_R   0.408790 0.552730 0.461580 -0.599364
O11   O     O_R   0.408810 0.461590 0.552740 -0.587252
O12   O     O_R   0.591190 0.538410 0.447260 -0.599952
O13   O     O_R   0.408900 0.356100 0.447280 -0.598511
O14   O     O_R   0.591100 0.643900 0.552720 -0.596017
O15   O     O_R   0.052750 0.091090 0.643890 -0.598023
O16   O     O_R   0.947250 0.908910 0.356110 -0.597530
O17   O     O_R   0.947230 0.091150 0.538450 -0.590089
O18   O     O_R   0.052770 0.908850 0.461550 -0.590224
O19   O     O_R   0.143910 0.091120 0.552710 -0.585222
O20   O     O_R   0.856090 0.908880 0.447290 -0.586130
O21   O     O_R   0.038380 0.091180 0.447270 -0.604150
O22   O     O_R   0.961620 0.908820 0.552730 -0.604885
O23   O     O_R   0.052740 0.643910 0.091070 -0.599141
O24   O     O_R   0.947260 0.356090 0.908930 -0.598870
N1    N     N_3   0.135817 0.331280 0.925995 -0.635164
H65   H     H_    0.108176 0.268871 0.918793 0.220865
H66   H     H_    0.202548 0.353081 0.947654 0.205491
N2    N     N_3   0.868726 0.672988 0.072377 -0.638359
H67   H     H_    0.898427 0.735897 0.081149 0.219452
H68   H     H_    0.801840 0.651963 0.048518 0.201482
N3    N     N_3   0.244235 0.085327 0.446525 -0.621738
H69   H     H_    0.297399 0.074671 0.465908 0.211855
H70   H     H_    0.230827 0.083025 0.386614 0.234098
N4    N     N_3   0.762980 0.918064 0.562841 -0.624213
H71   H     H_    0.711203 0.931159 0.547488 0.215126
H72   H     H_    0.778350 0.918719 0.622265 0.233455
O25   O     O_3   0.580064 0.457245 0.736889 -0.590744
C61   C     C_3   0.607893 0.517423 0.823689 0.094239
H73   H     H_    0.676862 0.570995 0.860005 0.136665
H74   H     H_    0.599709 0.481631 0.860003 0.139553
C62   C     C_3   0.550058 0.558848 0.821531 -0.805117
H75   H     H_    0.480380 0.507377 0.789011 0.237794
H76   H     H_    0.570699 0.605691 0.889426 0.186724
H77   H     H_    0.556129 0.594732 0.785053 0.258484
O26   O     O_3   0.433474 0.614813 0.313870 -0.608479
C63   C     C_3   0.434335 0.560720 0.240541 0.076445
H78   H     H_    0.369648 0.517558 0.179787 0.139634
H79   H     H_    0.460447 0.519433 0.256854 0.161371
C64   C     C_3   0.494850 0.618321 0.220406 -0.854784
H80   H     H_    0.561713 0.662926 0.278501 0.242492
H81   H     H_    0.499227 0.576616 0.165443 0.200840
H82   H     H_    0.468471 0.658329 0.201348 0.249856
N5    N     N_3   0.956613 0.086966 0.747458 -0.613391
H83   H     H_    0.022106 0.118701 0.796172 0.225525
H84   H     H_    0.944702 0.032633 0.694565 0.234051
N6    N     N_3   0.051770 0.916024 0.258443 -0.614170
H85   H     H_    0.987715 0.886106 0.207450 0.224665
H86   H     H_    0.062088 0.969086 0.311377 0.231597

loop_
_geom_bond_atom_site_label_1
_geom_bond_atom_site_label_2
_ccdc_geom_bond_type
C62   H75   S    
C55   H55   S    
C1    C21   S    
C4    H4    S    
C10   H10   S    
C46   H46   S    
N1    H66   S    
C54   H20   S    
C56   H54   S    
C43   H47   S    
C3    C11   S    
C50   H44   S    
Cu2   O13   S    
C26   C40   S    
C39   O7    A    
N3    H69   S    
N4    H72   S    
C15   H15   S    
C55   H53   S    
C47   H49   S    
C62   H76   S    
C27   H33   S    
N4    H71   S    
C3    H3    S    
C31   C49   S    
N5    H84   S    
C49   H35   S    
C11   H5    S    
C15   C25   S    
C12   N4    S    
C59   H61   S    
C46   N2    S    
C11   N3    S    
C13   H13   S    
C8    C36   S    
C60   H8    S    
Cu3   O19   S    
Cu5   O23   S    
C33   O17   A    
C8    C58   S    
C34   O18   A    
C63   C64   S    
C24   O12   A    
C40   O8    A    
C2    C22   S    
C2    O2    A    
C45   N1    S    
C14   H14   S    
Cu2   O9    S    
C4    C12   S    
Cu3   O15   S    
C43   C47   S    
C59   H7    S    
Cu5   O4    S    
C1    O9    A    
C48   H50   S    
C64   H82   S    
C32   C46   S    
C18   O26   S    
C28   H34   S    
C61   H74   S    
C12   H6    S    
C45   C53   S    
C31   C47   S    
C64   H81   S    
N2    H68   S    
C32   C48   S    
C23   O13   A    
C35   O21   A    
Cu2   O12   S    
C41   C49   S    
N3    H70   S    
C52   C54   S    
C7    C11   S    
C61   C62   S    
C25   C29   S    
C62   H77   S    
C13   H11   S    
C5    C59   S    
Cu4   O21   S    
C17   C27   S    
Cu2   O2    S    
C60   H62   S    
C18   C28   S    
C4    C6    S    
C17   O25   S    
O25   C61   S    
C29   H29   S    
C54   H40   S    
C36   O22   A    
C30   H30   S    
C39   O5    A    
C3    C5    S    
C20   H24   S    
C16   H18   S    
C17   C21   S    
C41   H37   S    
Cu4   O20   S    
C51   C53   S    
C56   H56   S    
C10   C60   S    
N5    H83   S    
C10   H64   S    
C28   H22   S    
C19   H23   S    
C6    C60   S    
C57   H57   S    
Cu6   O3    S    
C20   H26   S    
Cu1   O14   S    
O26   C63   S    
C5    C23   S    
C8    C12   S    
C6    C24   S    
C46   C54   S    
C16   H16   S    
C4    H2    S    
C13   C21   S    
C32   C37   S    
C27   H21   S    
C32   C50   S    
Cu5   O5    S    
C33   O15   A    
C42   C50   S    
Cu6   O6    S    
Cu5   O8    S    
Cu1   O11   S    
C61   H73   S    
C20   C22   S    
C58   H60   S    
C55   C57   S    
Cu4   O17   S    
N2    H67   S    
C37   O3    A    
C33   C51   S    
Cu6   O24   S    
N6    H86   S    
C19   C29   S    
C40   O6    A    
Cu3   O18   S    
C49   H43   S    
C7    C9    S    
C63   H78   S    
C38   O4    A    
C41   H41   S    
Cu4   O16   S    
C18   C22   S    
C26   C28   S    
C5    C55   S    
C3    H1    S    
C6    C56   S    
C58   H58   S    
C1    O1    A    
C16   C26   S    
C42   H38   S    
C44   C52   S    
C48   H52   S    
C45   H45   S    
Cu1   O10   S    
C50   H36   S    
C9    H63   S    
C64   H80   S    
C25   C27   S    
C35   O19   A    
C34   C52   S    
C31   C38   S    
C2    O10   A    
C14   C22   S    
C37   O23   A    
C13   C15   S    
C30   H28   S    
C20   C30   S    
C57   H59   S    
C29   H27   S    
C34   O16   A    
C43   C51   S    
Cu6   O7    S    
C17   H31   S    
C24   O14   A    
C15   H17   S    
C7    C35   S    
C43   N5    S    
C56   C58   S    
C14   C16   S    
C14   H12   S    
Cu1   Cu2   S    
C18   H32   S    
C7    C57   S    
Cu3   O22   S    
C19   H25   S    
Cu1   O1    S    
C44   H48   S    
Cu3   Cu4   S    
C36   O20   A    
C53   H39   S    
C47   H51   S    
C8    C10   S    
Cu5   Cu6   S    
C31   C45   S    
C44   N6    S    
N1    H65   S    
C38   O24   A    
C23   O11   A    
C53   H19   S    
C9    H9    S    
C9    C59   S    
N6    H85   S    
C42   H42   S    
C41   C51   S    
C25   C39   S    
C44   C48   S    
C42   C52   S    
C63   H79   S    
C19   C21   S    
C26   C30   S    
