data_mof_unit_56494.cif
_audit_creation_date              2012-12-11T15:12:40-0500
_audit_creation_method            fapswitch 2.2
_symmetry_space_group_name_H-M    P1
_symmetry_Int_Tables_number       1
_space_group_crystal_system       triclinic
_cell_length_a                    22.3575
_cell_length_b                    6.938932
_cell_length_c                    19.331338
_cell_angle_alpha                 89.703512
_cell_angle_beta                  99.199976
_cell_angle_gamma                 89.734756
_cell_volume                      2960.34598697

loop_
_atom_site_label
_atom_site_type_symbol
_atom_type_description
_atom_site_fract_x
_atom_site_fract_y
_atom_site_fract_z
_atom_type_partial_charge
O1    O     O_R   0.448420 0.506120 0.415750 -0.534591
O2    O     O_R   0.551580 0.006120 0.584250 -0.536432
O3    O     O_R   0.436490 0.174470 0.555610 -0.539081
O4    O     O_R   0.563510 0.674470 0.444390 -0.536941
C1    C     C_R   0.421075 0.344724 0.575786 0.718312
C2    C     C_R   0.579073 0.844726 0.424387 0.717959
O5    O     O_R   0.441310 0.176330 0.414520 -0.537916
O6    O     O_R   0.558690 0.676330 0.585480 -0.538534
O7    O     O_R   0.556430 0.007110 0.442150 -0.537300
O8    O     O_R   0.443570 0.507110 0.557850 -0.532839
C3    C     C_R   0.426811 0.346120 0.388347 0.716846
C4    C     C_R   0.573300 0.844273 0.611684 0.715397
O9    O     O_3   0.537770 0.339560 0.509230 -0.368847
O10   O     O_3   0.462230 0.839560 0.490770 -0.364703
V1    V     V_3+5 0.492990 0.064280 0.498290 1.411671
V2    V     V_3+5 0.507010 0.564280 0.501710 1.417616
C5    C     C_R   0.865810 0.008623 0.696121 -0.124261
C6    C     C_R   0.129965 0.399122 0.304958 -0.125937
H1    H     H_    0.952679 0.034844 0.760589 0.107350
H2    H     H_    0.042968 0.426794 0.240535 0.105848
H3    H     H_    0.884177 0.050557 0.649748 0.161196
H4    H     H_    0.109625 0.389009 0.352067 0.160445
C7    C     C_R   0.884498 0.945520 0.820934 -0.039883
C8    C     C_R   0.115106 0.434176 0.178899 -0.036909
C9    C     C_R   0.591873 0.798350 0.739415 -0.256015
C10   C     C_R   0.411085 0.367972 0.259864 -0.257020
C11   C     C_R   0.629245 0.786997 0.804447 0.509727
C12   C     C_R   0.374959 0.388946 0.194312 0.511494
C13   C     C_R   0.690797 0.830105 0.810152 -0.227126
C14   C     C_R   0.311928 0.395416 0.188961 -0.220860
C15   C     C_R   0.717228 0.878422 0.750566 0.005706
C16   C     C_R   0.283291 0.388157 0.249154 0.005928
C17   C     C_R   0.678451 0.888424 0.684166 0.013963
C18   C     C_R   0.320906 0.368460 0.316025 0.013164
C19   C     C_R   0.780818 0.915560 0.754819 0.041302
C20   C     C_R   0.218707 0.400620 0.245031 0.042113
C21   C     C_R   0.803709 0.967776 0.692651 0.056391
C22   C     C_R   0.193286 0.388279 0.307944 0.054077
C23   C     C_R   0.764719 0.981526 0.627796 0.385777
C24   C     C_R   0.230856 0.362276 0.373130 0.385207
C25   C     C_R   0.703170 0.935933 0.624067 -0.282644
C26   C     C_R   0.293956 0.358407 0.376686 -0.277842
C27   C     C_R   0.822773 0.903120 0.818690 -0.188794
C28   C     C_R   0.178147 0.424522 0.180621 -0.186595
C29   C     C_R   0.905396 0.999216 0.759469 -0.195241
C30   C     C_R   0.091508 0.421216 0.241248 -0.196667
C31   C     C_R   0.615480 0.848058 0.679108 -0.125911
C32   C     C_R   0.385069 0.358891 0.320828 -0.121904
H5    H     H_    0.809052 0.864018 0.867789 0.092491
H6    H     H_    0.193762 0.434653 0.130838 0.090660
H7    H     H_    0.544014 0.767286 0.735982 0.119971
H8    H     H_    0.459887 0.359204 0.263175 0.117462
H9    H     H_    0.716526 0.822967 0.862166 0.127855
H10   H     H_    0.286914 0.407013 0.136679 0.128162
H11   H     H_    0.674580 0.936911 0.573365 0.107301
H12   H     H_    0.321844 0.347005 0.427741 0.108255
C33   C     C_3   0.818355 0.803592 0.277217 -0.328560
C34   C     C_3   0.211261 0.204397 0.763743 -0.328475
C35   C     C_3   0.770495 0.114442 0.228876 -0.329846
C36   C     C_3   0.193652 0.551581 0.728556 -0.332923
C37   C     C_3   0.722384 0.096996 0.278568 -0.331221
C38   C     C_3   0.241886 0.534554 0.678986 -0.324202
H13   H     H_    0.787649 0.854634 0.377998 0.153349
H14   H     H_    0.237493 0.137255 0.661893 0.142842
H15   H     H_    0.858666 0.881426 0.304557 0.141195
H16   H     H_    0.166075 0.163890 0.734637 0.139002
H17   H     H_    0.750762 0.195991 0.180832 0.139363
H18   H     H_    0.191960 0.702798 0.747134 0.139478
H19   H     H_    0.809901 0.198274 0.255256 0.137421
H20   H     H_    0.148106 0.517659 0.698870 0.141741
H21   H     H_    0.738812 0.172852 0.328502 0.140714
H22   H     H_    0.219342 0.493492 0.625645 0.152769
H23   H     H_    0.679738 0.170081 0.254113 0.139804
H24   H     H_    0.263234 0.677599 0.674181 0.138185
C39   C     C_1   0.625188 0.854965 0.379403 -0.194854
C40   C     C_1   0.375268 0.355116 0.621185 -0.193415
C41   C     C_3   0.791862 0.912215 0.208624 0.285222
C42   C     C_3   0.208773 0.412650 0.792218 0.285627
C43   C     C_3   0.770225 0.785869 0.326925 -0.324289
C44   C     C_3   0.259566 0.187007 0.714318 -0.335762
C45   C     C_3   0.709577 0.882414 0.293762 0.285316
C46   C     C_3   0.291213 0.383095 0.707261 0.285744
C47   C     C_3   0.687388 0.782494 0.222718 -0.327309
C48   C     C_3   0.320996 0.446537 0.781663 -0.325236
C49   C     C_3   0.735453 0.799943 0.172979 -0.322328
C50   C     C_3   0.272818 0.463723 0.831318 -0.322747
C51   C     C_1   0.663339 0.866301 0.341214 -0.094639
C52   C     C_1   0.337359 0.366744 0.659686 -0.093597
C53   C     C_1   0.837903 0.928333 0.160830 -0.097726
C54   C     C_1   0.162576 0.428570 0.839814 -0.097263
C55   C     C_1   0.875585 0.939615 0.121983 -0.191090
C56   C     C_1   0.124691 0.439659 0.878407 -0.190286
H25   H     H_    0.749220 0.653249 0.158326 0.138455
H26   H     H_    0.285322 0.365532 0.877099 0.146794
H27   H     H_    0.714956 0.874912 0.123779 0.146067
H28   H     H_    0.272715 0.613212 0.851895 0.139672
H29   H     H_    0.678315 0.627517 0.231726 0.137736
H30   H     H_    0.356455 0.340278 0.803837 0.143736
H31   H     H_    0.833791 0.657055 0.264580 0.138173
H32   H     H_    0.222361 0.100774 0.808133 0.139010
H33   H     H_    0.762643 0.630908 0.337708 0.137647
H34   H     H_    0.293798 0.075770 0.735375 0.138906
H35   H     H_    0.644004 0.849133 0.197193 0.143041
H36   H     H_    0.343795 0.587874 0.778607 0.139963
O11   O     O_R   0.056480 0.288780 0.942210 -0.535314
O12   O     O_R   0.943520 0.788780 0.057790 -0.535443
O13   O     O_R   0.058700 0.616820 0.085490 -0.538039
O14   O     O_R   0.941300 0.116820 0.914510 -0.538000
C57   C     C_R   0.073159 0.447324 0.111793 0.693814
C58   C     C_R   0.926794 0.949219 0.888085 0.693168
O15   O     O_R   0.063520 0.618570 0.944410 -0.537627
O16   O     O_R   0.936480 0.118570 0.055590 -0.537745
O17   O     O_R   0.948420 0.787670 0.915740 -0.535880
O18   O     O_R   0.051580 0.287670 0.084260 -0.535460
C59   C     C_R   0.078955 0.449785 0.923982 0.726480
C60   C     C_R   0.921102 0.949782 0.076121 0.727105
O19   O     O_3   0.962260 0.453430 0.990800 -0.366549
O20   O     O_3   0.037740 0.953430 0.009200 -0.365804
V3    V     V_3+5 0.007000 0.728750 0.001710 1.422790
V4    V     V_3+5 0.993000 0.228750 0.998290 1.423332
O21   O     O_3   0.789050 0.024850 0.567643 -0.560528
C61   C     C_3   0.755224 0.171059 0.527382 0.101408
H37   H     H_    0.737844 0.282337 0.560764 0.120006
H38   H     H_    0.716656 0.106309 0.491786 0.125802
C62   C     C_3   0.795659 0.271927 0.482409 -0.722533
H39   H     H_    0.813527 0.166243 0.447791 0.216324
H40   H     H_    0.769251 0.384310 0.449414 0.173046
H41   H     H_    0.834255 0.341292 0.516384 0.226604
O22   O     O_3   0.205004 0.352986 0.433795 -0.560036
C63   C     C_3   0.222715 0.181376 0.471604 0.095372
H42   H     H_    0.265302 0.206294 0.508736 0.126899
H43   H     H_    0.229509 0.057842 0.436806 0.121437
C64   C     C_3   0.173428 0.124492 0.513532 -0.724367
H44   H     H_    0.130599 0.095432 0.477459 0.222969
H45   H     H_    0.187333 0.992202 0.544678 0.176780
H46   H     H_    0.165465 0.242376 0.549630 0.217406
O23   O     O_3   0.605171 0.743354 0.864091 -0.554609
C65   C     C_3   0.597524 0.542071 0.867226 -0.250213
H47   H     H_    0.641305 0.464202 0.867902 0.137429
H48   H     H_    0.563242 0.490781 0.823093 0.135275
H49   H     H_    0.580705 0.505956 0.916656 0.168500
O24   O     O_3   0.400814 0.391670 0.134022 -0.554129
C66   C     C_3   0.425518 0.575850 0.126666 -0.252244
H50   H     H_    0.464092 0.604579 0.169273 0.132423
H51   H     H_    0.390395 0.690959 0.124930 0.141044
H52   H     H_    0.443267 0.581328 0.076288 0.169056

loop_
_geom_bond_atom_site_label_1
_geom_bond_atom_site_label_2
_ccdc_geom_bond_type
C66   H52   S    
C22   C24   A    
C24   O22   S    
C7    C29   A    
O12   V3    S    
C11   C13   A    
O13   C57   A    
C33   C43   S    
O1    C3    A    
O2    C4    A    
C35   C41   S    
C2    O7    A    
C2    C39   S    
C23   C25   A    
H13   C43   S    
C42   C54   S    
O5    C3    A    
C14   H10   S    
C41   C53   S    
C11   O23   S    
C47   H35   S    
C16   C20   A    
O15   V3    S    
C19   C21   A    
C5    C29   A    
O19   V3    S    
C17   C31   A    
C66   H50   S    
C33   H31   S    
C7    C27   A    
C55   C60   S    
C36   C38   S    
O14   V4    S    
O20   V3    S    
C25   H11   S    
C50   H26   S    
C48   C50   S    
C26   H12   S    
O17   V3    S    
C49   H25   S    
C34   H16   S    
C18   C26   A    
C62   H41   S    
C15   C17   A    
O11   V4    S    
C53   C55   T    
C19   C27   A    
C9    C31   A    
C10   C32   A    
C35   H17   S    
C37   H21   S    
C24   C26   A    
C38   C46   S    
C41   C49   S    
O6    V2    S    
H14   C44   S    
C3    C32   S    
C4    C31   S    
O18   V4    S    
C6    C30   A    
O13   V3    S    
C45   C47   S    
C35   C37   S    
O24   C66   S    
C33   C41   S    
C34   H32   S    
C17   C25   A    
C44   C46   S    
O19   V4    S    
C43   C45   S    
C27   H5    S    
O5    V1    S    
C37   H23   S    
C5    H3    S    
C44   H34   S    
C16   C18   A    
C37   C45   S    
O4    V2    S    
C63   H43   S    
C9    H7    S    
C10   H8    S    
C64   H46   S    
C54   C56   T    
C36   H20   S    
O6    C4    A    
C36   C42   S    
C38   H22   S    
O1    V2    S    
C5    C21   A    
C62   H40   S    
O2    V1    S    
C58   O17   A    
O21   C61   S    
C45   C51   S    
C50   H28   S    
C57   O18   A    
C35   H19   S    
C39   C51   T    
C47   C49   S    
C46   C48   S    
O9    V1    S    
C64   H44   S    
C8    C28   A    
O10   V2    S    
C20   C28   A    
O4    C2    A    
C12   O24   S    
C61   H38   S    
O16   C60   A    
O3    V1    S    
O16   V4    S    
O22   C63   S    
C28   H6    S    
C66   H51   S    
C7    C58   S    
C40   C52   T    
C6    H4    S    
O11   C59   A    
C38   H24   S    
C8    C57   S    
C33   H15   S    
O3    C1    A    
C65   H49   S    
H1    C29   S    
C65   H48   S    
C34   C44   S    
C9    C11   A    
O23   C65   S    
C10   C12   A    
C23   O21   S    
C48   H30   S    
C61   C62   S    
C20   C22   A    
C63   H42   S    
C6    C22   A    
C8    C30   A    
C1    O8    A    
C13   C15   A    
O8    V2    S    
C14   C16   A    
C49   H27   S    
C48   H36   S    
C42   C50   S    
C62   H39   S    
C13   H9    S    
C1    C40   S    
C46   C52   S    
C12   C14   A    
O14   C58   A    
C15   C19   A    
O7    V1    S    
C56   C59   S    
O20   V4    S    
C65   H47   S    
C34   C42   S    
C63   C64   S    
C18   C32   A    
C36   H18   S    
C21   C23   A    
C47   H29   S    
O9    V2    S    
O12   C60   A    
C64   H45   S    
O10   V1    S    
C43   H33   S    
O15   C59   A    
C61   H37   S    
H2    C30   S    
