data_mof_unit_16708.cif
_audit_creation_date              2012-12-11T17:10:32-0500
_audit_creation_method            fapswitch 2.2
_symmetry_space_group_name_H-M    P1
_symmetry_Int_Tables_number       1
_space_group_crystal_system       triclinic
_cell_length_a                    14.909812
_cell_length_b                    14.878308
_cell_length_c                    14.927742
_cell_angle_alpha                 109.67281
_cell_angle_beta                  110.143141
_cell_angle_gamma                 109.030963
_cell_volume                      2535.26313032

loop_
_atom_site_label
_atom_site_type_symbol
_atom_type_description
_atom_site_fract_x
_atom_site_fract_y
_atom_site_fract_z
_atom_type_partial_charge
C1    C     C_R   0.201423 0.293197 0.193893 -0.160763
C2    C     C_R   0.472700 0.564172 0.249005 -0.128696
C3    C     C_R   0.494242 0.799878 0.590050 -0.151456
C4    C     C_R   0.598481 0.505808 0.804395 0.662155
C5    C     C_R   0.702858 0.395688 0.409586 -0.123543
C6    C     C_R   0.430732 0.799839 0.497091 0.081000
C7    C     C_R   0.793635 0.419222 0.501247 0.063755
C8    C     C_R   0.550116 0.548146 0.223938 0.081461
C9    C     C_R   0.825784 0.826750 0.775001 0.056572
C10   C     C_R   0.968809 0.491557 0.205226 -0.113549
C11   C     C_R   0.994937 0.483269 0.300450 -0.144617
C12   C     C_R   0.567514 0.564581 0.868537 -0.094703
C13   C     C_R   0.948327 0.379672 0.291770 0.101725
C14   C     C_R   0.873914 0.285096 0.186213 -0.178610
C15   C     C_R   0.845705 0.294260 0.091552 -0.109021
C16   C     C_R   0.432348 0.185687 0.406312 -0.032324
C17   C     C_R   0.893560 0.397158 0.100971 -0.124341
C18   C     C_R   0.865766 0.336373 0.395951 -0.205069
C19   C     C_R   0.871551 0.379323 0.497763 0.056516
C20   C     C_R   0.968748 0.414605 0.593748 0.032267
C21   C     C_R   0.063504 0.431074 0.587011 -0.232652
C22   C     C_R   0.063530 0.421558 0.490138 0.064693
C23   C     C_R   0.450258 0.172540 0.497043 0.038783
C24   C     C_R   0.961555 0.372571 0.392020 0.018368
C25   C     C_R   0.063727 0.532194 0.799869 -0.177029
C26   C     C_R   0.070033 0.551973 0.900783 -0.091766
C27   C     C_R   0.988109 0.475983 0.903944 -0.072462
C28   C     C_R   0.274304 0.536926 0.589944 -0.123018
C29   C     C_R   0.899344 0.380041 0.806116 -0.075527
C30   C     C_R   0.892641 0.359763 0.704774 -0.149945
C31   C     C_R   0.974898 0.435840 0.700784 0.098586
C32   C     C_R   0.653992 0.547204 0.031684 0.232021
C33   C     C_R   0.605907 0.598648 0.984924 0.059108
C34   C     C_R   0.169594 0.464188 0.494892 0.046470
C35   C     C_R   0.579069 0.668941 0.046820 -0.192296
C36   C     C_R   0.575160 0.665132 0.138001 -0.202807
C37   C     C_R   0.597787 0.590831 0.166607 0.036742
C38   C     C_R   0.649892 0.543200 0.121160 0.130794
C39   C     C_3   0.631124 0.427987 0.077442 -0.604348
C40   C     C_R   0.527855 0.275883 0.591057 -0.134006
C41   C     C_3   0.635844 0.432594 0.980036 -0.389764
C42   C     C_R   0.338860 0.872913 0.392340 0.001923
C43   C     C_R   0.390742 0.876538 0.492558 0.110829
C44   C     C_R   0.420728 0.967393 0.590207 -0.199470
C45   C     C_R   0.401587 0.705835 0.406942 -0.143956
C46   C     C_R   0.425679 0.062832 0.589825 -0.159520
C47   C     C_R   0.401713 0.067263 0.492102 0.049645
C48   C     C_R   0.345574 0.967526 0.392128 -0.079327
C49   C     C_3   0.356565 0.935590 0.291287 1.309461
C50   C     C_3   0.347257 0.831657 0.290774 -0.705561
C51   C     C_R   0.025655 0.126803 0.955433 0.157904
C52   C     C_R   0.184181 0.439560 0.404846 -0.129052
C53   C     C_R   0.119857 0.122188 0.010408 0.017608
C54   C     C_R   0.125999 0.029324 0.953457 -0.173835
C55   C     C_R   0.029904 0.933616 0.861750 -0.185533
C56   C     C_R   0.797237 0.490363 0.592212 -0.137987
C57   C     C_R   0.927918 0.930781 0.828226 0.027275
C58   C     C_R   0.930413 0.032078 0.865973 0.182839
C59   C     C_3   0.859045 0.068034 0.900397 -0.546243
C60   C     C_3   0.963121 0.171548 0.997210 -0.509098
C61   C     C_R   0.503478 0.593501 0.804486 -0.249156
C62   C     C_R   0.290864 0.200191 0.194136 -0.120711
C63   C     C_R   0.198321 0.199419 0.128914 0.089553
C64   C     C_R   0.567793 0.474829 0.254620 -0.145775
C65   C     C_R   0.721765 0.814160 0.745894 -0.141765
C66   C     C_R   0.815364 0.723546 0.750104 -0.076028
F1    F     F_    0.689132 0.495789 0.843455 -0.745965
F2    F     F_    0.268495 0.916161 0.200090 -0.737833
F3    F     F_    0.458678 0.002849 0.310100 -0.734192
H1    H     H_    0.155163 0.330272 0.165403 0.108670
H2    H     H_    0.004862 0.571428 0.212346 0.123083
H3    H     H_    0.049480 0.557621 0.380876 0.119301
H4    H     H_    0.834982 0.204798 0.177558 0.122516
H5    H     H_    0.786304 0.221496 0.010741 0.127070
H6    H     H_    0.788964 0.297359 0.319982 0.125196
H7    H     H_    0.138669 0.457866 0.659649 0.127191
H8    H     H_    0.127489 0.592685 0.798971 0.117675
H9    H     H_    0.138460 0.626368 0.976625 0.134042
H10   H     H_    0.993883 0.491878 0.982441 0.099439
H11   H     H_    0.835871 0.321316 0.808846 0.109993
H12   H     H_    0.850032 0.518845 0.677890 0.132545
H13   H     H_    0.823623 0.284981 0.629627 0.131745
H14   H     H_    0.548571 0.716435 0.018096 0.138208
H15   H     H_    0.373774 0.124622 0.320650 0.153896
H16   H     H_    0.541636 0.709589 0.176220 0.140873
H17   H     H_    0.701461 0.423702 0.130538 0.217541
H18   H     H_    0.548139 0.365838 0.053213 0.211210
H19   H     H_    0.709005 0.430850 0.977934 0.230324
H20   H     H_    0.555910 0.373492 0.900830 0.174001
H21   H     H_    0.453428 0.970785 0.668875 0.117167
H22   H     H_    0.461378 0.135952 0.668101 0.115383
H23   H     H_    0.626447 0.448050 0.253076 0.118004
H24   H     H_    0.269679 0.756004 0.219161 0.192616
H25   H     H_    0.294893 0.573794 0.675221 0.096375
H26   H     H_    0.423890 0.827483 0.306160 0.205155
H27   H     H_    0.199932 0.024401 0.986911 0.144362
H28   H     H_    0.034244 0.859433 0.828406 0.133052
H29   H     H_    0.806969 0.083576 0.840385 0.193343
H30   H     H_    0.815352 0.017084 0.927803 0.203516
H31   H     H_    0.972031 0.246688 0.992428 0.197714
H32   H     H_    0.976378 0.177579 0.077498 0.209030
H33   H     H_    0.560537 0.296790 0.676437 0.137370
H34   H     H_    0.697322 0.874871 0.747729 0.113800
H35   H     H_    0.123630 0.381694 0.318728 0.119745
H36   H     H_    0.478300 0.652601 0.832851 0.132469
H37   H     H_    0.324108 0.149402 0.165991 0.116815
H38   H     H_    0.336529 0.668270 0.322798 0.111740
H39   H     H_    0.879127 0.701893 0.760244 0.097699
H40   H     H_    0.440336 0.617074 0.237157 0.098334
H41   H     H_    0.517301 0.852052 0.674089 0.088039
H42   H     H_    0.664323 0.332029 0.324896 0.097220
H43   H     H_    0.870918 0.403564 0.027358 0.108177
N1    N     N_R   0.291070 0.347930 0.293870 -0.041621
N2    N     N_R   0.497240 0.291100 0.443210 -0.054342
N3    N     N_R   0.347890 0.554050 0.556810 -0.037183
N4    N     N_R   0.554050 0.347900 0.556830 -0.038867
N5    N     N_R   0.291070 0.497250 0.443190 -0.042472
N6    N     N_R   0.497240 0.554030 0.706140 -0.069206
N7    N     N_R   0.347890 0.291110 0.293870 -0.051531
N8    N     N_R   0.445950 0.652100 0.443170 -0.040144
N9    N     N_R   0.708930 0.502750 0.556810 -0.044054
N10   N     N_R   0.502760 0.445970 0.293860 -0.043806
N11   N     N_R   0.652110 0.708890 0.706130 -0.044164
N12   N     N_R   0.708930 0.652070 0.706130 -0.038011
N13   N     N_R   0.445950 0.502780 0.293850 -0.041502
N14   N     N_R   0.502760 0.708900 0.556790 -0.037809
N15   N     N_R   0.652110 0.445950 0.443190 -0.046768
N16   N     N_R   0.554050 0.497220 0.706150 -0.098491
Ni1   Ni    Ni4+2 0.369690 0.500010 0.369700 0.205497
Ni2   Ni    Ni4+2 0.630310 0.499990 0.630300 0.273927
Ni3   Ni    Ni4+2 0.500000 0.369720 0.369720 0.219725
Ni4   Ni    Ni4+2 0.500000 0.630280 0.630280 0.204447

loop_
_geom_bond_atom_site_label_1
_geom_bond_atom_site_label_2
_ccdc_geom_bond_type
C25   C31   A    
C41   H20   S    
C2    H40   S    
C18   H6    S    
C49   F2    S    
N11   Ni4   S    
C27   C29   A    
C59   H30   S    
N2    Ni3   S    
C35   C36   A    
C39   H18   S    
N9    Ni2   S    
C3    C6    A    
C3    N14   A    
C44   H21   S    
N11   N12   A    
C39   C41   S    
C40   N4    A    
C53   C54   A    
C21   H7    S    
C26   C27   A    
C26   H9    S    
N1    Ni1   S    
C18   C24   A    
C22   C24   A    
C36   C37   A    
C6    C45   A    
C37   C38   A    
N9    N15   A    
C27   H10   S    
C30   C31   A    
N8    N14   A    
C50   H26   S    
C10   C17   A    
C23   C40   A    
C16   H15   S    
C28   H25   S    
C18   C19   A    
C46   C47   A    
C9    C66   A    
C53   C63   S    
N1    N7    A    
N6    N16   A    
C19   C20   A    
N3    N5    A    
N7    Ni3   S    
C32   C41   S    
C32   C38   A    
C4    C12   A    
C61   H36   S    
C54   H27   S    
C10   H2    S    
C28   C34   A    
C59   C60   S    
C49   F3    S    
C21   C22   A    
C5    N15   A    
C1    N1    A    
C7    C56   A    
C1    C63   A    
C44   C46   A    
N15   Ni3   S    
N3    Ni4   S    
C22   C34   S    
C23   C47   S    
C4    N16   A    
N8    Ni1   S    
C14   H4    S    
C56   H12   S    
C9    C57   S    
C5    C7    A    
C35   H14   S    
C11   H3    S    
C46   H22   S    
C5    H42   S    
C25   C26   A    
C13   C24   S    
C16   N2    A    
C51   C53   A    
C30   H13   S    
C43   C44   A    
C29   C30   A    
C28   N3    A    
C47   C48   A    
N14   Ni4   S    
C55   H28   S    
C62   C63   A    
N12   Ni2   S    
C51   C58   A    
C42   C48   A    
C62   N7    A    
C8    C64   A    
C45   N8    A    
C48   C49   S    
C42   C50   S    
C16   C23   A    
C7    C19   S    
C6    C43   S    
C55   C57   A    
C25   H8    S    
C8    C37   S    
C65   H34   S    
C60   H32   S    
C17   H43   S    
N10   Ni3   S    
N5    Ni1   S    
C15   C17   A    
C41   H19   S    
C54   C55   A    
C52   H35   S    
C61   N6    A    
C2    C8    A    
C66   H39   S    
C60   H31   S    
N16   Ni2   S    
C4    F1    S    
N2    N4    A    
C50   H24   S    
C62   H37   S    
C36   H16   S    
C34   C52   A    
C1    H1    S    
C56   N9    A    
N10   N13   A    
C58   C59   S    
C32   C33   A    
C12   C61   A    
C11   C13   A    
C57   C58   A    
C38   C39   S    
C29   H11   S    
C64   N10   A    
C33   C35   A    
C66   N12   A    
C65   N11   A    
C9    C65   A    
N6    Ni4   S    
C10   C11   A    
C40   H33   S    
C2    N13   A    
N13   Ni1   S    
C15   H5    S    
N4    Ni2   S    
C20   C21   A    
C49   C50   S    
C42   C43   A    
C52   N5    A    
C59   H29   S    
C64   H23   S    
C14   C15   A    
C51   C60   S    
C3    H41   S    
C39   H17   S    
C12   C33   S    
C13   C14   A    
C45   H38   S    
C20   C31   S    
