data_mof_unit_24661.cif
_audit_creation_date              2012-12-11T15:48:01-0500
_audit_creation_method            fapswitch 2.2
_symmetry_space_group_name_H-M    P1
_symmetry_Int_Tables_number       1
_space_group_crystal_system       triclinic
_cell_length_a                    6.912331
_cell_length_b                    17.818771
_cell_length_c                    19.318747
_cell_angle_alpha                 108.287355
_cell_angle_beta                  89.393173
_cell_angle_gamma                 91.033516
_cell_volume                      2258.90142071

loop_
_atom_site_label
_atom_site_type_symbol
_atom_type_description
_atom_site_fract_x
_atom_site_fract_y
_atom_site_fract_z
_atom_type_partial_charge
O1    O     O_R   0.494330 0.415710 0.413720 -0.535455
O2    O     O_R   0.819360 0.430070 0.560210 -0.514812
O3    O     O_R   0.994320 0.584290 0.586280 -0.534635
C1    C     C_R   0.648529 0.414016 0.581070 0.799898
O4    O     O_R   0.823740 0.406290 0.412670 -0.535024
O5    O     O_R   0.998730 0.560340 0.437690 -0.533508
C2    C     C_R   0.652438 0.383605 0.384441 0.776269
O6    O     O_R   0.489920 0.439660 0.562310 -0.538301
O7    O     O_3   0.662330 0.550570 0.508380 -0.372796
V1    V     V_3+5 0.935370 0.490620 0.498440 1.626931
O8    O     O_R   0.328720 0.569930 0.439790 -0.532228
C3    C     C_R   0.161809 0.584887 0.417951 0.813958
O9    O     O_R   0.324340 0.593710 0.587330 -0.543176
C4    C     C_R   0.155085 0.615171 0.616474 0.799707
V2    V     V_3+5 0.435940 0.509380 0.501560 1.598698
O10   O     O_3   0.159110 0.449430 0.491620 -0.358671
C5    C     C_R   0.283163 0.742080 0.701866 -0.129257
H1    H     H_    0.400512 0.739525 0.663580 0.191485
C6    C     C_R   0.273347 0.807246 0.765237 0.396241
C7    C     C_R   0.119200 0.813937 0.815865 -0.240730
C8    C     C_R   0.975396 0.753045 0.800179 0.371705
C9    C     C_R   0.989594 0.686625 0.736994 0.144693
C10   C     C_R   0.142430 0.681658 0.686273 -0.213248
C11   C     C_R   0.199396 0.603090 0.294730 0.108605
C12   C     C_R   0.156889 0.635374 0.369560 -0.190284
C13   C     C_R   0.121192 0.717078 0.397956 0.336026
C14   C     C_R   0.127000 0.763990 0.350539 -0.002905
C15   C     C_R   0.128612 0.726631 0.274146 -0.009428
C16   C     C_R   0.145230 0.644065 0.246460 -0.047184
C17   C     C_R   0.130515 0.846812 0.377192 -0.139699
C18   C     C_R   0.147722 0.892131 0.329933 0.437706
C19   C     C_R   0.148743 0.854968 0.253277 -0.030972
C20   C     C_R   0.120928 0.771945 0.225663 -0.113183
C21   C     C_R   0.093756 0.734205 0.149689 -0.080453
C22   C     C_R   0.096674 0.649828 0.122873 0.400515
C23   C     C_R   0.119642 0.605512 0.171308 0.150900
C24   C     C_R   0.179642 0.897001 0.202923 0.352804
C25   C     C_R   0.113535 0.864492 0.130734 -0.251299
C26   C     C_R   0.062727 0.783330 0.104875 0.361039
H2    H     H_    0.125567 0.877359 0.435212 0.224224
C27   C     C_R   0.539638 0.208971 0.888841 0.339580
C28   C     C_R   0.627867 0.134235 0.868517 -0.197064
C29   C     C_R   0.720950 0.106475 0.799842 0.132021
C30   C     C_R   0.691072 0.145971 0.747600 -0.010844
C31   C     C_R   0.630521 0.225408 0.772457 -0.043912
C32   C     C_R   0.569385 0.259442 0.845704 -0.084548
C33   C     C_R   0.708841 0.108040 0.671450 0.143093
C34   C     C_R   0.713630 0.153657 0.623054 0.191056
C35   C     C_R   0.693244 0.237051 0.650993 -0.034625
C36   C     C_R   0.629803 0.270605 0.724000 -0.065875
C37   C     C_R   0.563475 0.349237 0.748344 -0.054725
C38   C     C_R   0.537281 0.386763 0.824071 0.358542
C39   C     C_R   0.543126 0.342369 0.872921 0.196388
C40   C     C_R   0.724867 0.288443 0.608511 0.341876
C41   C     C_R   0.634441 0.362881 0.628930 -0.204846
C42   C     C_R   0.533520 0.388420 0.696087 0.157753
C43   C     C_R   0.778010 0.259186 0.298246 -0.134246
H3    H     H_    0.895805 0.263575 0.335902 0.194717
C44   C     C_R   0.770210 0.194555 0.234760 0.183519
C45   C     C_R   0.619123 0.186147 0.183829 -0.205824
C46   C     C_R   0.471056 0.243279 0.201136 0.366351
C47   C     C_R   0.470330 0.304087 0.268771 0.152886
C48   C     C_R   0.632819 0.315540 0.315986 -0.187133
O11   O     O_R   0.774940 0.060470 0.937800 -0.544408
O12   O     O_R   0.440880 0.093730 0.087350 -0.507401
O13   O     O_R   0.266130 0.939630 0.062280 -0.531767
C49   C     C_R   0.610008 0.117164 0.115327 0.799091
O14   O     O_R   0.445480 0.069960 0.939820 -0.512734
O15   O     O_R   0.270770 0.915690 0.913690 -0.524218
C50   C     C_R   0.615704 0.084465 0.917609 0.815383
O16   O     O_R   0.770300 0.084410 0.086380 -0.546543
O17   O     O_3   0.602600 0.949510 0.991670 -0.357759
V3    V     V_3+5 0.329470 0.009370 0.001550 1.740033
O18   O     O_R   0.940760 0.906160 0.912560 -0.513367
C51   C     C_R   0.109594 0.883047 0.884391 0.826441
O19   O     O_R   0.936150 0.929930 0.060100 -0.529754
C52   C     C_R   0.104365 0.914807 0.081873 0.822295
V4    V     V_3+5 0.828930 0.990450 0.998310 1.710877
O20   O     O_3   0.105670 0.050490 0.008320 -0.360934
Cl1   Cl    Cl    0.951937 0.747962 0.018414 -0.447618
Cl2   Cl    Cl    0.104524 0.596424 0.028652 -0.377015
I1    I     I_    0.075396 0.479536 0.132093 -0.045755
Cl3   Cl    Cl    0.369884 0.233383 0.961369 -0.517680
I2    I     I_    0.946737 0.021258 0.783543 -0.216388
I3    I     I_    0.657504 0.982346 0.627901 -0.103066
I4    I     I_    0.692441 0.093121 0.507615 -0.035439
Cl4   Cl    Cl    0.894745 0.265238 0.535753 -0.565055
I5    I     I_    0.297703 0.468998 0.710441 -0.186735
Cl5   Cl    Cl    0.539859 0.491334 0.860296 -0.401257
Cl6   Cl    Cl    0.453567 0.881292 0.775520 -0.569759
I6    I     I_    0.569133 0.406247 0.987496 0.031930
I7    I     I_    0.988031 0.110890 0.226345 -0.144313
Cl7   Cl    Cl    0.287855 0.242655 0.137338 -0.489286
I8    I     I_    0.208241 0.369937 0.297212 -0.234210
Cl8   Cl    Cl    0.775509 0.757348 0.859512 -0.440545
I9    I     I_    0.785590 0.591540 0.724618 -0.142884
I10   I     I_    0.460777 0.537812 0.267192 -0.275699
Cl9   Cl    Cl    0.086484 0.760214 0.493050 -0.612128
Cl10  Cl    Cl    0.139316 0.995544 0.370847 -0.448557
Cl11  Cl    Cl    0.341494 0.979036 0.223989 -0.542069

loop_
_geom_bond_atom_site_label_1
_geom_bond_atom_site_label_2
_ccdc_geom_bond_type
C41   C42   A    
C27   C28   A    
C6    C7    A    
C1    O6    A    
C22   Cl2   S    
C31   C32   A    
C30   C31   A    
C16   C23   A    
C13   C14   A    
C47   C48   A    
C33   I3    S    
C15   C16   A    
O19   V4    S    
C37   C42   A    
O5    C3    A    
C40   Cl4   S    
C46   Cl7   S    
C42   I5    S    
V2    O10   S    
C27   Cl3   S    
C28   C50   S    
O12   V3    S    
C21   C22   A    
C11   C16   A    
O17   V4    S    
O8    V2    S    
C21   C26   A    
C18   C19   A    
C45   C49   S    
C23   I1    S    
O12   C49   A    
C39   I6    S    
C27   C32   A    
O15   V3    S    
O1    V2    S    
O11   C50   A    
O7    V1    S    
C30   C33   A    
C44   C45   A    
C8    C9    A    
C14   C17   A    
C29   I2    S    
C38   Cl5   S    
O11   V4    S    
C43   C48   A    
O18   C51   A    
C11   I10   S    
C11   C12   A    
O4    C2    A    
V4    O20   S    
C8    Cl8   S    
C36   C37   A    
O14   V3    S    
O13   V3    S    
C37   C38   A    
C7    C51   S    
C45   C46   A    
C22   C23   A    
C4    C10   S    
O2    C1    A    
C29   C30   A    
C24   C25   A    
C33   C34   A    
C17   C18   A    
C5    H1    S    
V3    O20   S    
C17   H2    S    
C5    C10   A    
C19   C24   A    
O19   C52   A    
C2    C48   S    
O3    C4    A    
C13   Cl9   S    
C34   C35   A    
C15   C20   A    
O6    V2    S    
C18   Cl10  S    
C47   I8    S    
C1    C41   S    
C34   I4    S    
C28   C29   A    
O2    V1    S    
C38   C39   A    
O13   C52   A    
C40   C41   A    
O1    C2    A    
C9    I9    S    
O17   V3    S    
O5    V1    S    
O8    C3    A    
C25   C52   S    
C3    C12   S    
C19   C20   A    
O9    V2    S    
C12   C13   A    
O4    V1    S    
O3    V1    S    
V1    O10   S    
C26   Cl1   S    
C43   H3    S    
C25   C26   A    
C31   C36   A    
C32   C39   A    
C5    C6    A    
C20   C21   A    
O15   C51   A    
C49   O16   A    
C44   I7    S    
O16   V4    S    
O7    V2    S    
C46   C47   A    
C43   C44   A    
C7    C8    A    
O14   C50   A    
C35   C36   A    
O18   V4    S    
C14   C15   A    
C6    Cl6   S    
C9    C10   A    
O9    C4    A    
C24   Cl11  S    
C35   C40   A    
