data_mof_unit_12275.cif
_audit_creation_date              2012-12-11T16:21:26-0500
_audit_creation_method            fapswitch 2.2
_symmetry_space_group_name_H-M    P1
_symmetry_Int_Tables_number       1
_space_group_crystal_system       triclinic
_cell_length_a                    7.198296
_cell_length_b                    36.739961
_cell_length_c                    41.562025
_cell_angle_alpha                 90.002124
_cell_angle_beta                  90.046342
_cell_angle_gamma                 89.951322
_cell_volume                      10991.6981229

loop_
_atom_site_label
_atom_site_type_symbol
_atom_type_description
_atom_site_fract_x
_atom_site_fract_y
_atom_site_fract_z
_atom_type_partial_charge
O1    O     O_R   0.564240 0.782760 0.216890 -0.509167
O2    O     O_R   0.435760 0.217240 0.783110 -0.514115
O3    O     O_R   0.435760 0.217240 0.716890 -0.529021
O4    O     O_R   0.564240 0.782760 0.283110 -0.516539
O5    O     O_R   0.064240 0.717240 0.283110 -0.508968
O6    O     O_R   0.935760 0.282760 0.716890 -0.501796
O7    O     O_R   0.935760 0.282760 0.783110 -0.526231
O8    O     O_R   0.064240 0.717240 0.216890 -0.516804
O9    O     O_R   0.234510 0.787070 0.282870 -0.524189
O10   O     O_R   0.765490 0.212930 0.717130 -0.535071
O11   O     O_R   0.765490 0.212930 0.782870 -0.524101
O12   O     O_R   0.234510 0.787070 0.217130 -0.537538
O13   O     O_R   0.734510 0.712930 0.217130 -0.524324
O14   O     O_R   0.265490 0.287070 0.782870 -0.539704
O15   O     O_R   0.265490 0.287070 0.717130 -0.519196
O16   O     O_R   0.734510 0.712930 0.282870 -0.536446
C1    C     C_R   0.403057 0.795509 0.293747 0.778575
C2    C     C_R   0.597100 0.204645 0.706135 0.780635
C3    C     C_R   0.596944 0.204477 0.793732 0.782353
C4    C     C_R   0.402766 0.795538 0.206271 0.757732
C5    C     C_R   0.903050 0.704485 0.206261 0.778381
C6    C     C_R   0.097060 0.295625 0.793625 0.759533
C7    C     C_R   0.096833 0.295651 0.706178 0.752636
C8    C     C_R   0.902940 0.704479 0.293730 0.757745
O17   O     O_3   0.397750 0.727090 0.250000 -0.367970
O18   O     O_3   0.602250 0.272910 0.750000 -0.373659
O19   O     O_3   0.897750 0.772910 0.250000 -0.368696
O20   O     O_3   0.102250 0.227090 0.750000 -0.375721
V1    V     V_3+5 0.122890 0.754250 0.250000 1.591296
V2    V     V_3+5 0.877110 0.245750 0.750000 1.548835
V3    V     V_3+5 0.622890 0.745750 0.250000 1.592287
V4    V     V_3+5 0.377110 0.254250 0.750000 1.535205
C9    C     C_R   0.968519 0.615710 0.429938 0.583463
C10   C     C_R   0.048370 0.385909 0.570032 0.585681
C11   C     C_R   0.906235 0.394811 0.919870 0.597356
C12   C     C_R   0.100634 0.604069 0.080934 0.599090
C13   C     C_R   0.586358 0.894041 0.079373 0.597430
C14   C     C_R   0.397156 0.104291 0.919091 0.599457
C15   C     C_R   0.406425 0.105447 0.579873 0.595011
C16   C     C_R   0.600633 0.895841 0.419167 0.599468
O21   O     O_2   0.995691 0.651666 0.434173 -0.537737
O22   O     O_2   0.052435 0.349700 0.564974 -0.537093
O23   O     O_2   0.775606 0.369321 0.914341 -0.530258
O24   O     O_2   0.230159 0.629832 0.086239 -0.529904
O25   O     O_2   0.715969 0.868247 0.084671 -0.530904
O26   O     O_2   0.267661 0.130087 0.913728 -0.529144
O27   O     O_2   0.275808 0.130996 0.585327 -0.536152
O28   O     O_2   0.730202 0.870038 0.413917 -0.529695
N1    N     N_R   0.928246 0.603411 0.399609 -0.531109
N2    N     N_R   0.056930 0.398289 0.601069 -0.530911
N3    N     N_R   0.057990 0.395835 0.900026 -0.531494
N4    N     N_R   0.948914 0.603009 0.100792 -0.530750
N5    N     N_R   0.435102 0.895255 0.099344 -0.529740
N6    N     N_R   0.549383 0.103247 0.899346 -0.530924
N7    N     N_R   0.558315 0.104438 0.599732 -0.531049
N8    N     N_R   0.448805 0.896900 0.399288 -0.530601
C17   C     C_R   0.900109 0.567263 0.393728 0.579679
C18   C     C_R   0.051975 0.434626 0.607859 0.584642
C19   C     C_R   0.197279 0.420422 0.904873 0.573686
C20   C     C_R   0.810483 0.578198 0.096095 0.572357
C21   C     C_R   0.296110 0.919973 0.094532 0.567293
C22   C     C_R   0.687719 0.078385 0.904087 0.571802
C23   C     C_R   0.697668 0.079817 0.594948 0.571144
C24   C     C_R   0.310244 0.921728 0.403952 0.571499
C25   C     C_R   0.057059 0.627442 0.348999 -0.210296
C26   C     C_R   0.913272 0.366777 0.646974 -0.183717
C27   C     C_R   0.941653 0.373158 0.847957 -0.161942
C28   C     C_R   0.064284 0.626842 0.152530 -0.167982
C29   C     C_R   0.557376 0.872351 0.150917 -0.201065
C30   C     C_R   0.435767 0.126818 0.847402 -0.170319
C31   C     C_R   0.442319 0.127258 0.651666 -0.169113
C32   C     C_R   0.564620 0.872977 0.347635 -0.169429
C33   C     C_R   0.056380 0.652561 0.323157 0.370816
C34   C     C_R   0.922253 0.342577 0.673076 0.375139
C35   C     C_R   0.947393 0.348465 0.822129 0.332665
C36   C     C_R   0.051612 0.650814 0.178731 0.355624
C37   C     C_R   0.555486 0.847485 0.176923 0.360138
C38   C     C_R   0.449094 0.150673 0.821109 0.356303
C39   C     C_R   0.447893 0.151990 0.677393 0.321462
C40   C     C_R   0.551986 0.849036 0.321410 0.357380
C41   C     C_R   0.776222 0.680185 0.345932 0.316214
C42   C     C_R   0.241570 0.327720 0.658270 0.377665
C43   C     C_R   0.216629 0.319102 0.846733 0.326174
C44   C     C_R   0.786637 0.680658 0.153146 0.388772
C45   C     C_R   0.277205 0.819575 0.153795 0.317187
C46   C     C_R   0.710960 0.180984 0.847110 0.388676
C47   C     C_R   0.714983 0.182121 0.652685 0.337873
C48   C     C_R   0.286297 0.819392 0.346807 0.387218
C49   C     C_R   0.781724 0.655202 0.371396 -0.188294
C50   C     C_R   0.231230 0.353137 0.633091 -0.184616
C51   C     C_R   0.207429 0.343894 0.872373 -0.176959
C52   C     C_R   0.795963 0.654896 0.127912 -0.192436
C53   C     C_R   0.284518 0.844185 0.128034 -0.186569
C54   C     C_R   0.701488 0.155299 0.872390 -0.190481
C55   C     C_R   0.706612 0.156657 0.627101 -0.206426
C56   C     C_R   0.295638 0.845129 0.372059 -0.191867
C57   C     C_R   0.921876 0.628891 0.373138 0.279389
C58   C     C_R   0.067416 0.372522 0.627223 0.262895
C59   C     C_R   0.069462 0.370788 0.873274 0.259568
C60   C     C_R   0.935734 0.628353 0.127313 0.255819
C61   C     C_R   0.424877 0.870445 0.126312 0.272030
C62   C     C_R   0.562907 0.128561 0.872814 0.256379
C63   C     C_R   0.569830 0.129576 0.626414 0.275121
C64   C     C_R   0.435721 0.871559 0.372762 0.255720
C65   C     C_R   0.957918 0.553328 0.450189 -0.078521
C66   C     C_R   0.026748 0.448566 0.550698 -0.079053
C67   C     C_R   0.030021 0.446069 0.950619 -0.078768
C68   C     C_R   0.978172 0.552489 0.050432 -0.078976
C69   C     C_R   0.463649 0.945562 0.048803 -0.079091
C70   C     C_R   0.518721 0.052535 0.949519 -0.079117
C71   C     C_R   0.530162 0.054087 0.549243 -0.079307
C72   C     C_R   0.478088 0.947477 0.449599 -0.079000
C73   C     C_R   0.983778 0.591002 0.456289 -0.053794
C74   C     C_R   0.032979 0.410739 0.543777 -0.054670
C75   C     C_R   0.887213 0.420007 0.945778 -0.056543
C76   C     C_R   0.120563 0.578657 0.055199 -0.057902
C77   C     C_R   0.606014 0.919353 0.053580 -0.057402
C78   C     C_R   0.376592 0.078802 0.944749 -0.057992
C79   C     C_R   0.387253 0.080178 0.554029 -0.055324
C80   C     C_R   0.620622 0.921294 0.444868 -0.057996
C81   C     C_R   0.026820 0.602183 0.488218 0.151875
C82   C     C_R   0.024508 0.399490 0.511049 0.152759
C83   C     C_R   0.733026 0.420056 0.967117 0.151894
C84   C     C_R   0.275185 0.578503 0.033952 0.153765
C85   C     C_R   0.760630 0.919416 0.032329 0.151802
C86   C     C_R   0.221560 0.078650 0.965909 0.154041
C87   C     C_R   0.232806 0.080085 0.532705 0.153759
C88   C     C_R   0.775466 0.921480 0.466110 0.153340
C89   C     C_R   0.915454 0.541672 0.418677 -0.028309
C90   C     C_R   0.037276 0.460311 0.582977 -0.030172
C91   C     C_R   0.186962 0.445559 0.930288 -0.038535
C92   C     C_R   0.821258 0.552974 0.070765 -0.039651
C93   C     C_R   0.306561 0.945100 0.069101 -0.035951
C94   C     C_R   0.676229 0.053058 0.929324 -0.039409
C95   C     C_R   0.687279 0.054624 0.569578 -0.037707
C96   C     C_R   0.321006 0.946973 0.429264 -0.039334
C97   C     C_R   0.911247 0.678509 0.321157 -0.225312
C98   C     C_R   0.087133 0.322375 0.679020 -0.266740
C99   C     C_R   0.088197 0.321635 0.820954 -0.231499
C100  C     C_R   0.912490 0.678020 0.179227 -0.247606
C101  C     C_R   0.410895 0.821480 0.178811 -0.224649
C102  C     C_R   0.587192 0.178039 0.820779 -0.244228
C103  C     C_R   0.588333 0.178822 0.678598 -0.232041
C104  C     C_R   0.412510 0.821946 0.320807 -0.248019
H1    H     H_    0.675793 0.656235 0.389868 0.156223
H2    H     H_    0.351236 0.357606 0.617890 0.151244
H3    H     H_    0.307435 0.342012 0.891793 0.168516
H4    H     H_    0.696429 0.655772 0.108389 0.159543
H5    H     H_    0.180898 0.842664 0.109166 0.170353
H6    H     H_    0.799734 0.156454 0.892098 0.159271
H7    H     H_    0.805586 0.157630 0.607553 0.155586
H8    H     H_    0.195842 0.844325 0.391516 0.160015
C105  C     C_R   0.012816 0.512654 0.532798 0.054543
C106  C     C_R   0.958177 0.489346 0.468477 0.054801
C107  C     C_R   0.844398 0.500408 0.020627 0.048928
C108  C     C_R   0.164249 0.498041 0.980517 0.048750
C109  C     C_R   0.651322 0.000198 0.979181 0.048877
C110  C     C_R   0.330485 0.997790 0.019051 0.048802
C111  C     C_R   0.344203 0.999612 0.479335 0.049038
C112  C     C_R   0.664432 0.002037 0.519437 0.048870
C113  C     C_R   0.989031 0.463167 0.493290 -0.005068
C114  C     C_R   0.008081 0.538738 0.507339 -0.005106
C115  C     C_R   0.149418 0.525090 0.005153 -0.012835
C116  C     C_R   0.859192 0.473374 0.995984 -0.012556
C117  C     C_R   0.346114 0.024975 0.994546 -0.012896
C118  C     C_R   0.635587 0.972996 0.003651 -0.012627
C119  C     C_R   0.649561 0.974944 0.494841 -0.012881
C120  C     C_R   0.359055 0.026695 0.503931 -0.012864
C121  C     C_R   0.009625 0.474831 0.525510 0.067698
C122  C     C_R   0.974700 0.527109 0.475423 0.067415
C123  C     C_R   0.991032 0.525886 0.025347 0.066627
C124  C     C_R   0.017475 0.472601 0.975766 0.066573
C125  C     C_R   0.505007 0.025793 0.974470 0.066611
C126  C     C_R   0.476896 0.972217 0.023772 0.066137
C127  C     C_R   0.490985 0.974120 0.474649 0.066504
C128  C     C_R   0.517537 0.027499 0.524145 0.066170
C129  C     C_R   0.018507 0.523113 0.565515 -0.179423
C130  C     C_R   0.908723 0.479040 0.436850 -0.180260
C131  C     C_R   0.686126 0.503200 0.040694 -0.184180
C132  C     C_R   0.322578 0.495214 0.960464 -0.183537
C133  C     C_R   0.810311 0.003061 0.959298 -0.184649
C134  C     C_R   0.171746 0.994958 0.039003 -0.184777
C135  C     C_R   0.185742 0.996788 0.459278 -0.184381
C136  C     C_R   0.822915 0.004887 0.539490 -0.183904
C137  C     C_R   0.030855 0.497493 0.589965 -0.128814
C138  C     C_R   0.888261 0.504653 0.412557 -0.130877
C139  C     C_R   0.676501 0.528486 0.065386 -0.129926
C140  C     C_R   0.332042 0.469957 0.935738 -0.128872
C141  C     C_R   0.820803 0.028492 0.934738 -0.129605
C142  C     C_R   0.161714 0.969605 0.063651 -0.130833
C143  C     C_R   0.176092 0.971468 0.434616 -0.130516
C144  C     C_R   0.832448 0.030197 0.564174 -0.129789
O29   O     O_2   0.061980 0.445904 0.638725 -0.527947
O30   O     O_2   0.857173 0.556077 0.363692 -0.530237
O31   O     O_2   0.662957 0.577705 0.116131 -0.522976
O32   O     O_2   0.345041 0.420810 0.884889 -0.526912
O33   O     O_2   0.835791 0.077927 0.884170 -0.523030
O34   O     O_2   0.148696 0.920553 0.114588 -0.533430
O35   O     O_2   0.162614 0.922225 0.383897 -0.523792
O36   O     O_2   0.845572 0.079463 0.614942 -0.528821
C145  C     C_R   0.038496 0.576151 0.512804 -0.168288
C146  C     C_R   0.003201 0.425605 0.486724 -0.168697
C147  C     C_R   0.721867 0.446414 0.991388 -0.175100
C148  C     C_R   0.286761 0.552046 0.009762 -0.174482
C149  C     C_R   0.772436 0.945888 0.008173 -0.174513
C150  C     C_R   0.209167 0.052060 0.989973 -0.175198
C151  C     C_R   0.221579 0.053672 0.508483 -0.175374
C152  C     C_R   0.787074 0.947976 0.490265 -0.174578
H9    H     H_    0.785394 0.381363 0.642147 0.151444
H10   H     H_    0.161460 0.606319 0.350514 0.142228
H11   H     H_    0.173838 0.606619 0.152000 0.168494
H12   H     H_    0.838250 0.394584 0.848211 0.159813
H13   H     H_    0.326671 0.106536 0.847890 0.167426
H14   H     H_    0.660760 0.893655 0.149651 0.151615
H15   H     H_    0.674450 0.893104 0.348255 0.168344
H16   H     H_    0.339248 0.105803 0.651449 0.158162
H17   H     H_    0.034892 0.507122 0.614597 0.167571
H18   H     H_    0.851222 0.495137 0.388727 0.166500
H19   H     H_    0.552391 0.528999 0.080126 0.169012
H20   H     H_    0.456167 0.469423 0.921002 0.169538
H21   H     H_    0.945400 0.029045 0.920123 0.169084
H22   H     H_    0.037405 0.969099 0.078340 0.168174
H23   H     H_    0.051845 0.970936 0.419876 0.168767
H24   H     H_    0.956692 0.030750 0.578913 0.168995
H25   H     H_    0.008058 0.551021 0.573247 0.120429
H26   H     H_    0.879481 0.451295 0.430166 0.120326
H27   H     H_    0.564401 0.486533 0.038039 0.123988
H28   H     H_    0.444420 0.511843 0.963153 0.124319
H29   H     H_    0.931985 0.986351 0.962018 0.124233
H30   H     H_    0.050095 0.011680 0.036305 0.124035
H31   H     H_    0.063892 0.013457 0.461916 0.123947
H32   H     H_    0.944821 0.988237 0.536836 0.124160
H33   H     H_    0.078367 0.585877 0.536242 0.122163
H34   H     H_    0.004049 0.415809 0.462306 0.121828
H35   H     H_    0.603187 0.444615 0.006932 0.127893
H36   H     H_    0.405744 0.553772 0.994279 0.128158
H37   H     H_    0.891244 0.944067 0.992655 0.128027
H38   H     H_    0.089867 0.053778 0.005388 0.127968
H39   H     H_    0.102718 0.055443 0.492942 0.127932
H40   H     H_    0.906244 0.946277 0.505743 0.128031
O37   O     O_3   0.631195 0.704859 0.344652 -0.551859
C153  C     C_3   0.689032 0.737681 0.359019 -0.192693
H41   H     H_    0.798777 0.751085 0.344455 0.154319
H42   H     H_    0.736932 0.733423 0.384228 0.133187
H43   H     H_    0.569100 0.756564 0.359759 0.151776
O38   O     O_3   0.406770 0.309346 0.663142 -0.513452
C154  C     C_3   0.406710 0.277799 0.643841 -0.155083
H44   H     H_    0.401994 0.284791 0.617797 0.124140
H45   H     H_    0.289760 0.259342 0.650209 0.100495
H46   H     H_    0.537613 0.262710 0.648317 0.167706
O39   O     O_3   0.358372 0.293697 0.846428 -0.559875
C155  C     C_3   0.292218 0.260954 0.859782 -0.208976
H47   H     H_    0.183211 0.248607 0.844323 0.164124
H48   H     H_    0.240356 0.264991 0.884764 0.126834
H49   H     H_    0.408562 0.241247 0.860864 0.154762
O40   O     O_3   0.653757 0.708142 0.153394 -0.538413
C156  C     C_3   0.647980 0.726653 0.123590 -0.250451
H50   H     H_    0.546319 0.713380 0.107266 0.156762
H51   H     H_    0.786248 0.728645 0.111680 0.128375
H52   H     H_    0.600334 0.754949 0.127902 0.159490
O41   O     O_3   0.132355 0.794909 0.155015 -0.549485
C157  C     C_3   0.190862 0.761999 0.140871 -0.192226
H53   H     H_    0.300915 0.748759 0.155542 0.155157
H54   H     H_    0.238612 0.766084 0.115650 0.121939
H55   H     H_    0.071337 0.743052 0.140225 0.153498
O42   O     O_3   0.841526 0.208821 0.847192 -0.540147
C158  C     C_3   0.839378 0.227894 0.876738 -0.260462
H56   H     H_    0.939320 0.215337 0.893824 0.157447
H57   H     H_    0.698809 0.229511 0.887859 0.131660
H58   H     H_    0.884401 0.256312 0.872285 0.158222
O43   O     O_3   0.848422 0.209557 0.654151 -0.558809
C159  C     C_3   0.886753 0.224910 0.623744 -0.276916
H59   H     H_    0.759055 0.228667 0.608943 0.137131
H60   H     H_    0.991413 0.208238 0.610764 0.166275
H61   H     H_    0.948164 0.252275 0.627499 0.165583
O44   O     O_3   0.153046 0.792019 0.346458 -0.538977
C160  C     C_3   0.146396 0.773529 0.376266 -0.244641
H62   H     H_    0.044503 0.786886 0.392485 0.159037
H63   H     H_    0.284376 0.771441 0.388308 0.127517
H64   H     H_    0.098556 0.745266 0.371920 0.160512
C161  C     C_3   0.062223 0.641413 0.497442 -0.676914
H65   H     H_    0.093728 0.644636 0.523453 0.175179
H66   H     H_    0.184058 0.652063 0.484071 0.233077
H67   H     H_    0.936892 0.658126 0.492475 0.231815
C162  C     C_3   0.038463 0.360112 0.500668 -0.678481
H68   H     H_    0.033750 0.356929 0.474103 0.174957
H69   H     H_    0.172548 0.348345 0.508840 0.230602
H70   H     H_    0.919807 0.344369 0.510492 0.234048
C163  C     C_3   0.577949 0.392291 0.965501 -0.676802
H71   H     H_    0.470635 0.396655 0.984304 0.175975
H72   H     H_    0.505580 0.394066 0.942021 0.244799
H73   H     H_    0.634950 0.364517 0.969192 0.226817
C164  C     C_3   0.430484 0.606216 0.035617 -0.680311
H74   H     H_    0.538699 0.601643 0.017008 0.176813
H75   H     H_    0.373995 0.633982 0.031657 0.225789
H76   H     H_    0.501628 0.604608 0.059219 0.244874
C165  C     C_3   0.915870 0.891636 0.033988 -0.675873
H77   H     H_    0.023897 0.896117 0.015337 0.176151
H78   H     H_    0.987310 0.893272 0.057564 0.244291
H79   H     H_    0.859265 0.863887 0.030087 0.227437
C166  C     C_3   0.066752 0.106521 0.964298 -0.681075
H80   H     H_    0.958359 0.101987 0.982875 0.176329
H81   H     H_    0.123699 0.134216 0.968348 0.225421
H82   H     H_    0.995728 0.105072 0.940680 0.245663
C167  C     C_3   0.077466 0.107847 0.534292 -0.680450
H83   H     H_    0.969880 0.103422 0.515523 0.176726
H84   H     H_    0.005504 0.106136 0.557792 0.244429
H85   H     H_    0.134110 0.135614 0.530525 0.226217
C168  C     C_3   0.931026 0.893773 0.464466 -0.679174
H86   H     H_    0.039444 0.898386 0.483054 0.176707
H87   H     H_    0.874876 0.866011 0.468473 0.226475
H88   H     H_    0.001836 0.895343 0.440852 0.244696
O45   O     O_3   0.765438 0.337477 0.691704 -0.515669
C169  C     C_3   0.750741 0.366615 0.713608 -0.094198
H89   H     H_    0.729742 0.392997 0.700968 0.120052
H90   H     H_    0.874629 0.368043 0.729621 0.132449
H91   H     H_    0.627260 0.361979 0.728989 0.157299
O46   O     O_3   0.183523 0.650676 0.297931 -0.553659
C170  C     C_3   0.362933 0.640365 0.308248 -0.185944
H92   H     H_    0.374836 0.610238 0.308976 0.128478
H93   H     H_    0.400159 0.652363 0.331965 0.169285
H94   H     H_    0.465534 0.650440 0.290454 0.171189
O47   O     O_3   0.181871 0.648695 0.203115 -0.532611
C171  C     C_3   0.132971 0.619790 0.223730 -0.149605
H95   H     H_    0.123763 0.593384 0.210690 0.114933
H96   H     H_    0.000055 0.625705 0.236374 0.126087
H97   H     H_    0.243280 0.616736 0.242144 0.187626
O48   O     O_3   0.826922 0.352770 0.796444 -0.570617
C172  C     C_3   0.647249 0.342133 0.806092 -0.115130
H98   H     H_    0.589311 0.360843 0.824574 0.148076
H99   H     H_    0.646977 0.313594 0.815039 0.180401
H100  H     H_    0.553675 0.343269 0.784921 0.138567
O49   O     O_3   0.319775 0.148502 0.796568 -0.533092
C173  C     C_3   0.365101 0.118652 0.776751 -0.150436
H101  H     H_    0.368468 0.092588 0.790385 0.113908
H102  H     H_    0.500026 0.123232 0.764330 0.131036
H103  H     H_    0.255749 0.115833 0.758134 0.191695
O50   O     O_3   0.681269 0.849695 0.202349 -0.558268
C174  C     C_3   0.861901 0.859101 0.192067 -0.172235
H104  H     H_    0.876596 0.889156 0.190872 0.128254
H105  H     H_    0.898719 0.846511 0.168574 0.188383
H106  H     H_    0.963110 0.848993 0.210127 0.164854
O51   O     O_3   0.682677 0.851041 0.297125 -0.531588
C175  C     C_3   0.635392 0.880167 0.276608 -0.155850
H107  H     H_    0.627572 0.906526 0.289747 0.113603
H108  H     H_    0.502202 0.874636 0.263893 0.125634
H109  H     H_    0.745923 0.883050 0.258247 0.186071
O52   O     O_3   0.326866 0.147876 0.702958 -0.568960
C176  C     C_3   0.146894 0.158220 0.693107 -0.121480
H110  H     H_    0.089012 0.138971 0.675062 0.142027
H111  H     H_    0.145755 0.186497 0.683507 0.168242
H112  H     H_    0.053943 0.157613 0.714370 0.153469

loop_
_geom_bond_atom_site_label_1
_geom_bond_atom_site_label_2
_ccdc_geom_bond_type
C26   C58   A    
C165  H78   S    
C106  C113  A    
C10   O22   S    
C70   C78   A    
C21   C93   A    
O15   V4    S    
O49   C173  S    
C161  H67   S    
C19   C91   A    
C166  H82   S    
C31   H16   S    
C106  C122  A    
C66   C90   A    
C87   C151  A    
C110  C126  A    
C171  H95   S    
C44   O40   S    
C153  H42   S    
C11   C75   A    
C20   C92   A    
N6    C62   S    
C118  C126  A    
C153  H43   S    
C75   C83   A    
C69   C93   A    
O47   C171  S    
C53   C61   A    
C72   C80   A    
C169  H89   S    
C166  H80   S    
C6    C99   S    
O16   V3    S    
C146  H34   S    
O10   V2    S    
O12   C4    A    
C80   C88   A    
O13   C5    A    
C150  H38   S    
C171  H97   S    
O6    V2    S    
C56   C64   A    
C11   N3    A    
C12   O24   S    
C46   O42   S    
C13   O25   S    
C143  H23   S    
C15   O27   S    
C154  H46   S    
C16   O28   S    
O1    C4    A    
O2    C3    A    
C29   H14   S    
C157  H54   S    
C29   C61   A    
C54   H6    S    
O7    C6    A    
C43   C51   A    
C18   O29   S    
C83   C147  A    
C81   C145  A    
C148  H36   S    
C108  C132  A    
C173  H103  S    
C82   C146  A    
C86   C166  S    
C33   C97   A    
O10   C2    A    
C159  H61   S    
C85   C149  A    
O52   C176  S    
C108  C124  A    
C37   C101  A    
C95   C144  A    
N1    C57   S    
C130  C138  A    
C32   H15   S    
C13   C77   A    
C176  H112  S    
C54   C62   A    
C162  H69   S    
C49   C57   A    
C134  C142  A    
C169  H90   S    
O43   C159  S    
C110  C117  A    
C155  H47   S    
O17   V3    S    
C154  H45   S    
C170  H93   S    
O18   V4    S    
C176  H110  S    
O12   V1    S    
O19   V1    S    
C29   C37   A    
C31   C39   A    
C49   H1    S    
C138  H18   S    
C1    C104  S    
O8    V1    S    
C65   C73   A    
C2    C103  S    
C86   C150  A    
C142  H22   S    
O41   C157  S    
C158  H58   S    
C26   C34   A    
O1    V3    S    
N1    C17   A    
O2    V4    S    
C156  H50   S    
N4    C20   A    
C45   C53   A    
C134  H30   S    
C39   C103  A    
C40   C104  A    
N7    C23   A    
N8    C24   A    
C118  C149  A    
C11   O23   S    
C12   N4    A    
C13   N5    A    
C160  H62   S    
C172  H99   S    
C81   C161  S    
C72   C96   A    
C55   C63   A    
C168  H87   S    
C105  C129  A    
N2    C58   S    
C42   O38   S    
C71   C128  A    
C113  C146  A    
O11   V2    S    
C45   C101  A    
C173  H101  S    
C159  H59   S    
N4    C60   S    
C88   C168  S    
C28   C60   A    
C164  H74   S    
C163  H71   S    
C38   O49   S    
C25   H10   S    
C155  H49   S    
C40   O51   S    
C116  C124  A    
C27   C35   A    
C12   C76   A    
C135  H31   S    
C119  C127  A    
O9    C1    A    
C120  C128  A    
C31   C63   A    
O38   C154  S    
C4    C101  S    
C22   O33   S    
C112  C136  A    
O48   C172  S    
C158  H56   S    
C157  H53   S    
C27   C59   A    
C8    C97   S    
C161  H66   S    
C88   C152  A    
C9    C73   A    
C17   O30   S    
C156  H52   S    
C119  C152  A    
O14   C6    A    
C32   C40   A    
C35   C99   A    
C15   C79   A    
C165  H79   S    
C131  H27   S    
C14   O26   S    
C70   C94   A    
C129  H25   S    
C174  H106  S    
C73   C81   A    
C175  H107  S    
C171  H96   S    
C160  H64   S    
C44   C52   A    
C51   C59   A    
C89   C138  A    
C77   C85   A    
C20   O31   S    
C79   C87   A    
C48   C56   A    
C52   H4    S    
C7    C98   S    
C53   H5    S    
C157  H55   S    
C43   C99   A    
C90   C137  A    
C69   C77   A    
O39   C155  S    
C41   C97   A    
C34   C98   A    
O11   C3    A    
C39   O52   S    
C94   C141  A    
C82   C162  S    
C164  H76   S    
C38   C102  A    
C168  H88   S    
C131  C139  A    
C9    N1    A    
C163  H73   S    
C129  C137  A    
C23   O36   S    
C172  H98   S    
C41   O37   S    
C132  C140  A    
C133  C141  A    
C15   N7    A    
C108  C115  A    
N5    C61   S    
C16   N8    A    
C136  C144  A    
C115  C123  A    
C151  H39   S    
C41   C49   A    
C169  H91   S    
C140  H20   S    
O7    V2    S    
C35   O48   S    
C109  C133  A    
C37   O50   S    
C92   C139  A    
C51   H3    S    
C107  C131  A    
C93   C142  A    
C67   C124  A    
C166  H81   S    
C115  C148  A    
C65   C122  A    
C96   C143  A    
N2    C18   A    
C144  H24   S    
C69   C126  A    
C32   C64   A    
C132  H28   S    
C147  H35   S    
C162  H68   S    
C116  C147  A    
C85   C165  S    
C145  H33   S    
C174  H104  S    
C114  C122  A    
C175  H109  S    
C153  H41   S    
C120  C151  A    
C27   H12   S    
C149  H37   S    
N8    C64   S    
O4    C1    A    
C16   C80   A    
C84   C148  A    
C3    C102  S    
C106  C130  A    
C28   C36   A    
C46   C102  A    
C155  H48   S    
C76   C84   A    
C30   H13   S    
O13   V3    S    
O14   V4    S    
C21   O34   S    
C30   C62   A    
C36   O47   S    
C19   O32   S    
N6    C22   A    
C42   C50   A    
C105  C114  A    
C9    O21   S    
C68   C76   A    
C172  H100  S    
C158  H57   S    
C71   C95   A    
O45   C169  S    
C18   C90   A    
C141  H21   S    
O3    V4    S    
C83   C163  S    
O4    V3    S    
C25   C57   A    
C170  H92   S    
C14   C78   A    
C50   H2    S    
C167  H83   S    
C24   O35   S    
C105  C121  A    
C5    C100  S    
C109  C125  A    
C56   H8    S    
O51   C175  S    
C30   C38   A    
C165  H77   S    
C33   O46   S    
C34   O45   S    
C152  H40   S    
C139  H19   S    
C168  H86   S    
C137  H17   S    
C66   C74   A    
C17   C89   A    
O37   C153  S    
C162  H70   S    
C173  H102  S    
C117  C125  A    
C87   C167  S    
N7    C63   S    
C25   C33   A    
C111  C120  A    
O3    C2    A    
C112  C119  A    
C46   C54   A    
C47   O43   S    
C133  H29   S    
C14   N6    A    
C117  C150  A    
O9    V1    S    
C91   C140  A    
O15   C7    A    
C170  H94   S    
C176  H111  S    
C111  C127  A    
C112  C128  A    
N5    C21   A    
O5    V1    S    
C36   C100  A    
N3    C59   S    
C10   N2    A    
C68   C92   A    
C114  C145  A    
C136  H32   S    
C67   C91   A    
C65   C89   A    
C167  H84   S    
C161  H65   S    
C47   C55   A    
C156  H51   S    
C23   C95   A    
O46   C170  S    
C167  H85   S    
O40   C156  S    
O8    C5    A    
O44   C160  S    
C26   H9    S    
C110  C134  A    
C67   C75   A    
C71   C79   A    
C159  H60   S    
C174  H105  S    
C175  H108  S    
C160  H63   S    
C66   C121  A    
N3    C19   A    
C84   C164  S    
C52   C60   A    
C70   C125  A    
C43   O39   S    
C45   O41   S    
C135  C143  A    
C109  C118  A    
C154  H44   S    
C107  C116  A    
C10   C74   A    
C47   C103  A    
C22   C94   A    
O20   V2    S    
C48   O44   S    
C113  C121  A    
C164  H75   S    
C42   C98   A    
O5    C8    A    
O6    C7    A    
C163  H72   S    
C50   C58   A    
C130  H26   S    
O42   C158  S    
C74   C82   A    
C107  C123  A    
C72   C127  A    
C55   H7    S    
C44   C100  A    
O16   C8    A    
O50   C174  S    
C68   C123  A    
C24   C96   A    
C78   C86   A    
C111  C135  A    
C28   H11   S    
C48   C104  A    
