data_mof_unit_13747.cif
_audit_creation_date              2013-03-05T15:39:32-0500
_audit_creation_method            fapswitch 2.2
_symmetry_space_group_name_H-M    P1
_symmetry_Int_Tables_number       1
_space_group_crystal_system       triclinic
_cell_length_a                    19.709635
_cell_length_b                    17.054769
_cell_length_c                    15.331325
_cell_angle_alpha                 90.009798
_cell_angle_beta                  54.142725
_cell_angle_gamma                 90.033107
_cell_volume                      4176.81865832

loop_
_atom_site_label
_atom_site_type_symbol
_atom_site_description
_atom_site_fract_x
_atom_site_fract_y
_atom_site_fract_z
_atom_type_partial_charge
C1    C     C_R   0.340853 0.174498 0.049695 -0.080601
C2    C     C_R   0.372275 0.803368 0.999403 -0.081665
C3    C     C_R   0.872084 0.696545 0.999786 -0.081276
C4    C     C_R   0.840773 0.325447 0.049404 -0.076081
H1    H     H_    0.332097 0.222712 0.100755 0.097106
H2    H     H_    0.378268 0.749236 0.030810 0.091406
H3    H     H_    0.877861 0.750599 0.031594 0.092176
H4    H     H_    0.832032 0.276764 0.099693 0.093781
N1    N     N_R   0.408680 0.130160 0.995800 -0.053983
N2    N     N_R   0.408680 0.869840 0.995800 -0.051014
N3    N     N_R   0.908680 0.630160 0.995800 -0.051675
N4    N     N_R   0.908680 0.369840 0.995800 -0.049278
C5    C     C_R   0.393239 0.802035 0.210167 -0.232843
C6    C     C_R   0.404795 0.199577 0.206497 -0.273517
C7    C     C_R   0.898528 0.301648 0.209586 -0.266153
C8    C     C_R   0.896258 0.698421 0.209201 -0.236763
H5    H     H_    0.384487 0.747467 0.182137 0.132014
H6    H     H_    0.403948 0.255686 0.174456 0.139822
H7    H     H_    0.896837 0.245159 0.179048 0.137387
H8    H     H_    0.889404 0.753526 0.180355 0.132821
N5    N     N_R   0.421680 0.867580 0.153120 -0.071822
N6    N     N_R   0.421680 0.132420 0.153120 -0.069981
N7    N     N_R   0.921680 0.367580 0.153120 -0.071135
N8    N     N_R   0.921680 0.632420 0.153120 -0.071340
C9    C     C_R   0.364846 0.888639 0.897139 -0.133376
C10   C     C_R   0.329767 0.087182 0.951351 -0.083061
C11   C     C_R   0.829690 0.413042 0.951489 -0.075687
C12   C     C_R   0.864735 0.611346 0.897313 -0.134971
H9    H     H_    0.361419 0.913612 0.834952 0.143457
H10   H     H_    0.308446 0.053638 0.911805 0.125314
H11   H     H_    0.808400 0.446738 0.912051 0.123504
H12   H     H_    0.861276 0.586434 0.835112 0.144880
N9    N     N_R   0.403730 0.921770 0.935950 -0.054331
N10   N     N_R   0.403730 0.078230 0.935950 -0.052031
N11   N     N_R   0.903730 0.421770 0.935950 -0.048693
N12   N     N_R   0.903730 0.578230 0.935950 -0.055215
C13   C     C_R   0.417841 0.108228 0.297250 0.540235
C14   C     C_R   0.415624 0.888683 0.297594 0.545964
C15   C     C_R   0.916314 0.610341 0.297435 0.525258
C16   C     C_R   0.912158 0.392428 0.300868 0.512965
N13   N     N_R   0.426630 0.075970 0.212960 -0.110533
N14   N     N_R   0.426630 0.924030 0.212960 -0.112779
N15   N     N_R   0.926630 0.575970 0.212960 -0.113963
N16   N     N_R   0.926630 0.424030 0.212960 -0.112282
C17   C     C_R   0.288628 0.148391 0.024225 0.127145
C18   C     C_R   0.345198 0.812948 0.935756 0.112055
C19   C     C_R   0.844959 0.686972 0.936191 0.111656
C20   C     C_R   0.788442 0.351837 0.024269 0.122453
C21   C     C_R   0.382096 0.815964 0.306479 0.038355
C22   C     C_R   0.399921 0.186452 0.299825 -0.011644
C23   C     C_R   0.885692 0.316901 0.307164 0.032469
C24   C     C_R   0.885805 0.684391 0.305255 0.045452
C25   C     C_R   0.627150 0.198839 0.006098 -0.040829
C26   C     C_R   0.659415 0.821989 0.955745 -0.054755
C27   C     C_R   0.159578 0.677887 0.955342 -0.056559
C28   C     C_R   0.125859 0.300910 0.008143 -0.083767
H13   H     H_    0.622094 0.254673 0.977220 0.092258
H14   H     H_    0.669100 0.770348 0.909243 0.106429
H15   H     H_    0.169440 0.729322 0.908400 0.107407
H16   H     H_    0.119107 0.244624 0.981843 0.097670
N17   N     N_R   0.591320 0.134600 0.004200 -0.053127
N18   N     N_R   0.591320 0.865400 0.004200 -0.060132
N19   N     N_R   0.091320 0.634600 0.004200 -0.060513
N20   N     N_R   0.091320 0.365400 0.004200 -0.056758
C29   C     C_R   0.607030 0.803253 0.788298 -0.050892
C30   C     C_R   0.608783 0.196079 0.787287 -0.032022
C31   C     C_R   0.146533 0.325945 0.780075 -0.051476
C32   C     C_R   0.104477 0.697737 0.790075 -0.049820
H17   H     H_    0.610541 0.747390 0.818407 0.105468
H18   H     H_    0.617537 0.250757 0.814981 0.111585
H19   H     H_    0.165566 0.275375 0.803032 0.129864
H20   H     H_    0.107546 0.753445 0.820979 0.105394
N21   N     N_R   0.578320 0.867660 0.846880 -0.049136
N22   N     N_R   0.578320 0.132340 0.846880 -0.048251
N23   N     N_R   0.078320 0.367660 0.846880 -0.052839
N24   N     N_R   0.078320 0.632340 0.846880 -0.048239
C33   C     C_R   0.601452 0.101791 0.691335 -0.105302
C34   C     C_R   0.601119 0.897225 0.691449 -0.122864
C35   C     C_R   0.096109 0.605410 0.694326 -0.146738
C36   C     C_R   0.135926 0.419409 0.684742 -0.017551
H21   H     H_    0.601249 0.069435 0.630973 0.109953
H22   H     H_    0.602986 0.929554 0.629539 0.105082
H23   H     H_    0.093354 0.575518 0.634404 0.114178
H24   H     H_    0.143911 0.454910 0.621238 0.085788
N25   N     N_R   0.573370 0.074390 0.787040 -0.043330
N26   N     N_R   0.573370 0.925610 0.787040 -0.039163
N27   N     N_R   0.073370 0.574390 0.787040 -0.042403
N28   N     N_R   0.073370 0.425610 0.787040 -0.046915
C37   C     C_R   0.669272 0.917605 0.050942 -0.015881
C38   C     C_R   0.637745 0.104441 0.100419 -0.083157
C39   C     C_R   0.138414 0.396002 0.099708 -0.066640
C40   C     C_R   0.169292 0.582506 0.050878 -0.025752
H25   H     H_    0.690516 0.951160 0.090430 0.108876
H26   H     H_    0.644830 0.077598 0.158504 0.155617
H27   H     H_    0.146526 0.423349 0.156626 0.152346
H28   H     H_    0.190533 0.549158 0.090471 0.109785
N29   N     N_R   0.596270 0.927870 0.064040 -0.038297
N30   N     N_R   0.596270 0.072130 0.064040 -0.050020
N31   N     N_R   0.096270 0.427870 0.064040 -0.049182
N32   N     N_R   0.096270 0.572130 0.064040 -0.038784
Ni1   Ni    Ni4+2 0.500000 0.131190 0.000000 0.229615
Ni2   Ni    Ni4+2 0.500000 0.868810 0.000000 0.231186
Ni3   Ni    Ni4+2 0.000000 0.631190 0.000000 0.226300
Ni4   Ni    Ni4+2 0.000000 0.368810 0.000000 0.234575
Ni5   Ni    Ni4+2 0.488650 1.000000 0.862740 0.257654
Ni6   Ni    Ni4+2 0.988650 0.500000 0.862740 0.264548
Ni7   Ni    Ni4+2 0.511350 0.000000 0.137260 0.320635
Ni8   Ni    Ni4+2 0.011350 0.500000 0.137260 0.316882
C41   C     C_R   0.656183 0.182471 0.066478 0.121175
C42   C     C_R   0.709793 0.853356 0.982629 0.124025
C43   C     C_R   0.209941 0.646599 0.982246 0.123196
C44   C     C_R   0.156015 0.317732 0.067044 0.135106
C45   C     C_R   0.625168 0.820851 0.688668 0.143374
C46   C     C_R   0.626538 0.177603 0.687786 0.134410
C47   C     C_R   0.182180 0.356061 0.677203 0.105450
C48   C     C_R   0.119768 0.681871 0.691757 0.151065
C49   C     C_3   0.272669 0.179536 0.491874 0.227455
C50   C     C_3   0.272672 0.843445 0.506717 0.267781
C51   C     C_3   0.773695 0.657102 0.505001 0.264414
C52   C     C_3   0.760260 0.344877 0.500802 0.236933
H29   H     H_    0.241827 0.152587 0.457253 0.138775
H30   H     H_    0.253226 0.895475 0.482524 0.135890
H31   H     H_    0.753461 0.606406 0.479653 0.127743
H32   H     H_    0.738972 0.387331 0.466385 0.124485
C53   C     C_3   0.208769 0.228588 0.589911 0.262620
C54   C     C_3   0.195571 0.808196 0.609962 0.235510
C55   C     C_3   0.696915 0.693295 0.607424 0.239704
C56   C     C_3   0.683750 0.306169 0.600786 0.260401
H33   H     H_    0.196742 0.201380 0.663320 0.158716
H34   H     H_    0.202992 0.814389 0.675691 0.158033
H35   H     H_    0.702629 0.685055 0.674314 0.157737
H36   H     H_    0.679140 0.324563 0.673209 0.155611
C57   C     C_3   0.395202 0.275418 0.441065 0.355467
C58   C     C_3   0.343332 0.707072 0.436924 0.352702
C59   C     C_3   0.849052 0.791734 0.437011 0.352212
C60   C     C_3   0.852005 0.219115 0.449373 0.350550
C61   C     C_3   0.746010 0.748306 0.399635 -0.529190
C62   C     C_3   0.756313 0.236096 0.392491 -0.539417
C63   C     C_3   0.304331 0.300635 0.379938 -0.536501
C64   C     C_3   0.240110 0.756216 0.402859 -0.527993
C65   C     C_3   0.346570 0.232954 0.401708 0.001065
C66   C     C_3   0.312732 0.781716 0.411592 -0.065835
C67   C     C_3   0.816801 0.719233 0.410096 -0.062272
C68   C     C_3   0.816742 0.280894 0.411061 -0.035116
H37   H     H_    0.770592 0.790869 0.332591 0.194222
H38   H     H_    0.790518 0.191417 0.327811 0.188588
H39   H     H_    0.352415 0.339347 0.313533 0.189475
H40   H     H_    0.262618 0.714316 0.335596 0.195617
H41   H     H_    0.719735 0.697730 0.382495 0.236583
H42   H     H_    0.727150 0.278044 0.367809 0.234422
H43   H     H_    0.265216 0.275910 0.355801 0.231494
H44   H     H_    0.215002 0.808405 0.386849 0.236760
C69   C     C_3   0.691623 0.782213 0.588920 -0.079040
C70   C     C_3   0.692362 0.215706 0.587950 -0.086234
C71   C     C_3   0.241987 0.313820 0.576808 -0.071725
C72   C     C_3   0.186750 0.720057 0.591399 -0.079191
C73   C     C_3   0.776142 0.826431 0.546200 0.058027
C74   C     C_3   0.778978 0.184766 0.558497 0.043689
C75   C     C_3   0.331514 0.317036 0.550630 0.049863
C76   C     C_3   0.270220 0.673055 0.546475 0.058775
C77   C     C_3   0.675532 0.789737 0.501987 -0.349105
C78   C     C_3   0.687641 0.192781 0.493811 -0.355445
C79   C     C_3   0.248965 0.351465 0.479428 -0.414233
C80   C     C_3   0.168930 0.715514 0.505807 -0.343923
H45   H     H_    0.613821 0.764705 0.529709 0.268110
H46   H     H_    0.625268 0.206002 0.512146 0.273355
H47   H     H_    0.186792 0.357593 0.494279 0.251076
H48   H     H_    0.107826 0.742791 0.534987 0.268689
H49   H     H_    0.674636 0.852315 0.482355 0.166230
H50   H     H_    0.698188 0.128780 0.477192 0.157788
H51   H     H_    0.276316 0.411434 0.463620 0.166569
H52   H     H_    0.165485 0.653489 0.486277 0.169202
H53   H     H_    0.433471 0.322217 0.380904 0.060069
H54   H     H_    0.359672 0.663009 0.373689 0.047147
H55   H     H_    0.867680 0.836558 0.373773 0.050488
H56   H     H_    0.878656 0.170558 0.389370 0.053603
H57   H     H_    0.768637 0.888042 0.528560 0.072927
H58   H     H_    0.780141 0.120156 0.545851 0.091473
H59   H     H_    0.350080 0.380122 0.538973 0.114042
H60   H     H_    0.260443 0.612277 0.528727 0.063727
C81   C     C_2   0.283053 0.685368 0.962417 -0.129638
C82   C     C_2   0.197333 0.261535 0.092133 -0.115697
C83   C     C_2   0.696769 0.238939 0.092406 -0.129432
C84   C     C_2   0.782754 0.814517 0.963061 -0.129742
H61   H     H_    0.303385 0.666223 0.011079 0.122719
H62   H     H_    0.225130 0.284913 0.130134 0.127451
H63   H     H_    0.723864 0.215822 0.131395 0.130864
H64   H     H_    0.803107 0.833683 0.011712 0.122914
C85   C     C_2   0.714359 0.311407 0.049777 -0.162334
C86   C     C_2   0.808751 0.746770 0.908564 -0.103627
C87   C     C_2   0.309112 0.753111 0.907905 -0.102489
C88   C     C_2   0.214669 0.188975 0.049753 -0.152459
H65   H     H_    0.685141 0.335523 0.014043 0.135045
H66   H     H_    0.791190 0.728960 0.856475 0.170819
H67   H     H_    0.291569 0.770893 0.855796 0.169033
H68   H     H_    0.185180 0.164707 0.014437 0.134516
Cl1   Cl    Cl    0.603005 0.640706 0.649874 -0.576999
Cl2   Cl    Cl    0.588062 0.341869 0.625192 -0.540335
Cl3   Cl    Cl    0.108171 0.225062 0.612395 -0.553941
Cl4   Cl    Cl    0.102907 0.864030 0.655219 -0.579856
Cl5   Cl    Cl    0.473439 0.222256 0.441031 -0.464651
Cl6   Cl    Cl    0.439567 0.718372 0.424165 -0.447190
Cl7   Cl    Cl    0.943884 0.776015 0.426481 -0.447716
Cl8   Cl    Cl    0.939792 0.250039 0.448038 -0.414040
N33   N     N_R   0.794465 0.831069 0.626470 0.275737
O1    O     O_R   0.807498 0.768555 0.663257 -0.347431
O2    O     O_R   0.797652 0.899283 0.661979 -0.332266
N34   N     N_R   0.789824 0.195790 0.645010 0.276582
O3    O     O_R   0.791167 0.265182 0.679142 -0.311814
O4    O     O_R   0.798868 0.134776 0.688285 -0.315747
N35   N     N_R   0.333856 0.288065 0.639355 0.270883
O5    O     O_R   0.319244 0.214966 0.669162 -0.316883
O6    O     O_R   0.352734 0.336183 0.688043 -0.308853
N36   N     N_R   0.289971 0.665488 0.625137 0.276621
O7    O     O_R   0.305777 0.726409 0.661572 -0.342786
O8    O     O_R   0.291956 0.596219 0.659203 -0.354960
Cl9   Cl    Cl    0.474870 0.069890 0.341862 -0.473744
Cl10  Cl    Cl    0.499023 0.892388 0.309798 -0.476735
Cl11  Cl    Cl    0.996856 0.599129 0.314045 -0.476226
Cl12  Cl    Cl    0.978253 0.417014 0.338366 -0.468439
Cl13  Cl    Cl    0.299334 0.097655 0.540293 -0.450700
Cl14  Cl    Cl    0.339979 0.881644 0.540113 -0.409612
Cl15  Cl    Cl    0.837963 0.615589 0.541227 -0.415851
Cl16  Cl    Cl    0.808422 0.404005 0.547649 -0.427365

loop_
_geom_bond_atom_site_label_1
_geom_bond_atom_site_label_2
_geom_bond_distance
_ccdc_geom_bond_type
C11   C20   1.390050 A    
C15   Cl11  1.759357 S    
C58   C76   1.548531 S    
C60   H56   1.114493 S    
C12   C19   1.378010 A    
C59   C73   1.549171 S    
N34   O4    1.301438 A    
C27   H15   1.077660 S    
C50   Cl14  1.800290 S    
C51   C67   1.585237 S    
C14   Cl10  1.761000 S    
C49   Cl13  1.798790 S    
N17   N30   1.446239 A    
C52   C68   1.590454 S    
C13   Cl9   1.749392 S    
C18   C87   1.443759 S    
C36   H24   1.076942 S    
C61   H41   1.113589 S    
C51   H31   1.112961 S    
C55   C69   1.557581 S    
C35   N27   1.324710 A    
C29   N21   1.318483 A    
C14   C21   1.373696 A    
C30   H18   1.079417 S    
C23   C68   1.491502 S    
C62   H42   1.113895 S    
C7    H7    1.080077 S    
N31   Ni8   1.837279 S    
C63   H39   1.113424 S    
N6    Ni1   1.910195 S    
C1    H1    1.077215 S    
C88   H68   1.081933 S    
C61   H37   1.111125 S    
N3    N12   1.319226 A    
C64   C66   1.574672 S    
C70   C74   1.579445 S    
C3    H3    1.079530 S    
C50   H30   1.113065 S    
C60   C68   1.554821 S    
N36   O8    1.301578 A    
N6    N13   1.372346 A    
C54   H34   1.104827 S    
C54   Cl4   1.800266 S    
C30   N22   1.316752 A    
C83   C85   1.345056 D    
C43   C81   1.446326 S    
C75   N35   1.473233 S    
C26   C42   1.385912 A    
C82   H62   1.082681 S    
C60   C74   1.546650 S    
C3    C19   1.368791 A    
C6    H6    1.080309 S    
C76   H60   1.116566 S    
C31   C47   1.395194 A    
C10   C17   1.390946 A    
C78   H46   1.112041 S    
C25   N17   1.312635 A    
C10   N10   1.342075 A    
N20   N31   1.445924 A    
N35   O5    1.300611 A    
N18   Ni2   1.839295 S    
N34   O3    1.300423 A    
C27   N19   1.316990 A    
C74   H58   1.116726 S    
C28   N20   1.313731 A    
C58   Cl6   1.799461 S    
N29   Ni7   1.837279 S    
C33   H21   1.079409 S    
C4    N4    1.323028 A    
C79   H51   1.114363 S    
N14   Ni7   1.881898 S    
C64   H44   1.113653 S    
C22   C65   1.500274 S    
C4    H4    1.076056 S    
C77   H49   1.111884 S    
C34   N26   1.319962 A    
N24   Ni3   1.910172 S    
C7    N7    1.326280 A    
C15   C24   1.373781 A    
C61   C67   1.575227 S    
C42   C84   1.446483 S    
C8    N8    1.323994 A    
C35   C48   1.377410 A    
C16   Cl12  1.755006 S    
C13   N13   1.319190 A    
C64   H40   1.111322 S    
C2    H2    1.079360 S    
C82   C88   1.345537 D    
N25   Ni5   1.863459 S    
C55   Cl1   1.800264 S    
C51   Cl15  1.799894 S    
C38   H26   1.080735 S    
C84   H64   1.083722 S    
N16   Ni8   1.881898 S    
C40   H28   1.079504 S    
C9    H9    1.081918 S    
C49   C65   1.581924 S    
N32   Ni8   1.836239 S    
C24   C67   1.491958 S    
C71   C75   1.564592 S    
C59   Cl7   1.799582 S    
C12   H12   1.081913 S    
C1    N1    1.322327 A    
N19   Ni3   1.839229 S    
C54   C72   1.558307 S    
C1    C17   1.371350 A    
C45   C69   1.463726 S    
C81   H61   1.083633 S    
N36   O7    1.300726 A    
C44   C82   1.448354 S    
C26   N18   1.316892 A    
C87   H67   1.083333 S    
C11   N11   1.341985 A    
N33   O1    1.300387 A    
C11   H11   1.081458 S    
C37   C42   1.398608 A    
C37   H25   1.079759 S    
C2    C18   1.368900 A    
N30   Ni7   1.836239 S    
C28   H16   1.079058 S    
C37   N29   1.342771 A    
C57   C75   1.559328 S    
C59   H55   1.114498 S    
C39   C44   1.396359 A    
C79   H47   1.112504 S    
N19   N32   1.446239 A    
C83   H63   1.082688 S    
C58   C66   1.552632 S    
N18   N29   1.445924 A    
N28   Ni6   1.864503 S    
C34   H22   1.079586 S    
C17   C88   1.445622 S    
N7    Ni4   1.910185 S    
C78   H50   1.112495 S    
C36   C47   1.374539 A    
C72   C76   1.580308 S    
C32   H20   1.078957 S    
C76   N36   1.474031 S    
C21   C66   1.491825 S    
N17   Ni1   1.839229 S    
N12   Ni6   1.908529 S    
N9    Ni5   1.907446 S    
C62   C78   1.525359 S    
C8    H8    1.080432 S    
C63   C65   1.569594 S    
N4    N11   1.319512 A    
N24   N27   1.390114 A    
C12   N12   1.339617 A    
C20   C85   1.445833 S    
C32   C48   1.379816 A    
N22   Ni1   1.910172 S    
C5    C21   1.380216 A    
N5    Ni2   1.910185 S    
C80   H48   1.111924 S    
N1    Ni1   1.838417 S    
N21   Ni2   1.910182 S    
N35   O6    1.301498 A    
C10   H10   1.081468 S    
C7    C23   1.387875 A    
C53   H33   1.107089 S    
C77   H45   1.111811 S    
N23   Ni4   1.910182 S    
C84   C86   1.339552 D    
C80   H52   1.112151 S    
C34   C45   1.378449 A    
C64   C80   1.531785 S    
C33   C46   1.373660 A    
C2    N2    1.325049 A    
C60   Cl8   1.797177 S    
C40   N32   1.342720 A    
C57   Cl5   1.789017 S    
C4    C20   1.371549 A    
C26   H14   1.077453 S    
C25   C41   1.372273 A    
N20   Ni4   1.839295 S    
C56   H36   1.105114 S    
C25   H13   1.079189 S    
C30   C46   1.386874 A    
C56   Cl2   1.800591 S    
C27   C43   1.385841 A    
N10   Ni5   1.908529 S    
C29   C45   1.382512 A    
C70   C78   1.549729 S    
C8    C24   1.383106 A    
C75   H59   1.116436 S    
C50   C66   1.584336 S    
C15   N15   1.324261 A    
C52   C56   1.533191 S    
C40   C43   1.398444 A    
N4    Ni4   1.838437 S    
C49   H29   1.113588 S    
N13   Ni7   1.882952 S    
C32   N24   1.319798 A    
C16   C23   1.371448 A    
C73   H57   1.116361 S    
C57   C65   1.576061 S    
C5    H5    1.080291 S    
N8    Ni3   1.910195 S    
C71   C79   1.555541 S    
C6    N6    1.331665 A    
C19   C86   1.443558 S    
C63   C79   1.523001 S    
C47   C71   1.467183 S    
C74   N34   1.473880 S    
C36   N28   1.313696 A    
N11   Ni6   1.907446 S    
C62   C68   1.574632 S    
C5    N5    1.324396 A    
C72   C80   1.546347 S    
C35   H23   1.079392 S    
C13   C22   1.374894 A    
C81   C87   1.339351 D    
C41   C83   1.448068 S    
C6    C22   1.394878 A    
N27   Ni6   1.863459 S    
C49   C53   1.525864 S    
C62   H38   1.111582 S    
C29   H17   1.078522 S    
N2    Ni2   1.838437 S    
C63   H43   1.114845 S    
C59   C67   1.552248 S    
C28   C44   1.370957 A    
N1    N10   1.319226 A    
N2    N9    1.319512 A    
C31   H19   1.078710 S    
N15   Ni8   1.882952 S    
N22   N25   1.390114 A    
C69   C73   1.578991 S    
C50   C54   1.535411 S    
C55   H35   1.104300 S    
N21   N26   1.390417 A    
C48   C72   1.467661 S    
C3    N3    1.324816 A    
C52   H32   1.112911 S    
C86   H66   1.083261 S    
C33   N25   1.313826 A    
N5    N14   1.372046 A    
N26   Ni5   1.864503 S    
C14   N14   1.328329 A    
C85   H65   1.082065 S    
N23   N28   1.390417 A    
C16   N16   1.318322 A    
C31   N23   1.323010 A    
C53   Cl3   1.803565 S    
C39   H27   1.080640 S    
C52   Cl16  1.797550 S    
C69   C77   1.545554 S    
N8    N15   1.372346 A    
N3    Ni3   1.838417 S    
C58   H54   1.114691 S    
C38   C41   1.397125 A    
C39   N31   1.348014 A    
N33   O2    1.301349 A    
C57   H53   1.114099 S    
C9    C18   1.377669 A    
C38   N30   1.347764 A    
C73   N33   1.473701 S    
C46   C70   1.456435 S    
C53   C71   1.557863 S    
C61   C77   1.529156 S    
C9    N9    1.339520 A    
C56   C70   1.552053 S    
N7    N16   1.372046 A    
C51   C55   1.534169 S    
