data_mof_unit_62753.cif
_audit_creation_date              2013-03-05T16:06:52-0500
_audit_creation_method            fapswitch 2.2
_symmetry_space_group_name_H-M    P1
_symmetry_Int_Tables_number       1
_space_group_crystal_system       triclinic
_cell_length_a                    26.384031
_cell_length_b                    26.343218
_cell_length_c                    22.230574
_cell_angle_alpha                 90.213109
_cell_angle_beta                  53.690546
_cell_angle_gamma                 90.140748
_cell_volume                      12450.9180066

loop_
_atom_site_label
_atom_site_type_symbol
_atom_site_description
_atom_site_fract_x
_atom_site_fract_y
_atom_site_fract_z
_atom_type_partial_charge
Zn1   Zn    Zn3+2 0.675530 0.706240 0.561430 1.153526
Zn2   Zn    Zn3+2 0.675530 0.293760 0.561430 1.045763
Zn3   Zn    Zn3+2 0.175530 0.206240 0.561430 1.151615
Zn4   Zn    Zn3+2 0.175530 0.793760 0.561430 1.045144
Zn5   Zn    Zn3+2 0.824490 0.706250 0.438570 1.203448
Zn6   Zn    Zn3+2 0.824490 0.293750 0.438570 1.180157
Zn7   Zn    Zn3+2 0.324490 0.206250 0.438570 1.201128
Zn8   Zn    Zn3+2 0.324490 0.793750 0.438570 1.171026
Zn9   Zn    Zn3+2 0.763090 0.793770 0.561410 1.120669
Zn10  Zn    Zn3+2 0.763090 0.206230 0.561410 1.061150
Zn11  Zn    Zn3+2 0.263090 0.293770 0.561410 1.122057
Zn12  Zn    Zn3+2 0.263090 0.706230 0.561410 1.069032
Zn13  Zn    Zn3+2 0.736940 0.793790 0.438590 1.201202
Zn14  Zn    Zn3+2 0.736940 0.206210 0.438590 1.191469
Zn15  Zn    Zn3+2 0.236940 0.293790 0.438590 1.202572
Zn16  Zn    Zn3+2 0.236940 0.706210 0.438590 1.196022
O1    O     O_3   0.750010 0.750010 0.500000 -0.592874
O2    O     O_3   0.750010 0.249990 0.500000 -0.556827
O3    O     O_3   0.250010 0.250010 0.500000 -0.593442
O4    O     O_3   0.250010 0.749990 0.500000 -0.559453
O5    O     O_R   0.801340 0.780670 0.336040 -0.594013
O6    O     O_R   0.801340 0.219330 0.336040 -0.568057
O7    O     O_R   0.301340 0.280670 0.336040 -0.593161
O8    O     O_R   0.301340 0.719330 0.336040 -0.567446
O9    O     O_R   0.637410 0.719360 0.663970 -0.587077
O10   O     O_R   0.637410 0.280640 0.663970 -0.612549
O11   O     O_R   0.137410 0.219360 0.663970 -0.580381
O12   O     O_R   0.137410 0.780640 0.663970 -0.607997
O13   O     O_R   0.802130 0.633170 0.457010 -0.564906
O14   O     O_R   0.802130 0.366830 0.457010 -0.517073
O15   O     O_R   0.302130 0.133170 0.457010 -0.566262
O16   O     O_R   0.302130 0.866830 0.457010 -0.518971
O17   O     O_R   0.759170 0.866860 0.542980 -0.575581
O18   O     O_R   0.759170 0.133140 0.542980 -0.724973
O19   O     O_R   0.259170 0.366860 0.542980 -0.564798
O20   O     O_R   0.259170 0.633140 0.542980 -0.725706
O21   O     O_R   0.888360 0.719380 0.456990 -0.531933
O22   O     O_R   0.888360 0.280620 0.456990 -0.588082
O23   O     O_R   0.388360 0.219380 0.456990 -0.551566
O24   O     O_R   0.388360 0.780620 0.456990 -0.596645
O25   O     O_R   0.654640 0.780660 0.457030 -0.549550
O26   O     O_R   0.654640 0.219340 0.457030 -0.540883
O27   O     O_R   0.154640 0.280660 0.457030 -0.548247
O28   O     O_R   0.154640 0.719340 0.457030 -0.519541
O29   O     O_R   0.845390 0.780640 0.542970 -0.678722
O30   O     O_R   0.845390 0.219360 0.542970 -0.657216
O31   O     O_R   0.345390 0.280640 0.542970 -0.663880
O32   O     O_R   0.345390 0.719360 0.542970 -0.647842
O33   O     O_R   0.611660 0.719380 0.543010 -0.593124
O34   O     O_R   0.611660 0.280620 0.543010 -0.739608
O35   O     O_R   0.111660 0.219380 0.543010 -0.602901
O36   O     O_R   0.111660 0.780620 0.543010 -0.742116
O37   O     O_R   0.697880 0.633160 0.542990 -0.570017
O38   O     O_R   0.697880 0.366840 0.542990 -0.686744
O39   O     O_R   0.197880 0.133160 0.542990 -0.577938
O40   O     O_R   0.197880 0.866840 0.542990 -0.685832
O41   O     O_R   0.740870 0.866870 0.457020 -0.559593
O42   O     O_R   0.740870 0.133130 0.457020 -0.536923
O43   O     O_R   0.240870 0.366870 0.457020 -0.563003
O44   O     O_R   0.240870 0.633130 0.457020 -0.533951
O45   O     O_R   0.862620 0.719400 0.336030 -0.572018
O46   O     O_R   0.862620 0.280600 0.336030 -0.612247
O47   O     O_R   0.362620 0.219400 0.336030 -0.569284
O48   O     O_R   0.362620 0.780600 0.336030 -0.602757
O49   O     O_R   0.698690 0.780630 0.663960 -0.605864
O50   O     O_R   0.698690 0.219370 0.663960 -0.593028
O51   O     O_R   0.198690 0.280630 0.663960 -0.614518
O52   O     O_R   0.198690 0.719370 0.663960 -0.591572
C1    C     C_R   0.849019 0.749995 0.301946 0.844679
C2    C     C_R   0.848972 0.249942 0.301901 0.839690
C3    C     C_R   0.349022 0.249998 0.301947 0.851452
C4    C     C_R   0.348977 0.749961 0.301890 0.824042
C5    C     C_R   0.651049 0.750037 0.698112 0.854161
C6    C     C_R   0.651005 0.250001 0.698052 0.864655
C7    C     C_R   0.151067 0.250031 0.698100 0.853627
C8    C     C_R   0.151002 0.749999 0.698050 0.868798
C9    C     C_R   0.749482 0.608700 0.499982 1.010345
C10   C     C_R   0.749664 0.391007 0.499507 0.946937
C11   C     C_R   0.249911 0.108765 0.500890 1.011117
C12   C     C_R   0.249710 0.891055 0.499805 0.939809
C13   C     C_R   0.747685 0.891251 0.502132 1.030891
C14   C     C_R   0.752040 0.108921 0.498105 0.965496
C15   C     C_R   0.247614 0.391233 0.502333 1.032829
C16   C     C_R   0.252026 0.608899 0.498245 0.967494
C17   C     C_R   0.889960 0.747886 0.502852 0.840313
C18   C     C_R   0.890869 0.249811 0.500345 0.813703
C19   C     C_R   0.392263 0.250389 0.498169 0.837195
C20   C     C_R   0.390911 0.749815 0.500287 0.814554
C21   C     C_R   0.608926 0.750035 0.499657 0.887092
C22   C     C_R   0.608827 0.250012 0.500274 0.860342
C23   C     C_R   0.108903 0.249986 0.499678 0.897601
C24   C     C_R   0.110171 0.751832 0.497817 0.860086
C25   C     C_3   0.528586 0.809268 0.503763 -0.086339
C26   C     C_3   0.548036 0.194093 0.467737 -0.067422
C27   C     C_3   0.031837 0.309124 0.496777 -0.083110
C28   C     C_3   0.034492 0.691093 0.498229 -0.058981
C29   C     C_3   0.471075 0.808530 0.495563 0.266233
C30   C     C_3   0.485498 0.192417 0.468593 0.246361
C31   C     C_3   0.974572 0.307918 0.488406 0.265603
C32   C     C_3   0.967724 0.688717 0.508498 0.230918
C33   C     C_3   0.568941 0.721943 0.422430 0.032330
C34   C     C_3   0.559001 0.298227 0.446203 0.007372
C35   C     C_3   0.066912 0.217486 0.426587 0.035798
C36   C     C_3   0.066051 0.783833 0.427680 -0.017061
C37   C     C_3   0.493179 0.720267 0.574644 -0.254654
C38   C     C_3   0.487407 0.259184 0.585297 -0.262437
C39   C     C_3   0.991357 0.224593 0.578450 -0.269593
C40   C     C_3   0.992094 0.778857 0.578275 -0.250264
C41   C     C_3   0.551253 0.750500 0.499080 -0.243397
C42   C     C_3   0.551907 0.250566 0.499259 -0.261409
C43   C     C_3   0.051095 0.250312 0.499301 -0.244975
C44   C     C_3   0.051903 0.751441 0.499775 -0.265570
C45   C     C_3   0.447904 0.749425 0.501612 -0.267571
C46   C     C_3   0.451599 0.249878 0.495684 -0.238825
C47   C     C_3   0.947805 0.249351 0.501744 -0.266923
C48   C     C_3   0.948464 0.747815 0.502539 -0.263698
C49   C     C_3   0.502815 0.715106 0.430755 -0.294352
C50   C     C_3   0.503141 0.291552 0.435144 -0.321078
C51   C     C_3   0.000534 0.211273 0.435272 -0.295767
C52   C     C_3   0.007034 0.773015 0.423724 -0.317224
C53   C     C_3   0.429323 0.724145 0.579905 -0.302010
C54   C     C_3   0.429230 0.266358 0.579636 -0.239433
C55   C     C_3   0.927820 0.228349 0.582823 -0.296748
C56   C     C_3   0.933439 0.782621 0.572668 -0.244908
C57   C     C_3   0.469426 0.731277 0.954451 -0.324678
C58   C     C_3   0.476322 0.283426 0.955054 -0.311761
C59   C     C_3   0.966982 0.249457 0.953655 -0.333797
C60   C     C_3   0.972209 0.776972 0.954994 -0.313656
C61   C     C_3   0.535974 0.808186 0.953719 0.024950
C62   C     C_3   0.515567 0.189594 0.954858 -0.007005
C63   C     C_3   0.054411 0.301073 0.954697 0.046134
C64   C     C_3   0.023780 0.689360 0.954867 -0.006864
C65   C     C_3   0.480496 0.810435 0.043953 0.019185
C66   C     C_3   0.477986 0.189211 0.045414 -0.027077
C67   C     C_3   0.999386 0.305343 0.045379 -0.018284
C68   C     C_3   0.986176 0.690022 0.045425 -0.025614
C69   C     C_1   0.388102 0.750317 0.223078 0.099086
C70   C     C_1   0.388126 0.249467 0.223131 0.109985
C71   C     C_1   0.888247 0.249929 0.223108 0.121174
C72   C     C_1   0.888176 0.749506 0.223128 0.107755
C73   C     C_3   0.539222 0.750451 0.925729 -0.216533
C74   C     C_3   0.537843 0.247806 0.925653 -0.124063
C75   C     C_3   0.039870 0.249857 0.925748 -0.195490
C76   C     C_3   0.038117 0.748059 0.925650 -0.124348
C77   C     C_3   0.427190 0.722746 0.044210 0.082273
C78   C     C_3   0.425028 0.275112 0.045257 -0.065102
C79   C     C_3   0.920808 0.241274 0.043738 0.047804
C80   C     C_3   0.922081 0.767886 0.045196 -0.065039
C81   C     C_3   0.463601 0.751630 0.074306 -0.264179
C82   C     C_3   0.462396 0.247786 0.074391 -0.181935
C83   C     C_3   0.963313 0.250348 0.074388 -0.211431
C84   C     C_3   0.962658 0.747884 0.074386 -0.181698
C85   C     C_3   0.528108 0.721206 0.046857 -0.021525
C86   C     C_3   0.527396 0.278342 0.045376 0.053437
C87   C     C_3   0.014142 0.204360 0.046388 -0.032676
C88   C     C_3   0.023051 0.785018 0.045405 0.056592
C89   C     C_3   0.568418 0.712580 0.956284 0.104760
C90   C     C_3   0.577589 0.269996 0.954902 -0.015203
C91   C     C_3   0.054221 0.199333 0.955787 0.059890
C92   C     C_3   0.074344 0.777426 0.954941 -0.015312
C93   C     C_1   0.421648 0.751109 0.156351 0.112737
C94   C     C_1   0.421372 0.248613 0.156434 0.179312
C95   C     C_1   0.921740 0.250079 0.156398 0.188666
C96   C     C_1   0.921521 0.748689 0.156430 0.180681
C97   C     C_1   0.579690 0.749990 0.843578 0.010928
C98   C     C_1   0.578382 0.248677 0.843560 0.198019
C99   C     C_1   0.080233 0.249556 0.843538 0.019696
C100  C     C_1   0.078562 0.748844 0.843558 0.197543
C101  C     C_1   0.612187 0.749913 0.776924 0.009890
C102  C     C_1   0.611471 0.249591 0.776865 0.072513
C103  C     C_1   0.112453 0.249707 0.776883 0.014168
C104  C     C_1   0.111543 0.749669 0.776862 0.072539
C105  C     C_3   0.736722 0.969206 0.439699 0.269137
C106  C     C_3   0.737509 0.031026 0.438811 0.270244
C107  C     C_3   0.245237 0.469016 0.433726 0.264394
C108  C     C_3   0.245351 0.530725 0.433032 0.287469
C109  C     C_3   0.690582 0.970156 0.586210 -0.036737
C110  C     C_3   0.695986 0.032447 0.585070 -0.020656
C111  C     C_3   0.186506 0.470120 0.584136 -0.024081
C112  C     C_3   0.191504 0.532379 0.583365 -0.030232
C113  C     C_3   0.816702 0.968785 0.478879 -0.021007
C114  C     C_3   0.820674 0.030884 0.471593 -0.021431
C115  C     C_3   0.313229 0.468848 0.489921 -0.021561
C116  C     C_3   0.318290 0.530878 0.480542 -0.012318
C117  C     C_3   0.747832 0.949164 0.502036 -0.396178
C118  C     C_3   0.751456 0.051345 0.498443 -0.386083
C119  C     C_3   0.247909 0.449101 0.502793 -0.395046
C120  C     C_3   0.251589 0.551254 0.498899 -0.392564
C121  C     C_3   0.801724 0.529946 0.415562 0.224133
C122  C     C_3   0.807185 0.468672 0.416171 0.241838
C123  C     C_3   0.306411 0.030203 0.417603 0.226768
C124  C     C_3   0.310581 0.968896 0.418938 0.237626
C125  C     C_3   0.757071 0.530501 0.564882 0.209497
C126  C     C_3   0.753985 0.467939 0.566356 0.253445
C127  C     C_3   0.254677 0.030467 0.568739 0.206703
C128  C     C_3   0.249679 0.967717 0.570969 0.254471
C129  C     C_3   0.678136 0.530387 0.526760 -0.257644
C130  C     C_3   0.681515 0.468656 0.517305 -0.303009
C131  C     C_3   0.181441 0.030945 0.521342 -0.264545
C132  C     C_3   0.184221 0.969223 0.512848 -0.291848
C133  C     C_3   0.747283 0.550677 0.501965 -0.368665
C134  C     C_3   0.748672 0.448545 0.499602 -0.415818
C135  C     C_3   0.248686 0.050850 0.502526 -0.372567
C136  C     C_3   0.249018 0.948689 0.500515 -0.408706
C137  C     C_2   0.576171 0.849145 0.447557 0.726583
H1    H     H_    0.560585 0.888402 0.457317 0.147275
O53   O     O_2   0.629328 0.840466 0.392844 -0.413496
C138  C     C_2   0.608529 0.179826 0.390848 0.662717
H2    H     H_    0.618637 0.140008 0.375386 0.172980
O54   O     O_2   0.645049 0.209997 0.343354 -0.473577
C139  C     C_2   0.081684 0.346019 0.436279 0.724311
H3    H     H_    0.068519 0.385736 0.441884 0.143867
O55   O     O_2   0.134126 0.334470 0.382412 -0.416300
C140  C     C_2   0.087607 0.661187 0.429549 0.637354
H4    H     H_    0.086893 0.620022 0.432931 0.190197
O56   O     O_2   0.130524 0.679469 0.370719 -0.471290
C141  C     C_2   0.396411 0.671220 0.601841 0.514350
H5    H     H_    0.383076 0.651284 0.570918 0.097843
O57   O     O_2   0.380669 0.650893 0.659992 -0.480784
C142  C     C_2   0.402252 0.321638 0.598502 0.630820
H6    H     H_    0.352090 0.328264 0.627996 0.147130
O58   O     O_2   0.433622 0.359730 0.583954 -0.493981
C143  C     C_2   0.892257 0.176591 0.610566 0.519090
H7    H     H_    0.878478 0.154628 0.581592 0.096383
O59   O     O_2   0.874912 0.159689 0.671229 -0.476865
C144  C     C_2   0.918067 0.838105 0.565094 0.659726
H8    H     H_    0.869416 0.849771 0.594074 0.158582
O60   O     O_2   0.957250 0.871125 0.530065 -0.483337
C145  C     C_2   0.601444 0.671092 0.410398 0.557177
H9    H     H_    0.614301 0.659336 0.445924 0.049654
O61   O     O_2   0.621094 0.645783 0.354346 -0.345870
C146  C     C_2   0.559668 0.348988 0.480704 0.537847
H10   H     H_    0.587507 0.351836 0.501400 0.052356
O62   O     O_2   0.543550 0.389605 0.470884 -0.455425
C147  C     C_2   0.096200 0.166051 0.420821 0.559516
H11   H     H_    0.107524 0.155681 0.458358 0.040984
O63   O     O_2   0.114531 0.137917 0.367702 -0.353175
C148  C     C_2   0.078659 0.839532 0.435819 0.570564
H12   H     H_    0.108181 0.846948 0.453602 0.007939
O64   O     O_2   0.070976 0.875122 0.407034 -0.447916
C149  C     C_2   0.476709 0.660521 0.442189 0.439606
H13   H     H_    0.432600 0.655782 0.449304 0.090094
O65   O     O_2   0.503538 0.621645 0.437971 -0.455701
C150  C     C_2   0.477452 0.343118 0.433430 0.675048
H14   H     H_    0.510107 0.372461 0.396409 0.172726
O66   O     O_2   0.422052 0.350925 0.463390 -0.478488
C151  C     C_2   0.971461 0.157408 0.452572 0.441407
H15   H     H_    0.928009 0.152563 0.458033 0.082677
O67   O     O_2   0.995044 0.118809 0.455797 -0.469228
C152  C     C_2   0.991267 0.820661 0.397654 0.671907
H16   H     H_    0.028751 0.839171 0.346499 0.168489
O68   O     O_2   0.937974 0.836137 0.426848 -0.499349
N1    N     N_R   0.360901 0.739459 0.080105 0.262684
O69   O     O_R   0.323514 0.749088 0.151368 -0.309118
O70   O     O_R   0.332961 0.723460 0.051027 -0.174443
N2    N     N_R   0.367995 0.244007 0.069869 0.205800
O71   O     O_R   0.325436 0.237675 0.141289 -0.257975
O72   O     O_R   0.347965 0.237449 0.029252 -0.328421
N3    N     N_R   0.863789 0.274095 0.078635 0.271216
O73   O     O_R   0.834638 0.290974 0.146592 -0.337122
O74   O     O_R   0.829325 0.269363 0.054619 -0.169696
N4    N     N_R   0.869685 0.730991 0.069759 0.206024
O75   O     O_R   0.828067 0.723746 0.141171 -0.261497
O76   O     O_R   0.850869 0.719096 0.029143 -0.327592
C153  C     C_2   0.442643 0.768882 0.926850 0.530984
H17   H     H_    0.463281 0.769666 0.867543 0.076159
O77   O     O_2   0.400087 0.798719 0.966793 -0.466022
C154  C     C_2   0.445995 0.277020 0.913859 0.674900
H18   H     H_    0.404278 0.299203 0.932855 0.168225
O78   O     O_2   0.469255 0.252343 0.856632 -0.525236
C155  C     C_2   0.955961 0.297441 0.923195 0.563691
H19   H     H_    0.983841 0.302286 0.863010 0.048967
O79   O     O_2   0.916535 0.329803 0.961238 -0.408893
C156  C     C_2   0.943243 0.763714 0.913741 0.676871
H20   H     H_    0.898832 0.781314 0.932682 0.169899
O80   O     O_2   0.969905 0.738547 0.856518 -0.521085
N5    N     N_R   0.600041 0.822730 0.930882 0.279349
O81   O     O_R   0.642534 0.838049 0.862740 -0.256218
O82   O     O_R   0.615742 0.823888 0.976214 -0.200285
N6    N     N_R   0.566990 0.151132 0.919389 0.297345
O83   O     O_R   0.553115 0.105774 0.948358 -0.250906
O84   O     O_R   0.612450 0.153240 0.848348 -0.262384
N7    N     N_R   0.120566 0.298502 0.931316 0.273502
O85   O     O_R   0.165642 0.292761 0.860541 -0.289759
O86   O     O_R   0.137656 0.321853 0.968218 -0.157949
N8    N     N_R   0.080092 0.655839 0.919438 0.296940
O87   O     O_R   0.072339 0.611000 0.948432 -0.253139
O88   O     O_R   0.125179 0.659270 0.848403 -0.255073
C157  C     C_2   0.524932 0.847650 0.911466 0.603952
H21   H     H_    0.522018 0.837207 0.866553 0.025226
O89   O     O_2   0.527661 0.893055 0.920848 -0.384422
C158  C     C_2   0.474851 0.171576 0.930333 0.475915
H22   H     H_    0.424587 0.175085 0.965675 0.106849
O90   O     O_2   0.498711 0.152862 0.868594 -0.406779
C159  C     C_2   0.058083 0.348982 0.913270 0.600886
H23   H     H_    0.056706 0.347419 0.865672 0.019935
O91   O     O_2   0.070227 0.390047 0.927763 -0.392204
C160  C     C_2   0.985987 0.664323 0.930316 0.473810
H24   H     H_    0.935546 0.663411 0.965621 0.107339
O92   O     O_2   0.012442 0.644796 0.868605 -0.411252
C161  C     C_2   0.418947 0.836561 0.068059 0.576518
H25   H     H_    0.375590 0.826048 0.120079 0.136784
O93   O     O_2   0.417281 0.875701 0.040172 -0.413722
C162  C     C_2   0.419557 0.154400 0.081207 0.553302
H26   H     H_    0.419141 0.122923 0.049954 0.096810
O94   O     O_2   0.376984 0.155445 0.147982 -0.425820
C163  C     C_2   0.948021 0.345860 0.071551 0.584805
H27   H     H_    0.911381 0.348988 0.131048 0.133664
O95   O     O_2   0.949113 0.378578 0.032281 -0.438481
C164  C     C_2   0.932837 0.650027 0.081200 0.552376
H28   H     H_    0.936814 0.616688 0.049930 0.095377
O96   O     O_2   0.890227 0.649787 0.147977 -0.425206
N9    N     N_R   0.499734 0.843517 0.081657 0.279619
O97   O     O_R   0.468036 0.842441 0.154001 -0.275529
O98   O     O_R   0.525590 0.887094 0.050944 -0.173245
N10   N     N_R   0.513671 0.165159 0.070744 0.270276
O99   O     O_R   0.574354 0.160096 0.028459 -0.201164
O100  O     O_R   0.483521 0.147266 0.138395 -0.210336
N11   N     N_R   0.026150 0.323803 0.084741 0.255593
O101  O     O_R   0.013645 0.302371 0.144705 -0.281293
O102  O     O_R   0.046195 0.370596 0.073525 -0.193051
N12   N     N_R   0.024673 0.672779 0.070791 0.270322
O103  O     O_R   0.085679 0.673140 0.028531 -0.202296
O104  O     O_R   0.996912 0.655555 0.138448 -0.213888
C165  C     C_2   0.565145 0.657699 0.934641 0.422433
H29   H     H_    0.536997 0.628496 0.974779 0.081452
O105  O     O_2   0.598998 0.644328 0.869233 -0.460270
C166  C     C_2   0.613043 0.319288 0.915602 0.424121
H30   H     H_    0.621803 0.330886 0.863631 0.143047
O106  O     O_2   0.639635 0.343146 0.936722 -0.419933
C167  C     C_2   0.037551 0.151947 0.929659 0.368834
H31   H     H_    0.996745 0.128855 0.966263 0.029119
O107  O     O_2   0.071685 0.138244 0.864415 -0.429599
C168  C     C_2   0.102990 0.828393 0.915629 0.425430
H32   H     H_    0.110377 0.837525 0.863619 0.143959
O108  O     O_2   0.125978 0.857084 0.936790 -0.419154
N13   N     N_R   0.513741 0.831493 0.574669 0.198372
O109  O     O_R   0.458124 0.844644 0.632069 -0.303138
O110  O     O_R   0.559967 0.841928 0.578600 -0.266845
N14   N     N_R   0.545924 0.150554 0.512802 0.209971
O111  O     O_R   0.576678 0.152091 0.541602 -0.342534
O112  O     O_R   0.536460 0.104829 0.498639 -0.195749
N15   N     N_R   0.017917 0.335069 0.565041 0.194743
O113  O     O_R   0.963061 0.351159 0.620707 -0.304868
O114  O     O_R   0.064539 0.345437 0.568076 -0.263888
N16   N     N_R   0.029239 0.660334 0.558316 0.206567
O115  O     O_R   0.065692 0.669137 0.578324 -0.372035
O116  O     O_R   0.008409 0.613828 0.569165 -0.191840
N17   N     N_R   0.637485 0.718268 0.918399 0.306682
O117  O     O_R   0.665645 0.684323 0.931684 -0.180368
O118  O     O_R   0.673579 0.743549 0.856718 -0.253199
N18   N     N_R   0.631377 0.235035 0.930265 0.282450
O119  O     O_R   0.670792 0.225158 0.859255 -0.291379
O120  O     O_R   0.655598 0.231604 0.966723 -0.164587
N19   N     N_R   0.121883 0.190041 0.921813 0.309405
O121  O     O_R   0.135109 0.155080 0.951924 -0.252575
O122  O     O_R   0.164462 0.197164 0.850728 -0.221626
N20   N     N_R   0.132474 0.748436 0.930365 0.282195
O123  O     O_R   0.173191 0.739155 0.859371 -0.292344
O124  O     O_R   0.156769 0.750837 0.966847 -0.166314
C169  C     C_2   0.515335 0.670616 0.087708 0.391440
H33   H     H_    0.469585 0.661513 0.138073 0.133550
O125  O     O_2   0.558564 0.641805 0.069297 -0.408300
C170  C     C_2   0.510795 0.334611 0.067600 0.392851
H34   H     H_    0.525093 0.364628 0.027896 0.093445
O126  O     O_2   0.482651 0.347573 0.132901 -0.472466
C171  C     C_2   0.985626 0.151981 0.081943 0.412729
H35   H     H_    0.012633 0.117849 0.053911 0.133516
O127  O     O_2   0.937986 0.147147 0.145517 -0.448440
C172  C     C_2   0.998874 0.839999 0.067602 0.390194
H36   H     H_    0.009173 0.868974 0.027880 0.091919
O128  O     O_2   0.968915 0.853449 0.132903 -0.473459
C173  C     C_2   0.470884 0.683420 0.913475 0.333947
H37   H     H_    0.513882 0.670598 0.862137 0.156183
O129  O     O_2   0.422321 0.661785 0.932954 -0.429854
C174  C     C_2   0.497431 0.339199 0.933205 0.297277
H38   H     H_    0.481351 0.369416 0.973363 0.133048
O130  O     O_2   0.530984 0.352144 0.867622 -0.502228
C175  C     C_2   0.954465 0.209581 0.913119 0.328095
H39   H     H_    0.992580 0.190730 0.863008 0.150433
O131  O     O_2   0.901254 0.202038 0.931591 -0.433252
C176  C     C_2   0.985675 0.833596 0.933149 0.297735
H40   H     H_    0.965431 0.864062 0.973305 0.132511
O132  O     O_2   0.017503 0.846527 0.867563 -0.502692
C177  C     C_2   0.417494 0.666408 0.066686 0.456446
H41   H     H_    0.439656 0.635803 0.026969 0.090781
O133  O     O_2   0.380169 0.654109 0.132091 -0.456309
C178  C     C_2   0.394119 0.325601 0.085015 0.459873
H42   H     H_    0.389144 0.336923 0.135054 0.133193
O134  O     O_2   0.367415 0.351458 0.066052 -0.456809
C179  C     C_2   0.890960 0.188118 0.067207 0.568649
H43   H     H_    0.904864 0.157278 0.028584 0.064758
O135  O     O_2   0.847291 0.179641 0.132231 -0.415696
C180  C     C_2   0.884422 0.816380 0.084940 0.460891
H44   H     H_    0.877715 0.830309 0.134998 0.132743
O136  O     O_2   0.854553 0.837067 0.065942 -0.455024
N21   N     N_R   0.561906 0.749942 0.071547 0.294558
O137  O     O_R   0.530519 0.763269 0.141366 -0.284323
O138  O     O_R   0.621732 0.743705 0.038813 -0.155907
N22   N     N_R   0.556060 0.264621 0.084407 0.307461
O139  O     O_R   0.601418 0.293058 0.073439 -0.178004
O140  O     O_R   0.527499 0.236259 0.143609 -0.251490
N23   N     N_R   0.053409 0.214943 0.073228 0.283537
O141  O     O_R   0.032384 0.202832 0.141225 -0.238458
O142  O     O_R   0.108814 0.235487 0.032165 -0.194983
N24   N     N_R   0.053117 0.777985 0.084481 0.306638
O143  O     O_R   0.094242 0.811580 0.073548 -0.181543
O144  O     O_R   0.028401 0.750017 0.143673 -0.260291
N25   N     N_R   0.676414 0.952629 0.453183 0.254599
O145  O     O_R   0.647110 0.911592 0.489185 -0.291034
O146  O     O_R   0.664976 0.968332 0.406705 -0.223432
N26   N     N_R   0.676706 0.053550 0.459676 0.262767
O147  O     O_R   0.621768 0.036774 0.513621 -0.190989
O148  O     O_R   0.677304 0.087665 0.416929 -0.266099
N27   N     N_R   0.189437 0.452253 0.436606 0.258446
O149  O     O_R   0.154018 0.414071 0.475431 -0.284344
O150  O     O_R   0.186356 0.466760 0.382795 -0.217949
N28   N     N_R   0.186988 0.552434 0.445796 0.245445
O151  O     O_R   0.130912 0.535067 0.494928 -0.231449
O152  O     O_R   0.191884 0.585933 0.399579 -0.258401
N29   N     N_R   0.786273 0.946384 0.364548 0.243163
O153  O     O_R   0.771102 0.911392 0.336128 -0.216229
O154  O     O_R   0.843123 0.963755 0.320518 -0.235879
N30   N     N_R   0.784163 0.047524 0.359106 0.259843
O155  O     O_R   0.775643 0.030965 0.310295 -0.201903
O156  O     O_R   0.816775 0.089075 0.340311 -0.251953
N31   N     N_R   0.299921 0.446393 0.361559 0.239947
O157  O     O_R   0.290686 0.410015 0.329059 -0.231582
O158  O     O_R   0.356403 0.464782 0.323740 -0.236840
N32   N     N_R   0.296841 0.547764 0.355172 0.259799
O159  O     O_R   0.295811 0.530307 0.300892 -0.194452
O160  O     O_R   0.325804 0.590839 0.341298 -0.280755
N33   N     N_R   0.630192 0.948387 0.605564 0.242572
O161  O     O_R   0.585202 0.974205 0.612538 -0.157246
O162  O     O_R   0.618228 0.900552 0.624062 -0.322359
N34   N     N_R   0.633378 0.056016 0.618678 0.261825
O163  O     O_R   0.628961 0.100850 0.597883 -0.324745
O164  O     O_R   0.587638 0.043599 0.687094 -0.260611
N35   N     N_R   0.128716 0.448190 0.596581 0.248281
O165  O     O_R   0.086398 0.473683 0.597244 -0.153323
O166  O     O_R   0.115714 0.400560 0.615730 -0.314847
N36   N     N_R   0.130305 0.555263 0.609643 0.265562
O167  O     O_R   0.128514 0.599327 0.585182 -0.306849
O168  O     O_R   0.081114 0.543604 0.676517 -0.253087
C181  C     C_2   0.823900 0.951162 0.539394 0.600483
H45   H     H_    0.803905 0.971264 0.590582 0.133940
O169  O     O_2   0.855341 0.914081 0.530041 -0.458245
C182  C     C_2   0.844411 0.052541 0.515629 0.422731
H46   H     H_    0.821638 0.082491 0.556180 0.122933
O170  O     O_2   0.895435 0.039153 0.499529 -0.433181
C183  C     C_2   0.311636 0.453083 0.558069 0.604282
H47   H     H_    0.288582 0.475206 0.607885 0.120116
O171  O     O_2   0.338542 0.415393 0.557710 -0.421978
C184  C     C_2   0.336394 0.553322 0.529983 0.410127
H48   H     H_    0.309433 0.581062 0.573154 0.131438
O172  O     O_2   0.386633 0.541719 0.517620 -0.442351
N37   N     N_R   0.872078 0.944110 0.410619 0.307652
O173  O     O_R   0.928103 0.956221 0.390580 -0.169973
O174  O     O_R   0.867337 0.899915 0.387937 -0.320073
N38   N     N_R   0.869717 0.052388 0.396075 0.282725
O175  O     O_R   0.883817 0.100513 0.390676 -0.382248
O176  O     O_R   0.904482 0.025933 0.335311 -0.161831
N39   N     N_R   0.371681 0.443417 0.427076 0.307703
O177  O     O_R   0.424729 0.454748 0.416170 -0.202570
O178  O     O_R   0.370058 0.400264 0.399533 -0.323276
N40   N     N_R   0.371233 0.551534 0.406248 0.285085
O179  O     O_R   0.383661 0.599985 0.400988 -0.393989
O180  O     O_R   0.412974 0.524145 0.349384 -0.160741
N41   N     N_R   0.420001 0.842951 0.552730 0.239160
O181  O     O_R   0.434079 0.890566 0.552061 -0.200893
O182  O     O_R   0.361020 0.833008 0.584241 -0.304128
N42   N     N_R   0.441255 0.152341 0.522358 0.215737
O183  O     O_R   0.437487 0.108990 0.497036 -0.137259
O184  O     O_R   0.422652 0.151050 0.590759 -0.303187
N43   N     N_R   0.925749 0.345480 0.541090 0.241995
O185  O     O_R   0.942629 0.392917 0.534539 -0.202430
O186  O     O_R   0.866075 0.337034 0.575299 -0.302932
N44   N     N_R   0.918297 0.665106 0.583162 0.199357
O187  O     O_R   0.897065 0.619822 0.586422 -0.146908
O188  O     O_R   0.910258 0.678979 0.644197 -0.324950
C185  C     C_2   0.685472 0.951321 0.655613 0.532548
H49   H     H_    0.650749 0.969634 0.708656 0.171512
O189  O     O_2   0.711564 0.914197 0.657995 -0.513047
C186  C     C_2   0.709340 0.055309 0.639428 0.337704
H50   H     H_    0.692192 0.093284 0.661502 0.198458
O190  O     O_2   0.735679 0.033816 0.662267 -0.585755
C187  C     C_2   0.175520 0.451071 0.656825 0.501924
H51   H     H_    0.139741 0.470104 0.708652 0.174390
O191  O     O_2   0.196492 0.411789 0.662636 -0.520607
C188  C     C_2   0.197927 0.556558 0.642847 0.335575
H52   H     H_    0.182447 0.595536 0.659945 0.192522
O192  O     O_2   0.216099 0.535322 0.675408 -0.581146
N45   N     N_R   0.866989 0.550172 0.376145 0.254210
O193  O     O_R   0.906914 0.542483 0.304507 -0.181666
O194  O     O_R   0.888482 0.572597 0.408475 -0.200194
N46   N     N_R   0.869450 0.452415 0.397855 0.258694
O195  O     O_R   0.901842 0.416745 0.348537 -0.181035
O196  O     O_R   0.898030 0.476521 0.420708 -0.217940
N47   N     N_R   0.371214 0.049890 0.383842 0.257701
O197  O     O_R   0.414919 0.041247 0.313276 -0.174406
O198  O     O_R   0.388164 0.074131 0.419888 -0.207533
N48   N     N_R   0.370636 0.952211 0.406177 0.256424
O199  O     O_R   0.405469 0.917484 0.356266 -0.166830
O200  O     O_R   0.395432 0.975575 0.434362 -0.223746
N49   N     N_R   0.783560 0.549021 0.367386 0.242197
O201  O     O_R   0.754073 0.522345 0.347748 -0.244699
O202  O     O_R   0.800012 0.594871 0.340393 -0.266841
N50   N     N_R   0.807851 0.446242 0.353619 0.232609
O203  O     O_R   0.790714 0.399537 0.355875 -0.395638
O204  O     O_R   0.848964 0.463974 0.286659 -0.190258
N51   N     N_R   0.293607 0.049577 0.364490 0.242653
O205  O     O_R   0.266298 0.023434 0.341457 -0.243216
O206  O     O_R   0.313076 0.094843 0.336220 -0.254036
N52   N     N_R   0.315603 0.947012 0.353172 0.241023
O207  O     O_R   0.296252 0.901393 0.354048 -0.396742
O208  O     O_R   0.360285 0.964116 0.287108 -0.172520
N53   N     N_R   0.815852 0.554178 0.546798 0.264558
O209  O     O_R   0.865300 0.529944 0.530593 -0.152986
O210  O     O_R   0.811971 0.601693 0.565378 -0.292534
N54   N     N_R   0.808483 0.447989 0.562258 0.270922
O211  O     O_R   0.841071 0.409598 0.520705 -0.239789
O212  O     O_R   0.809931 0.456680 0.619046 -0.158677
N55   N     N_R   0.313252 0.052595 0.553811 0.264747
O213  O     O_R   0.357733 0.026732 0.548064 -0.148188
O214  O     O_R   0.313237 0.101155 0.565453 -0.313049
N56   N     N_R   0.300901 0.945963 0.572231 0.272435
O215  O     O_R   0.333228 0.906979 0.532098 -0.248555
O216  O     O_R   0.298118 0.953358 0.632206 -0.158491
C189  C     C_2   0.624757 0.546060 0.608379 0.554891
H53   H     H_    0.611127 0.523121 0.655028 0.160765
O217  O     O_2   0.594016 0.584943 0.624485 -0.442244
C190  C     C_2   0.620428 0.445306 0.586347 0.339952
H54   H     H_    0.618912 0.420623 0.625770 0.203478
O218  O     O_2   0.569429 0.454787 0.599213 -0.503281
C191  C     C_2   0.125563 0.047374 0.601299 0.564296
H55   H     H_    0.112499 0.026739 0.649430 0.165428
O219  O     O_2   0.091743 0.083651 0.613938 -0.458960
C192  C     C_2   0.121360 0.946688 0.580097 0.334016
H56   H     H_    0.117287 0.921349 0.620519 0.204287
O220  O     O_2   0.071850 0.957203 0.589695 -0.501418
C193  C     C_2   0.653083 0.555616 0.486800 0.698262
H57   H     H_    0.609128 0.542164 0.498501 0.149468
O221  O     O_2   0.675124 0.594412 0.450461 -0.564737
C194  C     C_2   0.675521 0.445730 0.457622 0.634199
H58   H     H_    0.682041 0.405196 0.447760 0.081191
O222  O     O_2   0.655147 0.467958 0.428108 -0.453819
C195  C     C_2   0.161350 0.056271 0.476026 0.690393
H59   H     H_    0.119043 0.042897 0.483371 0.152293
O223  O     O_2   0.185096 0.095093 0.440153 -0.560495
C196  C     C_2   0.181568 0.945848 0.450855 0.623293
H60   H     H_    0.185603 0.904969 0.443836 0.060697
O224  O     O_2   0.167629 0.968535 0.414914 -0.459193
N57   N     N_R   0.710547 0.549825 0.642474 0.217175
O225  O     O_R   0.718069 0.534888 0.692615 -0.171066
O226  O     O_R   0.684971 0.594380 0.654853 -0.334740
N58   N     N_R   0.699845 0.444403 0.637925 0.193986
O227  O     O_R   0.704967 0.397334 0.651661 -0.309669
O228  O     O_R   0.650705 0.468379 0.692248 -0.350451
N59   N     N_R   0.206830 0.050666 0.645206 0.216547
O229  O     O_R   0.211390 0.035791 0.697737 -0.170383
O230  O     O_R   0.181537 0.095117 0.655815 -0.334511
N60   N     N_R   0.192546 0.945306 0.641030 0.190475
O231  O     O_R   0.194751 0.897996 0.656460 -0.309895
O232  O     O_R   0.143949 0.970573 0.693870 -0.344982
N61   N     N_R   0.490142 0.831079 0.422817 0.159966
O233  O     O_R   0.545101 0.824489 0.360212 -0.332798
O234  O     O_R   0.454086 0.864274 0.421926 -0.178504
N62   N     N_R   0.500786 0.176047 0.392822 0.209735
O235  O     O_R   0.556266 0.176286 0.329336 -0.343944
O236  O     O_R   0.459471 0.152849 0.388570 -0.165229
N63   N     N_R   0.995229 0.326344 0.412961 0.157865
O237  O     O_R   0.049593 0.315733 0.351516 -0.332104
O238  O     O_R   0.961846 0.359934 0.407678 -0.182180
N64   N     N_R   0.970091 0.654586 0.451580 0.206644
O239  O     O_R   0.020031 0.634275 0.392880 -0.341239
O240  O     O_R   0.918258 0.637073 0.465907 -0.187262
N65   N     N_R   0.621140 0.749422 0.353455 0.274565
O241  O     O_R   0.622927 0.754235 0.294134 -0.167366
O242  O     O_R   0.676656 0.750561 0.339258 -0.298404
N66   N     N_R   0.621898 0.302894 0.372733 0.216317
O243  O     O_R   0.672782 0.297476 0.368963 -0.333038
O244  O     O_R   0.627414 0.333828 0.323478 -0.309120
N67   N     N_R   0.120762 0.241104 0.354904 0.273201
O245  O     O_R   0.123675 0.241634 0.294536 -0.162540
O246  O     O_R   0.175796 0.242376 0.342022 -0.301968
N68   N     N_R   0.127315 0.773085 0.354023 0.223508
O247  O     O_R   0.179135 0.772208 0.348787 -0.318590
O248  O     O_R   0.134378 0.787620 0.293451 -0.302716
C197  C     C_2   0.509713 0.726134 0.358227 0.571434
H61   H     H_    0.488051 0.758177 0.351883 0.136538
O249  O     O_2   0.539044 0.697231 0.304618 -0.397062
C198  C     C_2   0.528461 0.274614 0.356004 0.515746
H62   H     H_    0.576951 0.263846 0.315308 0.211271
O250  O     O_2   0.494186 0.272339 0.335870 -0.474647
C199  C     C_2   0.007845 0.218674 0.361801 0.581781
H63   H     H_    0.986387 0.249709 0.353067 0.125285
O251  O     O_2   0.035984 0.187452 0.311124 -0.384873
C200  C     C_2   0.026644 0.736699 0.358890 0.541712
H64   H     H_    0.067178 0.712542 0.334602 0.194947
O252  O     O_2   0.998081 0.734280 0.331230 -0.458325
C201  C     C_2   0.511043 0.663911 0.571783 0.437405
H65   H     H_    0.510573 0.637269 0.535605 0.110320
O253  O     O_2   0.521939 0.646290 0.613802 -0.436763
C202  C     C_2   0.486453 0.303838 0.631637 0.455687
H66   H     H_    0.524322 0.329884 0.612616 0.114807
O254  O     O_2   0.440228 0.310851 0.695958 -0.431528
C203  C     C_2   0.005577 0.168415 0.583728 0.461761
H67   H     H_    0.004517 0.139531 0.550425 0.107078
O255  O     O_2   0.013688 0.153671 0.629551 -0.425194
C204  C     C_2   0.004145 0.831960 0.597969 0.485673
H68   H     H_    0.049389 0.849878 0.568998 0.089485
O256  O     O_2   0.961429 0.854943 0.653049 -0.422286
C205  C     C_2   0.478204 0.737460 0.650664 0.624853
H69   H     H_    0.434504 0.724840 0.701761 0.092462
O257  O     O_2   0.515274 0.759246 0.657614 -0.490541
C206  C     C_2   0.483180 0.216867 0.635875 0.701153
H70   H     H_    0.522961 0.211935 0.637934 0.068016
O258  O     O_2   0.435778 0.193233 0.681835 -0.380700
C207  C     C_2   0.978092 0.246905 0.651373 0.628599
H71   H     H_    0.932946 0.239449 0.704119 0.090244
O259  O     O_2   0.018196 0.266242 0.655096 -0.492502
C208  C     C_2   0.979985 0.751340 0.647040 0.674521
H72   H     H_    0.019159 0.740050 0.647022 0.108527
O260  O     O_2   0.929258 0.750675 0.708296 -0.398375
C209  C     C_2   0.376424 0.755597 0.647298 0.582125
H73   H     H_    0.385065 0.782927 0.675998 0.123743
O261  O     O_2   0.321129 0.750292 0.671997 -0.450698
C210  C     C_2   0.369202 0.238427 0.641847 0.562444
H74   H     H_    0.344560 0.212752 0.629073 0.094620
O262  O     O_2   0.343797 0.248212 0.707768 -0.404510
C211  C     C_2   0.876346 0.263006 0.646196 0.580394
H75   H     H_    0.886058 0.292154 0.671749 0.124481
O263  O     O_2   0.820985 0.258668 0.670674 -0.459943
C212  C     C_2   0.869524 0.768428 0.645919 0.572046
H76   H     H_    0.840826 0.738168 0.647519 0.103257
O264  O     O_2   0.846169 0.793933 0.702700 -0.410177

loop_
_geom_bond_atom_site_label_1
_geom_bond_atom_site_label_2
_geom_bond_distance
_ccdc_geom_bond_type
C64   C76   1.633913 S    
N12   O104  1.305110 A    
N31   O157  1.304567 A    
Zn5   O21   1.985031 S    
C129  C189  1.554702 S    
N37   O173  1.305431 A    
C143  H7    1.074848 S    
C32   N44   1.510875 S    
N13   O109  1.297379 A    
C197  H61   1.076013 S    
C36   C148  1.537279 S    
C176  H40   1.076301 S    
C40   C204  1.551727 S    
N23   O142  1.297124 A    
C33   N65   1.508087 S    
C86   C90   1.640448 S    
C108  N32   1.503661 S    
N21   O138  1.299275 A    
C30   N62   1.541684 S    
C27   C31   1.628237 S    
C30   C46   1.678077 S    
C127  C135  1.661859 S    
C92   C168  1.535940 S    
C155  H19   1.087534 S    
C161  H25   1.075537 S    
C28   C140  1.542142 S    
C150  H14   1.085749 S    
O46   C2    1.294261 A    
C156  H20   1.087267 S    
N57   O225  1.304741 A    
C13   C117  1.525609 S    
C81   C85   1.638436 S    
C208  H72   1.075999 S    
C166  H30   1.080563 S    
C54   C210  1.539569 S    
C78   C82   1.634885 S    
C132  C196  1.546316 S    
O34   C22   1.279237 A    
C84   C88   1.640777 S    
C174  O130  1.224465 D    
N66   O243  1.302815 A    
N47   O198  1.291932 A    
N8    O88   1.301075 A    
Zn3   O3    1.969378 S    
C83   C87   1.633217 S    
C128  C136  1.652602 S    
Zn16  O28   1.987750 S    
C57   C173  1.539763 S    
O28   C24   1.292526 A    
C144  O60   1.216143 D    
C123  N47   1.494788 S    
C31   N63   1.505917 S    
C33   C41   1.654579 S    
C85   C169  1.535836 S    
C131  C132  1.633002 S    
C205  O257  1.218764 D    
Zn4   O40   1.983947 S    
C34   C146  1.544330 S    
C207  O259  1.219324 D    
C62   C66   1.634637 S    
C123  C135  1.664564 S    
C40   C56   1.627731 S    
O11   C7    1.294633 A    
C206  O258  1.217891 D    
C206  H70   1.085477 S    
C68   C84   1.627006 S    
N58   O228  1.297056 A    
C108  C120  1.656082 S    
C37   C201  1.548357 S    
C97   C101  1.194209 T    
C148  O64   1.220091 D    
C47   C55   1.647217 S    
C109  C185  1.550433 S    
C123  C124  1.620615 S    
C26   C138  1.541950 S    
N14   O111  1.298014 A    
O42   C14   1.285232 A    
N53   O210  1.301747 A    
C200  H64   1.075711 S    
C99   C103  1.194398 T    
N41   O181  1.304929 A    
C52   C200  1.539260 S    
C85   N21   1.497583 S    
N10   O99   1.297147 A    
Zn15  O3    1.970771 S    
C115  C116  1.643164 S    
C145  H9    1.074394 S    
N44   O188  1.294384 A    
O16   C12   1.291008 A    
C56   C144  1.553965 S    
C107  C108  1.625728 S    
Zn16  O4    1.963824 S    
N18   O119  1.302015 A    
Zn12  O4    1.970614 S    
C202  O254  1.224755 D    
N60   O231  1.304394 A    
C124  C136  1.650720 S    
Zn13  O5    1.900869 S    
C70   C94   1.194964 T    
C59   C75   1.634088 S    
N6    O83   1.304184 A    
C128  N56   1.484724 S    
C60   C76   1.639799 S    
C109  C110  1.645766 S    
C61   C65   1.640766 S    
C166  O106  1.222067 D    
Zn6   O14   1.983843 S    
C154  O78   1.220196 D    
Zn7   O3    1.968927 S    
N45   O194  1.290326 A    
N24   O144  1.299306 A    
C160  H24   1.072712 S    
C40   C208  1.546979 S    
C63   C75   1.632496 S    
N34   O163  1.300279 A    
N1    O70   1.303736 A    
C75   C99   1.472818 S    
C57   C153  1.542288 S    
O25   C21   1.284889 A    
C105  N29   1.507118 S    
C17   C48   1.539472 S    
C52   C152  1.542018 S    
N3    O74   1.304329 A    
N4    O76   1.299180 A    
C88   N24   1.495410 S    
C125  N53   1.488148 S    
C194  H58   1.082730 S    
O24   C20   1.293189 A    
Zn11  O19   1.985665 S    
C29   N41   1.490794 S    
C182  H46   1.073178 S    
C53   C209  1.548891 S    
Zn10  O2    1.970614 S    
C158  O90   1.223237 D    
C74   C90   1.632740 S    
C181  H45   1.067499 S    
N32   O160  1.298439 A    
C92   N20   1.498100 S    
C80   C180  1.535581 S    
C180  H44   1.080932 S    
C127  C128  1.656553 S    
C110  C118  1.662533 S    
C61   C73   1.624238 S    
C78   C178  1.535639 S    
N54   O212  1.304831 A    
C125  C126  1.649392 S    
C37   C53   1.621719 S    
Zn7   O23   1.985031 S    
Zn8   O24   1.987003 S    
C80   N4    1.502432 S    
C201  H65   1.071061 S    
N38   O176  1.296325 A    
C152  O68   1.218445 D    
C209  O261  1.224867 D    
C126  C134  1.650208 S    
C151  O67   1.217667 D    
C90   C166  1.535920 S    
N11   O102  1.305490 A    
N29   O153  1.304790 A    
O29   C17   1.296115 A    
C203  H67   1.071490 S    
C39   C55   1.623954 S    
C36   C52   1.635037 S    
C122  N50   1.499377 S    
C172  H36   1.075200 S    
C125  C133  1.655121 S    
C159  O91   1.222581 D    
N61   O233  1.295806 A    
N62   O235  1.299225 A    
Zn12  O52   1.900965 S    
C105  C117  1.665032 S    
N68   O248  1.304162 A    
O22   C18   1.293698 A    
C86   N22   1.495427 S    
C126  N58   1.505879 S    
N26   O147  1.294856 A    
C31   N43   1.490331 S    
N35   O166  1.304645 A    
C55   C211  1.547043 S    
N1    O69   1.301796 A    
C140  O56   1.213565 D    
N9    O98   1.303734 A    
Zn13  O41   1.982004 S    
C76   C92   1.632712 S    
C77   C177  1.539479 S    
O50   C6    1.295982 A    
C210  H74   1.084370 S    
C149  H13   1.084624 S    
Zn16  O44   1.985456 S    
C20   C45   1.521399 S    
C165  O105  1.223020 D    
Zn1   O37   1.983800 S    
C146  H10   1.075412 S    
C91   C167  1.543866 S    
Zn2   O34   1.985076 S    
Zn3   O39   1.983800 S    
N27   O149  1.294826 A    
C210  O262  1.223947 D    
C178  H42   1.080940 S    
N2    O72   1.299203 A    
C130  C134  1.659023 S    
C129  C193  1.539402 S    
Zn6   O22   1.987003 S    
C116  N40   1.498600 S    
C184  H48   1.072350 S    
C132  C136  1.654949 S    
C162  O94   1.221133 D    
C59   C155  1.543433 S    
N5    O81   1.305961 A    
C62   N6    1.490959 S    
C58   C154  1.540565 S    
C165  H29   1.075667 S    
C142  H6    1.088368 S    
C50   C150  1.530238 S    
C185  H49   1.086772 S    
Zn9   O49   1.902532 S    
Zn10  O50   1.900965 S    
N49   O202  1.304505 A    
C87   C91   1.633635 S    
C27   C43   1.643147 S    
C88   C92   1.640430 S    
N42   O183  1.300715 A    
O49   C5    1.294323 A    
C36   C44   1.654160 S    
C168  H32   1.080575 S    
C122  C134  1.648255 S    
C56   C212  1.544199 S    
N65   O242  1.303210 A    
C141  H5    1.074695 S    
C48   C52   1.641838 S    
O5    C1    1.296609 A    
C18   C47   1.520904 S    
O26   C22   1.288766 A    
O31   C19   1.302548 A    
C79   C83   1.637504 S    
C29   N61   1.504467 S    
C193  H57   1.086071 S    
O43   C15   1.290424 A    
C74   C98   1.470897 S    
N16   O116  1.305003 A    
C199  H63   1.077139 S    
C64   C68   1.634576 S    
C121  N45   1.492958 S    
C38   C54   1.624180 S    
N46   O196  1.295712 A    
C189  H53   1.063903 S    
Zn5   O45   1.901736 S    
Zn2   O10   1.901633 S    
C46   C50   1.643769 S    
N38   O175  1.306137 A    
N20   O124  1.299111 A    
C153  O77   1.218747 D    
Zn7   O47   1.901736 S    
C131  C195  1.542762 S    
Zn8   O48   1.899546 S    
C45   C49   1.640336 S    
N30   O155  1.305026 A    
N19   O122  1.301219 A    
C38   C206  1.542582 S    
N40   O179  1.305357 A    
C39   C203  1.549456 S    
N15   O114  1.299517 A    
N56   O216  1.305066 A    
N11   O101  1.299394 A    
O51   C7    1.294129 A    
N17   O118  1.299156 A    
C58   C174  1.544567 S    
N51   O205  1.299028 A    
C25   C29   1.631995 S    
O8    C4    1.294892 A    
C87   N23   1.495474 S    
C86   C170  1.540984 S    
C179  O135  1.222952 D    
C37   C41   1.661220 S    
C4    C69   1.411904 S    
C35   C147  1.528406 S    
C39   C43   1.660862 S    
C80   C84   1.634909 S    
N22   O139  1.305425 A    
N64   O239  1.298942 A    
C9    C133  1.529298 S    
C33   C145  1.527341 S    
N55   O213  1.297485 A    
C143  O59   1.224306 D    
C26   N14   1.504775 S    
N4    O75   1.303521 A    
O52   C8    1.296002 A    
C110  C186  1.563622 S    
O40   C12   1.282227 A    
Zn13  O1    1.970771 S    
C27   C139  1.546526 S    
Zn14  O6    1.902434 S    
Zn3   O11   1.899448 S    
N52   O207  1.300256 A    
N25   O145  1.294772 A    
Zn15  O27   1.986424 S    
C57   C77   1.625621 S    
N21   O137  1.301247 A    
C67   N11   1.492554 S    
C114  C182  1.547950 S    
C28   C32   1.637858 S    
N62   O236  1.299597 A    
O9    C5    1.294650 A    
C191  O219  1.222147 D    
C79   N3    1.493953 S    
C129  C130  1.634798 S    
C62   C74   1.633897 S    
C208  O260  1.219661 D    
C107  C119  1.664955 S    
C183  H47   1.065478 S    
C107  N31   1.505482 S    
N63   O237  1.296197 A    
O13   C9    1.298567 A    
N66   O244  1.304450 A    
C144  H8    1.085488 S    
N7    O85   1.302231 A    
C39   C207  1.554976 S    
O18   C14   1.286282 A    
O38   C10   1.281647 A    
N36   O167  1.296422 A    
C211  O263  1.225141 D    
C212  O264  1.224337 D    
Zn1   O9    1.899448 S    
C25   C41   1.641592 S    
N50   O203  1.300601 A    
C156  O80   1.220198 D    
C34   N66   1.492385 S    
C60   C176  1.544522 S    
Zn9   O29   1.987748 S    
C205  H69   1.086313 S    
C192  O220  1.224690 D    
N37   O174  1.301895 A    
Zn11  O31   1.987748 S    
C195  H59   1.086016 S    
C32   C48   1.668723 S    
C65   N9    1.488598 S    
Zn12  O32   1.986422 S    
Zn13  O25   1.986424 S    
C175  H39   1.081900 S    
C113  C114  1.641475 S    
C89   N17   1.494831 S    
C169  O125  1.222070 D    
Zn11  O3    1.963669 S    
C192  H56   1.074413 S    
N17   O117  1.305348 A    
C160  O92   1.223245 D    
C14   C118  1.516797 S    
C121  N49   1.497384 S    
N14   O112  1.304304 A    
C173  O129  1.222767 D    
C31   C47   1.648349 S    
N53   O209  1.298138 A    
C200  O252  1.224081 D    
C111  C119  1.651853 S    
C26   C30   1.639289 S    
C68   C164  1.548083 S    
C35   N67   1.505597 S    
C109  C117  1.654676 S    
C35   C43   1.651483 S    
C114  C118  1.641195 S    
C30   N42   1.502247 S    
N64   O240  1.291017 A    
C112  C120  1.662535 S    
O35   C23   1.293174 A    
C113  N37   1.493832 S    
C171  H35   1.085189 S    
C138  H2    1.086143 S    
N33   O162  1.305714 A    
C37   C205  1.556172 S    
N60   O232  1.296748 A    
C147  H11   1.075901 S    
O32   C20   1.279749 A    
C1    C72   1.411983 S    
N41   O182  1.299733 A    
N12   O103  1.297149 A    
C82   C86   1.640763 S    
C2    C71   1.411509 S    
N45   O193  1.303380 A    
C198  H62   1.079283 S    
C131  C135  1.647971 S    
N57   O226  1.300097 A    
C77   N1    1.495934 S    
C65   C161  1.539483 S    
C82   C94   1.469820 S    
C91   N19   1.490392 S    
C128  N60   1.506184 S    
N13   O110  1.301943 A    
N34   O164  1.305625 A    
C3    C70   1.411954 S    
N48   O200  1.296145 A    
C161  O93   1.219279 D    
Zn14  O42   1.985456 S    
C35   C51   1.652131 S    
C163  H27   1.084451 S    
O7    C3    1.296609 A    
C105  N25   1.498343 S    
N59   O230  1.299065 A    
Zn2   O38   1.983947 S    
O33   C21   1.294049 A    
C159  H23   1.080678 S    
N67   O246  1.303406 A    
O19   C15   1.285784 A    
C60   C80   1.639707 S    
C152  H16   1.085769 S    
C105  C106  1.628668 S    
C58   C74   1.639789 S    
N39   O177  1.305151 A    
C47   C51   1.639028 S    
C125  N57   1.493373 S    
C182  O170  1.222936 D    
N25   O146  1.304931 A    
O37   C9    1.281023 A    
N35   O165  1.296920 A    
C115  C119  1.653874 S    
O39   C11   1.285206 A    
C38   C202  1.551129 S    
C139  H3    1.086471 S    
C171  O127  1.220753 D    
C106  N30   1.504571 S    
C60   C156  1.540598 S    
O47   C3    1.296309 A    
C64   C160  1.538109 S    
C126  N54   1.483306 S    
C63   N7    1.499066 S    
C199  O251  1.225743 D    
C190  O218  1.224771 D    
N40   O180  1.296084 A    
C34   C42   1.658594 S    
C72   C96   1.194977 T    
C5    C101  1.411911 S    
O12   C8    1.296877 A    
C63   C159  1.533873 S    
N58   O227  1.304410 A    
N31   O158  1.295372 A    
C209  H73   1.070257 S    
C148  H12   1.079132 S    
C177  O133  1.222734 D    
Zn3   O35   1.987050 S    
C48   C56   1.639384 S    
C177  H41   1.075686 S    
Zn15  O43   1.982004 S    
N28   O152  1.303878 A    
C24   C44   1.511987 S    
N6    O84   1.301084 A    
C197  O249  1.225880 D    
C172  O128  1.223237 D    
C211  H75   1.070578 S    
C203  O255  1.223050 D    
C75   C91   1.633806 S    
C53   C141  1.559899 S    
C127  N55   1.492643 S    
C109  N33   1.496042 S    
C142  O58   1.215687 D    
C33   C49   1.651345 S    
C73   C97   1.471726 S    
Zn6   O46   1.899546 S    
N26   O148  1.303649 A    
C51   C199  1.540137 S    
C145  O61   1.223297 D    
C26   C42   1.670605 S    
C189  O217  1.221743 D    
C196  O224  1.217966 D    
N55   O214  1.304169 A    
N9    O97   1.301551 A    
C12   C136  1.518341 S    
C55   C143  1.560271 S    
C67   C83   1.641291 S    
C71   C95   1.195075 T    
C202  H66   1.070659 S    
C28   C44   1.659595 S    
C170  O126  1.223231 D    
C168  O108  1.222066 D    
C85   C89   1.642744 S    
C121  C122  1.621742 S    
C32   N64   1.520380 S    
C108  N28   1.504793 S    
C112  C188  1.562537 S    
C111  C112  1.644405 S    
C40   C44   1.670942 S    
C100  C104  1.195087 T    
C122  N46   1.502668 S    
C154  H18   1.087264 S    
C178  O134  1.222433 D    
C204  H68   1.073118 S    
C164  H28   1.084011 S    
C62   C158  1.538093 S    
N24   O143  1.305427 A    
C157  O89   1.222649 D    
C184  O172  1.223047 D    
C77   C81   1.644142 S    
O23   C19   1.273413 A    
C194  O222  1.218384 D    
C183  O171  1.219209 D    
N15   O113  1.297602 A    
N51   O206  1.304214 A    
N7    O86   1.299090 A    
Zn14  O2    1.963824 S    
N23   O141  1.305419 A    
C167  H31   1.074363 S    
C25   C137  1.544809 S    
C198  O250  1.224985 D    
C186  O190  1.217836 D    
C58   C78   1.639656 S    
C67   C163  1.543715 S    
C179  H43   1.074724 S    
C188  O192  1.217438 D    
C137  H1    1.086470 S    
C170  H34   1.075197 S    
C88   C172  1.540997 S    
N49   O201  1.298816 A    
Zn8   O4    1.969222 S    
C54   C142  1.565321 S    
C76   C100  1.470856 S    
C28   N16   1.499429 S    
O21   C17   1.284632 A    
C158  H22   1.072691 S    
C195  O223  1.218847 D    
N42   O184  1.292549 A    
C116  C184  1.549628 S    
N8    O87   1.304187 A    
N18   O120  1.299093 A    
C175  O131  1.222934 D    
N43   O186  1.299322 A    
C111  C187  1.548454 S    
N47   O197  1.303366 A    
C66   C82   1.626998 S    
C21   C41   1.529339 S    
C106  N26   1.504046 S    
C8    C104  1.411891 S    
C23   C43   1.530230 S    
C181  O169  1.218108 D    
N32   O159  1.304955 A    
C19   C46   1.533569 S    
C51   C151  1.548922 S    
C185  O189  1.216534 D    
C81   C93   1.470108 S    
C64   N8    1.490954 S    
N19   O121  1.304183 A    
N36   O168  1.305868 A    
C150  O66   1.212409 D    
N54   O211  1.293095 A    
Zn10  O30   1.986422 S    
C50   C198  1.531121 S    
C191  H55   1.061031 S    
C61   N5    1.497931 S    
C201  O253  1.221700 D    
C153  H17   1.088623 S    
C111  N35   1.494102 S    
C34   C50   1.640435 S    
N48   O199  1.304441 A    
Zn14  O26   1.987750 S    
C190  H54   1.074747 S    
Zn15  O7    1.900869 S    
C61   C157  1.542988 S    
N29   O154  1.295580 A    
C25   N13   1.498001 S    
C147  O63   1.223321 D    
C15   C119  1.524452 S    
C112  N36   1.482223 S    
C66   C162  1.548022 S    
C146  O62   1.219525 D    
Zn4   O12   1.901633 S    
Zn11  O51   1.902532 S    
Zn4   O36   1.985076 S    
Zn5   O13   1.983989 S    
N61   O234  1.302539 A    
Zn6   O2    1.969222 S    
N63   O238  1.303716 A    
Zn7   O15   1.983989 S    
N68   O247  1.301911 A    
C87   C171  1.547094 S    
Zn8   O16   1.983843 S    
C89   C165  1.540306 S    
C65   C81   1.643767 S    
N22   O140  1.299306 A    
N50   O204  1.304249 A    
C57   C73   1.630718 S    
N43   O185  1.304990 A    
C187  O191  1.217417 D    
C113  C117  1.650297 S    
C140  H4    1.086634 S    
C90   N18   1.498098 S    
C121  C133  1.667179 S    
O27   C23   1.286078 A    
C116  C120  1.644438 S    
C36   N68   1.496118 S    
C149  O65   1.217757 D    
C46   C54   1.646403 S    
N52   O208  1.304443 A    
C129  C133  1.650564 S    
C63   C67   1.648423 S    
C110  N34   1.487408 S    
N59   O229  1.304530 A    
C207  H71   1.085709 S    
N2    O71   1.303529 A    
C69   C93   1.195624 T    
N27   O150  1.304751 A    
C45   C53   1.646096 S    
Zn10  O18   1.982214 S    
Zn5   O1    1.968927 S    
C68   N12   1.496145 S    
C167  O107  1.223029 D    
C115  N39   1.491805 S    
C84   C96   1.469835 S    
C180  O136  1.222442 D    
Zn9   O17   1.985665 S    
C114  N38   1.498148 S    
C73   C89   1.636616 S    
Zn9   O1    1.963669 S    
C162  H26   1.084023 S    
C139  O55   1.215776 D    
C124  N52   1.500673 S    
N33   O161  1.296484 A    
C83   C95   1.469277 S    
N5    O82   1.297003 A    
C132  C192  1.550303 S    
C7    C103  1.411490 S    
N10   O100  1.305124 A    
O41   C13   1.287936 A    
Zn12  O20   1.982214 S    
C22   C42   1.515348 S    
C29   C45   1.647901 S    
N3    O73   1.300824 A    
C164  O96   1.221143 D    
C66   N10   1.496144 S    
C187  H51   1.086250 S    
C124  N48   1.501494 S    
C174  H38   1.076293 S    
C157  H21   1.080386 S    
N28   O151  1.295312 A    
C38   C42   1.658249 S    
O45   C1    1.296321 A    
C155  O79   1.217057 D    
C176  O132  1.224458 D    
C78   N2    1.502460 S    
C113  C181  1.539164 S    
C131  C191  1.553781 S    
C10   C134  1.515982 S    
C127  N59   1.490510 S    
Zn2   O2    1.969083 S    
C115  C183  1.548725 S    
C151  H15   1.086256 S    
O15   C11   1.292958 A    
C196  H60   1.083971 S    
Zn4   O4    1.969083 S    
C141  O57   1.224186 D    
C27   N15   1.496152 S    
C169  H33   1.080803 S    
C204  O256  1.224562 D    
N44   O187  1.300546 A    
C11   C135  1.526032 S    
C163  O95   1.217173 D    
C186  H50   1.087153 S    
N67   O245  1.298102 A    
C193  O221  1.217442 D    
C107  N27   1.500631 S    
C173  H37   1.081321 S    
C106  C118  1.658522 S    
O44   C16   1.287929 A    
N16   O115  1.296687 A    
O17   C13   1.288586 A    
O20   C16   1.284126 A    
N30   O156  1.298500 A    
N46   O195  1.304595 A    
O10   C6    1.296925 A    
C98   C102  1.195111 T    
O6    C2    1.294483 A    
C130  C194  1.546663 S    
O48   C4    1.294046 A    
N20   O123  1.301997 A    
Zn16  O8    1.902434 S    
C6    C102  1.411939 S    
C16   C120  1.518607 S    
C79   C179  1.538399 S    
O14   C10   1.290528 A    
C130  C190  1.550565 S    
Zn1   O1    1.969378 S    
C49   C197  1.540405 S    
C138  O54   1.213476 D    
N65   O241  1.298065 A    
C188  H52   1.086699 S    
N39   O178  1.301787 A    
N56   O215  1.293990 A    
C59   C175  1.538909 S    
C212  H76   1.084139 S    
C137  O53   1.215702 D    
Zn1   O33   1.987050 S    
O36   C24   1.275508 A    
C123  N51   1.498806 S    
C59   C79   1.629013 S    
O30   C18   1.278886 A    
C49   C149  1.548276 S    
