data_mof_unit_12198.cif
_audit_creation_date              2012-10-26T19:13:11-0400
_audit_creation_method            fapswitch 2.2
_symmetry_space_group_name_H-M    P1
_symmetry_Int_Tables_number       1
_space_group_crystal_system       triclinic
_cell_length_a                    13.404607
_cell_length_b                    13.95813
_cell_length_c                    15.040054
_cell_angle_alpha                 89.490217
_cell_angle_beta                  93.119531
_cell_angle_gamma                 72.171983
_cell_volume                      2673.97528319

loop_
_atom_site_label
_atom_site_type_symbol
_atom_type_description
_atom_site_fract_x
_atom_site_fract_y
_atom_site_fract_z
_atom_type_partial_charge
C1    C     C_R   0.485839 0.504084 0.669071 0.557430
C2    C     C_R   0.813900 0.414139 0.479373 -0.004544
C3    C     C_R   0.427249 0.431588 0.902227 0.009966
C4    C     C_R   0.699486 0.446429 0.491899 0.526591
C5    C     C_R   0.432093 0.432714 0.807723 0.261255
C6    C     C_R   0.459098 0.511779 0.764703 0.013250
C7    C     C_R   0.453920 0.599508 0.813906 -0.052498
C8    C     C_R   0.463495 0.591310 0.906580 -0.145299
C9    C     C_R   0.456555 0.505847 0.950656 -0.026308
C10   C     C_R   0.385862 0.564357 0.096364 -0.131678
C11   C     C_R   0.397330 0.564251 0.188895 -0.137694
C12   C     C_R   0.978198 0.455304 0.471541 0.039120
C13   C     C_R   0.489833 0.503653 0.233396 0.023960
C14   C     C_R   0.571162 0.443149 0.185333 -0.137819
C15   C     C_R   0.560352 0.444357 0.092600 -0.124883
C16   C     C_R   0.498749 0.500676 0.330036 0.536397
C17   C     C_R   0.466914 0.503499 0.048131 0.032628
C18   C     C_R   0.409257 0.916135 0.454582 -0.139622
C19   C     C_R   0.418067 0.811796 0.453511 0.421737
C20   C     C_R   0.579895 0.772688 0.540418 0.094228
C21   C     C_R   0.578070 0.873774 0.530199 -0.143696
C22   C     C_R   0.490310 0.948738 0.492780 -0.038895
C23   C     C_R   0.867865 0.482424 0.454409 0.022330
C24   C     C_R   0.548293 0.088845 0.561248 -0.120172
C25   C     C_R   0.562655 0.184336 0.558190 0.153321
C26   C     C_R   0.433207 0.233393 0.438927 0.039248
C27   C     C_R   0.427583 0.133805 0.433928 -0.150210
C28   C     C_R   0.299511 0.554185 0.497591 0.553357
C29   C     C_R   0.486776 0.058683 0.495687 0.013304
C30   C     C_R   0.021812 0.702538 0.420169 0.266153
C31   C     C_R   0.184737 0.585268 0.483081 -0.054384
C32   C     C_R   0.871970 0.313638 0.498142 -0.140557
C33   C     C_R   0.980769 0.283096 0.503793 -0.145267
C34   C     C_R   0.028754 0.530649 0.464196 -0.017154
C35   C     C_R   0.033808 0.353363 0.493644 -0.117624
C36   C     C_3   0.447994 0.269479 0.767317 -0.109865
C37   C     C_3   0.413518 0.705601 0.773890 -0.236463
C38   C     C_3   0.494607 0.762193 0.783891 -0.294651
C39   C     C_3   0.451733 0.867819 0.741560 -0.450559
C40   C     C_3   0.332242 0.805479 0.318983 -0.135149
C41   C     C_3   0.673347 0.700370 0.593363 -0.222854
C42   C     C_3   0.733782 0.747501 0.661386 -0.354118
C43   C     C_3   0.808260 0.667040 0.723810 -0.456491
C44   C     C_3   0.648048 0.199062 0.622078 -0.223626
C45   C     C_R   0.971831 0.627482 0.427893 0.058316
C46   C     C_3   0.759544 0.135131 0.600167 -0.305370
C47   C     C_3   0.794087 0.027492 0.638980 -0.441176
C48   C     C_3   0.993206 0.810452 0.300897 -0.141129
C49   C     C_3   0.374827 0.364574 0.949520 -0.231868
C50   C     C_3   0.454161 0.269827 0.993476 -0.304784
C51   C     C_3   0.399752 0.194305 0.022340 -0.463091
C52   C     C_R   0.866680 0.646867 0.398010 -0.139646
C53   C     C_R   0.815848 0.575018 0.410070 -0.167814
C54   C     C_R   0.133948 0.512756 0.493826 -0.155599
C55   C     C_R   0.127856 0.681085 0.448868 -0.122063
Cu1   Cu    Cu3+1 0.500000 0.403570 0.500010 0.936939
Cu2   Cu    Cu3+1 0.500000 0.596430 0.499990 0.950189
H1    H     H_    0.165944 0.738543 0.441986 0.179271
H2    H     H_    0.586873 0.037623 0.615682 0.090886
H3    H     H_    0.384918 0.290280 0.392169 0.125449
H4    H     H_    0.377578 0.116347 0.381788 0.086207
H5    H     H_    0.178546 0.442421 0.526322 0.144041
H6    H     H_    0.832948 0.258539 0.508526 0.121278
H7    H     H_    0.118313 0.324620 0.499397 0.103635
H8    H     H_    0.024240 0.204854 0.518380 0.116906
H9    H     H_    0.735248 0.593183 0.384139 0.149343
H10   H     H_    0.530024 0.256748 0.794668 0.084105
H11   H     H_    0.449937 0.233555 0.702035 0.150749
H12   H     H_    0.467720 0.655217 0.945357 0.120456
H13   H     H_    0.407245 0.230274 0.810006 0.112925
H14   H     H_    0.429811 0.863838 0.669782 0.172217
H15   H     H_    0.381355 0.912307 0.775392 0.144322
H16   H     H_    0.512067 0.907233 0.748353 0.128788
H17   H     H_    0.515925 0.769216 0.855388 0.147762
H18   H     H_    0.566376 0.719130 0.752166 0.177538
H19   H     H_    0.383679 0.707454 0.703596 0.183050
H20   H     H_    0.343351 0.747504 0.809581 0.129307
H21   H     H_    0.277123 0.770449 0.285282 0.113693
H22   H     H_    0.409510 0.775397 0.288978 0.128555
H23   H     H_    0.313885 0.611070 0.062300 0.101601
H24   H     H_    0.299005 0.887849 0.305694 0.089043
H25   H     H_    0.763496 0.628700 0.763552 0.144316
H26   H     H_    0.864959 0.610347 0.684875 0.167625
H27   H     H_    0.852722 0.702678 0.770250 0.146601
H28   H     H_    0.782259 0.785624 0.625842 0.165093
H29   H     H_    0.678916 0.803902 0.701602 0.158065
H30   H     H_    0.646872 0.644329 0.629457 0.199454
H31   H     H_    0.731353 0.661769 0.546319 0.176201
H32   H     H_    0.769127 0.025028 0.707945 0.137894
H33   H     H_    0.762703 0.978170 0.596113 0.148880
H34   H     H_    0.333292 0.609300 0.225901 0.097637
H35   H     H_    0.881038 0.996740 0.640692 0.150072
H36   H     H_    0.766417 0.132215 0.526878 0.171662
H37   H     H_    0.815548 0.172169 0.629854 0.139564
H38   H     H_    0.646678 0.277856 0.623258 0.195244
H39   H     H_    0.634708 0.179305 0.690786 0.089838
H40   H     H_    0.942305 0.884272 0.273322 0.139830
H41   H     H_    0.980096 0.751221 0.256754 0.106671
H42   H     H_    0.075917 0.810976 0.299872 0.111577
H43   H     H_    0.339373 0.228996 0.070067 0.153617
H44   H     H_    0.361877 0.168718 0.963596 0.142393
H45   H     H_    0.642772 0.395857 0.219521 0.106229
H46   H     H_    0.458494 0.127733 0.055493 0.140842
H47   H     H_    0.515406 0.232925 0.947395 0.146818
H48   H     H_    0.494025 0.290250 0.053420 0.174216
H49   H     H_    0.325255 0.407836 0.001456 0.136329
H50   H     H_    0.318055 0.344263 0.902849 0.170186
H51   H     H_    0.623971 0.398435 0.055459 0.104208
H52   H     H_    0.339119 0.970913 0.425521 0.097884
H53   H     H_    0.822544 0.718375 0.366268 0.156393
H54   H     H_    0.646114 0.894375 0.551904 0.107370
N1    N     N_R   0.500000 0.741310 0.499980 -0.212364
N2    N     N_R   0.500060 0.258650 0.499980 -0.218618
O1    O     O_R   0.499990 0.418570 0.628550 -0.475025
O2    O     O_3   0.339494 0.781222 0.410885 -0.546365
O3    O     O_3   0.965586 0.798305 0.388481 -0.575501
O4    O     O_R   0.499990 0.581440 0.628540 -0.533003
O5    O     O_R   0.650980 0.378820 0.499990 -0.516954
O6    O     O_R   0.650980 0.541690 0.499970 -0.533578
O7    O     O_R   0.500010 0.418560 0.371460 -0.506832
O8    O     O_R   0.500010 0.581430 0.371450 -0.483301
O9    O     O_R   0.349020 0.458310 0.500030 -0.502845
O10   O     O_R   0.349020 0.621180 0.500010 -0.448016
O11   O     O_3   0.389495 0.371984 0.755133 -0.556538

loop_
_geom_bond_atom_site_label_1
_geom_bond_atom_site_label_2
_ccdc_geom_bond_type
C50   H47   S    
C22   C29   S    
C27   C29   A    
C43   H26   S    
C47   H35   S    
C30   C45   A    
C18   H52   S    
C20   C41   S    
C3    C49   S    
C28   O10   A    
C33   H8    S    
C7    C8    A    
C49   H50   S    
C30   O3    S    
C19   N1    A    
C48   H40   S    
C12   C23   A    
C26   C27   A    
C3    C9    A    
C36   O11   S    
C16   O7    A    
C38   C39   S    
C28   O9    A    
C14   H45   S    
Cu2   N1    S    
C10   C17   A    
C51   H46   S    
Cu1   Cu2   S    
C2    C32   A    
C18   C19   A    
C41   C42   S    
C41   H31   S    
C24   C29   A    
C27   H4    S    
C20   N1    A    
C44   C46   S    
C8    C9    A    
C50   H48   S    
Cu1   N2    S    
C4    O6    A    
C35   H7    S    
C42   H29   S    
C19   O2    S    
Cu2   O6    S    
C21   C22   A    
C43   H27   S    
Cu1   O7    S    
C4    O5    A    
C25   C44   S    
C21   H54   S    
C36   H13   S    
C23   C53   A    
C38   H18   S    
C7    C37   S    
C41   H30   S    
C36   H10   S    
C1    C6    S    
C24   C25   A    
C34   C45   A    
C10   H23   S    
C54   H5    S    
C45   C52   A    
C37   H20   S    
Cu1   O9    S    
C15   H51   S    
C2    C4    S    
C16   O8    A    
C37   C38   S    
C44   H39   S    
C25   N2    A    
Cu2   O10   S    
C46   H37   S    
C52   H53   S    
C39   H15   S    
C50   C51   S    
C8    H12   S    
C40   H22   S    
C42   H28   S    
C1    O4    A    
C12   C35   A    
C53   H9    S    
C6    C7    A    
C9    C17   S    
C37   H19   S    
C47   H32   S    
C47   H33   S    
C40   H21   S    
C13   C16   S    
C1    O1    A    
C12   C34   A    
C52   C53   A    
Cu2   O4    S    
C38   H17   S    
C51   H43   S    
C15   C17   A    
C48   H42   S    
C46   C47   S    
C39   H14   S    
C18   C22   A    
Cu1   O5    S    
C40   H24   S    
C28   C31   S    
C32   H6    S    
C3    C5    A    
C36   H11   S    
C34   C54   A    
C49   H49   S    
C51   H44   S    
C48   H41   S    
C30   C55   A    
C48   O3    S    
C32   C33   A    
C26   N2    A    
C5    O11   S    
C44   H38   S    
C11   C13   A    
C5    C6    A    
C46   H36   S    
C24   H2    S    
C33   C35   A    
C39   H16   S    
C31   C54   A    
C10   C11   A    
Cu2   O8    S    
C40   O2    S    
C11   H34   S    
C20   C21   A    
C49   C50   S    
C42   C43   S    
C55   H1    S    
C2    C23   A    
C43   H25   S    
Cu1   O1    S    
C14   C15   A    
C31   C55   A    
C13   C14   A    
C26   H3    S    
