data_mof_unit_60512.cif
_audit_creation_date              2012-12-10T17:41:59-0500
_audit_creation_method            fapswitch 2.2
_symmetry_space_group_name_H-M    P1
_symmetry_Int_Tables_number       1
_space_group_crystal_system       triclinic
_cell_length_a                    30.392615
_cell_length_b                    30.392611
_cell_length_c                    23.649444
_cell_angle_alpha                 90.000043
_cell_angle_beta                  90.00003
_cell_angle_gamma                 90.000012
_cell_volume                      21845.2497922

loop_
_atom_site_label
_atom_site_type_symbol
_atom_type_description
_atom_site_fract_x
_atom_site_fract_y
_atom_site_fract_z
_atom_type_partial_charge
C1    C     C_R   0.584933 1.000000 0.500000 0.843420
C2    C     C_R   1.000000 0.584933 0.500000 0.843412
C3    C     C_R   0.415067 1.000000 0.500000 0.843421
C4    C     C_R   1.000000 0.415067 0.500000 0.843425
C5    C     C_R   0.084933 0.500000 1.000000 0.843421
C6    C     C_R   0.500000 0.084933 0.000000 0.843418
C7    C     C_R   0.915067 0.500000 1.000000 0.843422
C8    C     C_R   0.500000 0.915067 1.000000 0.843422
C9    C     C_R   0.843015 0.998836 0.551238 -0.188598
C10   C     C_R   0.001163 0.843015 0.551238 -0.188598
C11   C     C_R   0.156985 0.001164 0.551238 -0.188597
C12   C     C_R   0.998835 0.156985 0.551238 -0.188598
C13   C     C_R   0.156985 0.998835 0.448762 -0.188598
C14   C     C_R   0.998837 0.843015 0.448761 -0.188597
C15   C     C_R   0.843015 0.001164 0.448761 -0.188598
C16   C     C_R   0.001165 0.156985 0.448761 -0.188597
C17   C     C_R   0.343015 0.498835 0.051238 -0.188598
C18   C     C_R   0.501165 0.343015 0.051238 -0.188598
C19   C     C_R   0.656985 0.501164 0.051238 -0.188597
C20   C     C_R   0.498835 0.656985 0.051238 -0.188598
C21   C     C_R   0.656985 0.498835 0.948762 -0.188598
C22   C     C_R   0.498836 0.343015 0.948761 -0.188598
C23   C     C_R   0.343015 0.501165 0.948762 -0.188598
C24   C     C_R   0.501165 0.656985 0.948762 -0.188598
C25   C     C_R   0.866331 1.000000 0.500000 -0.035473
C26   C     C_R   1.000000 0.866331 0.500000 -0.035474
C27   C     C_R   0.133669 1.000000 0.500000 -0.035474
C28   C     C_R   1.000000 0.133669 0.500000 -0.035473
C29   C     C_R   0.366331 0.500000 1.000000 -0.035474
C30   C     C_R   0.500000 0.366331 1.000000 -0.035473
C31   C     C_R   0.633669 0.500000 0.000000 -0.035474
C32   C     C_R   0.500000 0.633669 0.000000 -0.035473
C33   C     C_R   0.773908 0.000000 0.500000 0.162883
C34   C     C_R   1.000000 0.773908 0.500000 0.162883
C35   C     C_R   0.226092 1.000000 0.500000 0.162883
C36   C     C_R   1.000000 0.226092 0.500000 0.162883
C37   C     C_R   0.273908 0.500000 1.000000 0.162883
C38   C     C_R   0.500000 0.273908 1.000000 0.162883
C39   C     C_R   0.726092 0.500000 0.000000 0.162883
C40   C     C_R   0.500000 0.726092 0.000000 0.162883
C41   C     C_R   1.000000 0.914714 0.500000 0.801184
C42   C     C_R   0.085286 1.000000 0.500000 0.801183
C43   C     C_R   0.000000 0.085286 0.500000 0.801183
C44   C     C_R   0.914714 1.000000 0.500000 0.801184
C45   C     C_R   0.500000 0.414714 1.000000 0.801184
C46   C     C_R   0.585286 0.500000 0.000000 0.801183
C47   C     C_R   0.500000 0.585286 0.000000 0.801183
C48   C     C_R   0.414714 0.500000 1.000000 0.801184
C49   C     C_R   0.500000 0.000000 0.608139 0.800889
C50   C     C_R   1.000000 0.500000 0.608139 0.800891
C51   C     C_R   0.500000 1.000000 0.391861 0.800889
C52   C     C_R   0.000000 0.500000 0.391861 0.800887
C53   C     C_R   1.000000 0.500000 0.108139 0.800889
C54   C     C_R   0.500000 1.000000 0.108139 0.800888
C55   C     C_R   0.000000 0.500000 0.891861 0.800890
C56   C     C_R   0.500000 1.000000 0.891861 0.800889
C57   C     C_1   0.500000 0.000000 0.668990 -0.188608
C58   C     C_1   1.000000 0.500000 0.668990 -0.188610
C59   C     C_1   0.500000 1.000000 0.331010 -0.188608
C60   C     C_1   0.000000 0.500000 0.331010 -0.188605
C61   C     C_1   1.000000 0.500000 0.168990 -0.188608
C62   C     C_1   0.500000 1.000000 0.168990 -0.188609
C63   C     C_1   0.000000 0.500000 0.831010 -0.188609
C64   C     C_1   0.500000 0.000000 0.831010 -0.188609
C65   C     C_1   0.500000 0.000000 0.720068 -0.013320
C66   C     C_1   0.000000 0.500000 0.720068 -0.013319
C67   C     C_1   0.500000 1.000000 0.279932 -0.013319
C68   C     C_1   1.000000 0.500000 0.279932 -0.013323
C69   C     C_1   1.000000 0.500000 0.220068 -0.013321
C70   C     C_1   0.500000 1.000000 0.220068 -0.013319
C71   C     C_1   0.000000 0.500000 0.779932 -0.013319
C72   C     C_1   0.500000 1.000000 0.779932 -0.013319
C73   C     C_R   0.702233 0.028484 0.464147 -0.255301
C74   C     C_R   0.971518 0.702233 0.464145 -0.255293
C75   C     C_R   0.297767 0.971516 0.464147 -0.255299
C76   C     C_R   0.028484 0.297767 0.464148 -0.255297
C77   C     C_R   0.297767 0.028484 0.535853 -0.255300
C78   C     C_R   0.028483 0.702233 0.535855 -0.255294
C79   C     C_R   0.702233 0.971516 0.535853 -0.255298
C80   C     C_R   0.971515 0.297767 0.535851 -0.255309
C81   C     C_R   0.202233 0.528484 0.964147 -0.255301
C82   C     C_R   0.471516 0.202233 0.964147 -0.255300
C83   C     C_R   0.797767 0.471516 0.964148 -0.255301
C84   C     C_R   0.528484 0.797767 0.964148 -0.255302
C85   C     C_R   0.797767 0.528484 0.035853 -0.255299
C86   C     C_R   0.528484 0.202233 0.035852 -0.255299
C87   C     C_R   0.202233 0.471516 0.035852 -0.255301
C88   C     C_R   0.471516 0.797767 0.035852 -0.255300
C89   C     C_R   0.656274 0.028181 0.463237 0.390188
C90   C     C_R   0.971820 0.656274 0.463234 0.390189
C91   C     C_R   0.343726 0.971819 0.463237 0.390189
C92   C     C_R   0.028182 0.343726 0.463237 0.390186
C93   C     C_R   0.343726 0.028181 0.536763 0.390188
C94   C     C_R   0.028180 0.656274 0.536765 0.390189
C95   C     C_R   0.656274 0.971819 0.536763 0.390188
C96   C     C_R   0.971818 0.343726 0.536762 0.390190
C97   C     C_R   0.156274 0.528181 0.963237 0.390188
C98   C     C_R   0.471819 0.156274 0.963237 0.390189
C99   C     C_R   0.843726 0.471819 0.963237 0.390188
C100  C     C_R   0.528182 0.843726 0.963237 0.390189
C101  C     C_R   0.843726 0.528181 0.036763 0.390187
C102  C     C_R   0.528181 0.156274 0.036763 0.390188
C103  C     C_R   0.156274 0.471818 0.036763 0.390189
C104  C     C_R   0.471818 0.843726 0.036763 0.390187
C105  C     C_R   0.633086 0.000000 0.500000 -0.236051
C106  C     C_R   1.000000 0.633086 0.500000 -0.236056
C107  C     C_R   0.366913 1.000000 0.500000 -0.236051
C108  C     C_R   1.000000 0.366913 0.500000 -0.236049
C109  C     C_R   0.133086 0.500000 1.000000 -0.236050
C110  C     C_R   0.500000 0.133086 1.000000 -0.236052
C111  C     C_R   0.866913 0.500000 0.000000 -0.236051
C112  C     C_R   0.500000 0.866913 0.000000 -0.236050
C113  C     C_R   0.725438 0.000000 0.500000 -0.032230
C114  C     C_R   1.000000 0.725438 0.500000 -0.032234
C115  C     C_R   0.274562 1.000000 0.500000 -0.032229
C116  C     C_R   1.000000 0.274562 0.500000 -0.032226
C117  C     C_R   0.225438 0.500000 1.000000 -0.032229
C118  C     C_R   0.500000 0.225438 1.000000 -0.032230
C119  C     C_R   0.774562 0.500000 0.000000 -0.032229
C120  C     C_R   0.500000 0.774562 0.000000 -0.032228
C121  C     C_R   0.797176 0.998789 0.551222 -0.165016
C122  C     C_R   0.001209 0.797176 0.551222 -0.165016
C123  C     C_R   0.202823 0.001211 0.551222 -0.165016
C124  C     C_R   0.998789 0.202823 0.551222 -0.165016
C125  C     C_R   0.202824 0.998789 0.448778 -0.165017
C126  C     C_R   0.998791 0.797176 0.448777 -0.165016
C127  C     C_R   0.797176 0.001210 0.448777 -0.165016
C128  C     C_R   0.001211 0.202823 0.448777 -0.165017
C129  C     C_R   0.297176 0.498789 0.051222 -0.165017
C130  C     C_R   0.501211 0.297176 0.051222 -0.165017
C131  C     C_R   0.702823 0.501211 0.051222 -0.165017
C132  C     C_R   0.498789 0.702823 0.051222 -0.165017
C133  C     C_R   0.702824 0.498789 0.948778 -0.165016
C134  C     C_R   0.498789 0.297176 0.948778 -0.165015
C135  C     C_R   0.297176 0.501211 0.948778 -0.165017
C136  C     C_R   0.501211 0.702823 0.948778 -0.165016
Cu1   Cu    Cu3+1 0.500000 0.044070 0.500000 0.994908
Cu2   Cu    Cu3+1 0.955930 0.500000 0.500000 0.994908
Cu3   Cu    Cu3+1 0.500000 0.955930 0.500000 0.994908
Cu4   Cu    Cu3+1 0.044070 0.500000 0.500000 0.994908
Cu5   Cu    Cu3+1 1.000000 0.544070 0.000000 0.994908
Cu6   Cu    Cu3+1 0.455930 0.000000 0.000000 0.994909
Cu7   Cu    Cu3+1 1.000000 0.455930 0.000000 0.994909
Cu8   Cu    Cu3+1 0.544070 0.000000 0.000000 0.994909
Cu9   Cu    Cu3+1 1.000000 0.000000 0.555800 0.941282
Cu10  Cu    Cu3+1 1.000000 1.000000 0.444200 0.941283
Cu11  Cu    Cu3+1 0.500000 0.500000 0.055800 0.941283
Cu12  Cu    Cu3+1 0.500000 0.500000 0.944200 0.941283
H1    H     H_    0.719713 0.051101 0.436779 0.159522
H2    H     H_    0.948902 0.719713 0.436775 0.159524
H3    H     H_    0.280286 0.948898 0.436779 0.159522
H4    H     H_    0.051102 0.280286 0.436780 0.159522
H5    H     H_    0.280287 0.051102 0.563221 0.159522
H6    H     H_    0.051099 0.719713 0.563225 0.159524
H7    H     H_    0.719713 0.948899 0.563221 0.159522
H8    H     H_    0.948897 0.280286 0.563219 0.159518
H9    H     H_    0.219713 0.551102 0.936779 0.159522
H10   H     H_    0.448898 0.219713 0.936779 0.159522
H11   H     H_    0.780287 0.448898 0.936779 0.159521
H12   H     H_    0.551102 0.780286 0.936779 0.159521
H13   H     H_    0.780287 0.551101 0.063221 0.159521
H14   H     H_    0.551102 0.219713 0.063221 0.159522
H15   H     H_    0.219713 0.448898 0.063221 0.159521
H16   H     H_    0.448898 0.780287 0.063221 0.159522
O1    O     O_R   0.564260 0.037220 0.500020 -0.554455
O2    O     O_R   0.962780 0.564260 0.500020 -0.554457
O3    O     O_R   0.435740 0.962780 0.500020 -0.554454
O4    O     O_R   0.037220 0.435740 0.500020 -0.554455
O5    O     O_R   0.435740 0.037220 0.499980 -0.554455
O6    O     O_R   0.037220 0.564260 0.499980 -0.554458
O7    O     O_R   0.564260 0.962780 0.499980 -0.554455
O8    O     O_R   0.962780 0.435740 0.499980 -0.554453
O9    O     O_R   0.064260 0.537220 0.000020 -0.554455
O10   O     O_R   0.462780 0.064260 0.000020 -0.554455
O11   O     O_R   0.935740 0.462780 0.000020 -0.554454
O12   O     O_R   0.537220 0.935740 0.000020 -0.554454
O13   O     O_R   0.935740 0.537220 0.999980 -0.554455
O14   O     O_R   0.537220 0.064260 0.999980 -0.554455
O15   O     O_R   0.064260 0.462780 0.999980 -0.554454
O16   O     O_R   0.462780 0.935740 0.999980 -0.554454
O17   O     O_R   0.499990 0.037220 0.581420 -0.582541
O18   O     O_R   0.962780 0.499990 0.581420 -0.582543
O19   O     O_R   0.500010 0.962780 0.581420 -0.582539
O20   O     O_R   0.037220 0.500010 0.581420 -0.582535
O21   O     O_R   0.500010 0.037220 0.418580 -0.582540
O22   O     O_R   0.037220 0.499990 0.418580 -0.582542
O23   O     O_R   0.499990 0.962780 0.418580 -0.582540
O24   O     O_R   0.962780 0.500010 0.418580 -0.582537
O25   O     O_R   0.999990 0.537220 0.081420 -0.582541
O26   O     O_R   0.462780 0.999990 0.081420 -0.582540
O27   O     O_R   0.000010 0.462780 0.081420 -0.582540
O28   O     O_R   0.537220 0.000010 0.081420 -0.582540
O29   O     O_R   0.000010 0.537220 0.918580 -0.582540
O30   O     O_R   0.537220 0.999990 0.918580 -0.582540
O31   O     O_R   0.999990 0.462780 0.918580 -0.582540
O32   O     O_R   0.462780 0.000010 0.918580 -0.582539
O33   O     O_R   0.999990 0.935770 0.547120 -0.589377
O34   O     O_R   0.064230 0.999990 0.547120 -0.589377
O35   O     O_R   0.000010 0.064230 0.547120 -0.589377
O36   O     O_R   0.935770 0.000010 0.547120 -0.589377
O37   O     O_R   0.000010 0.935770 0.452880 -0.589377
O38   O     O_R   0.935770 0.999990 0.452880 -0.589377
O39   O     O_R   0.999990 0.064230 0.452880 -0.589377
O40   O     O_R   0.064230 0.000010 0.452880 -0.589377
O41   O     O_R   0.499990 0.435770 0.047120 -0.589377
O42   O     O_R   0.564230 0.499990 0.047120 -0.589377
O43   O     O_R   0.500010 0.564230 0.047120 -0.589377
O44   O     O_R   0.435770 0.500010 0.047120 -0.589377
O45   O     O_R   0.500010 0.435770 0.952880 -0.589377
O46   O     O_R   0.435770 0.499990 0.952880 -0.589377
O47   O     O_R   0.499990 0.564230 0.952880 -0.589377
O48   O     O_R   0.564230 0.500010 0.952880 -0.589377
O49   O     O_3   0.634167 0.056603 0.427499 -0.556347
C137  C     C_3   0.628363 0.035546 0.374796 0.072507
H17   H     H_    0.608677 0.004822 0.379546 0.124855
H18   H     H_    0.660714 0.027484 0.355169 0.136207
C138  C     C_3   0.603680 0.066210 0.335056 -0.760632
H19   H     H_    0.623020 0.096737 0.328101 0.245690
H20   H     H_    0.598328 0.049704 0.293723 0.198039
H21   H     H_    0.571237 0.074989 0.353461 0.259989
O50   O     O_3   0.943401 0.634167 0.427494 -0.556348
C139  C     C_3   0.964461 0.628359 0.374795 0.072511
H22   H     H_    0.995182 0.608668 0.379551 0.124856
H23   H     H_    0.972531 0.660708 0.355169 0.136204
C140  C     C_3   0.933797 0.603680 0.335051 -0.760631
H24   H     H_    0.903275 0.623027 0.328087 0.245686
H25   H     H_    0.950308 0.598323 0.293721 0.198041
H26   H     H_    0.925009 0.571240 0.353456 0.259990
O51   O     O_3   0.365833 0.943397 0.427499 -0.556347
C141  C     C_3   0.371637 0.964453 0.374796 0.072509
H27   H     H_    0.391323 0.995178 0.379546 0.124855
H28   H     H_    0.339286 0.972515 0.355169 0.136207
C142  C     C_3   0.396320 0.933789 0.335057 -0.760631
H29   H     H_    0.376980 0.903262 0.328101 0.245690
H30   H     H_    0.401673 0.950296 0.293724 0.198039
H31   H     H_    0.428763 0.925010 0.353462 0.259989
O52   O     O_3   0.056604 0.365833 0.427500 -0.556347
C143  C     C_3   0.035547 0.371638 0.374797 0.072512
H32   H     H_    0.004824 0.391326 0.379548 0.124854
H33   H     H_    0.027484 0.339288 0.355170 0.136206
C144  C     C_3   0.066212 0.396320 0.335058 -0.760633
H34   H     H_    0.096738 0.376978 0.328101 0.245689
H35   H     H_    0.049705 0.401675 0.293725 0.198039
H36   H     H_    0.074993 0.428763 0.353463 0.259990
O53   O     O_3   0.365833 0.056603 0.572501 -0.556347
C145  C     C_3   0.371636 0.035547 0.625204 0.072508
H37   H     H_    0.391323 0.004822 0.620454 0.124855
H38   H     H_    0.339286 0.027485 0.644831 0.136207
C146  C     C_3   0.396320 0.066211 0.664943 -0.760629
H39   H     H_    0.376980 0.096738 0.671898 0.245690
H40   H     H_    0.401672 0.049705 0.706277 0.198038
H41   H     H_    0.428764 0.074989 0.646538 0.259988
O54   O     O_3   0.056599 0.634167 0.572506 -0.556349
C147  C     C_3   0.035539 0.628360 0.625205 0.072512
H42   H     H_    0.004818 0.608669 0.620450 0.124856
H43   H     H_    0.027471 0.660709 0.644831 0.136204
C148  C     C_3   0.066203 0.603681 0.664949 -0.760631
H44   H     H_    0.096726 0.623026 0.671911 0.245687
H45   H     H_    0.049693 0.598324 0.706279 0.198041
H46   H     H_    0.074989 0.571239 0.646544 0.259989
O55   O     O_3   0.634167 0.943397 0.572501 -0.556347
C149  C     C_3   0.628363 0.964454 0.625204 0.072508
H47   H     H_    0.608675 0.995178 0.620453 0.124855
H48   H     H_    0.660713 0.972517 0.644831 0.136206
C150  C     C_3   0.603680 0.933790 0.664944 -0.760631
H49   H     H_    0.623021 0.903264 0.671901 0.245689
H50   H     H_    0.598326 0.950297 0.706276 0.198039
H51   H     H_    0.571237 0.925010 0.646538 0.259990
O56   O     O_3   0.943396 0.365833 0.572498 -0.556347
C151  C     C_3   0.964448 0.371631 0.625205 0.072505
H52   H     H_    0.995177 0.391312 0.620461 0.124854
H53   H     H_    0.972502 0.339278 0.644831 0.136208
C152  C     C_3   0.933785 0.396319 0.664941 -0.760624
H54   H     H_    0.903253 0.376986 0.671888 0.245692
H55   H     H_    0.950288 0.401666 0.706278 0.198037
H56   H     H_    0.925016 0.428766 0.646537 0.259985
O57   O     O_3   0.134167 0.556603 0.927499 -0.556347
C153  C     C_3   0.128364 0.535547 0.874796 0.072508
H57   H     H_    0.108678 0.504822 0.879546 0.124855
H58   H     H_    0.160714 0.527486 0.855169 0.136206
C154  C     C_3   0.103680 0.566211 0.835057 -0.760628
H59   H     H_    0.123019 0.596738 0.828102 0.245690
H60   H     H_    0.098327 0.549705 0.793723 0.198039
H61   H     H_    0.071236 0.574989 0.853462 0.259989
O58   O     O_3   0.443397 0.134167 0.927499 -0.556347
C155  C     C_3   0.464454 0.128363 0.874796 0.072511
H62   H     H_    0.495178 0.108675 0.879547 0.124854
H63   H     H_    0.472517 0.160713 0.855169 0.136205
C156  C     C_3   0.433789 0.103680 0.835057 -0.760631
H64   H     H_    0.403263 0.123021 0.828101 0.245690
H65   H     H_    0.450296 0.098327 0.793723 0.198039
H66   H     H_    0.425010 0.071237 0.853461 0.259988
O59   O     O_3   0.865833 0.443397 0.927499 -0.556347
C157  C     C_3   0.871636 0.464453 0.874796 0.072509
H67   H     H_    0.891322 0.495178 0.879546 0.124855
H68   H     H_    0.839285 0.472514 0.855169 0.136206
C158  C     C_3   0.896320 0.433789 0.835057 -0.760634
H69   H     H_    0.876980 0.403262 0.828101 0.245690
H70   H     H_    0.901672 0.450296 0.793723 0.198039
H71   H     H_    0.928764 0.425011 0.853462 0.259989
O60   O     O_3   0.556603 0.865833 0.927500 -0.556346
C159  C     C_3   0.535548 0.871635 0.874796 0.072504
H72   H     H_    0.504822 0.891320 0.879545 0.124856
H73   H     H_    0.527488 0.839284 0.855169 0.136208
C160  C     C_3   0.566212 0.896320 0.835057 -0.760634
H74   H     H_    0.596739 0.876981 0.828103 0.245691
H75   H     H_    0.549706 0.901671 0.793723 0.198040
H76   H     H_    0.574988 0.928764 0.853462 0.259990
O61   O     O_3   0.865833 0.556603 0.072501 -0.556347
C161  C     C_3   0.871637 0.535547 0.125204 0.072507
H77   H     H_    0.891323 0.504822 0.120454 0.124854
H78   H     H_    0.839286 0.527485 0.144831 0.136206
C162  C     C_3   0.896320 0.566211 0.164943 -0.760625
H79   H     H_    0.876980 0.596738 0.171899 0.245689
H80   H     H_    0.901673 0.549704 0.206277 0.198039
H81   H     H_    0.928764 0.574989 0.146538 0.259988
O62   O     O_3   0.556603 0.134167 0.072501 -0.556347
C163  C     C_3   0.535547 0.128363 0.125204 0.072513
H82   H     H_    0.504822 0.108676 0.120453 0.124853
H83   H     H_    0.527484 0.160713 0.144831 0.136205
C164  C     C_3   0.566211 0.103680 0.164943 -0.760631
H84   H     H_    0.596738 0.123020 0.171898 0.245691
H85   H     H_    0.549705 0.098328 0.206277 0.198039
H86   H     H_    0.574989 0.071236 0.146538 0.259987
O63   O     O_3   0.134167 0.443397 0.072501 -0.556347
C165  C     C_3   0.128364 0.464453 0.125204 0.072507
H87   H     H_    0.108678 0.495178 0.120454 0.124855
H88   H     H_    0.160714 0.472514 0.144831 0.136207
C166  C     C_3   0.103680 0.433789 0.164943 -0.760630
H89   H     H_    0.123020 0.403262 0.171898 0.245690
H90   H     H_    0.098328 0.450295 0.206276 0.198038
H91   H     H_    0.071236 0.425011 0.146538 0.259989
O64   O     O_3   0.443397 0.865833 0.072501 -0.556347
C167  C     C_3   0.464453 0.871637 0.125204 0.072509
H92   H     H_    0.495177 0.891323 0.120454 0.124855
H93   H     H_    0.472515 0.839286 0.144831 0.136207
C168  C     C_3   0.433789 0.896320 0.164943 -0.760631
H94   H     H_    0.403262 0.876980 0.171898 0.245689
H95   H     H_    0.450295 0.901673 0.206276 0.198039
H96   H     H_    0.425010 0.928763 0.146538 0.259989
H97   H     H_    0.779892 0.998349 0.591270 0.127040
H98   H     H_    0.001648 0.779892 0.591270 0.127041
H99   H     H_    0.220108 0.001651 0.591270 0.127040
H100  H     H_    0.998347 0.220108 0.591270 0.127039
H101  H     H_    0.220108 0.998348 0.408730 0.127040
H102  H     H_    0.998352 0.779891 0.408730 0.127041
H103  H     H_    0.779892 0.001651 0.408730 0.127040
H104  H     H_    0.001652 0.220108 0.408730 0.127040
H105  H     H_    0.279892 0.498349 0.091270 0.127040
H106  H     H_    0.501651 0.279892 0.091270 0.127041
H107  H     H_    0.720108 0.501651 0.091270 0.127041
H108  H     H_    0.498348 0.720108 0.091270 0.127040
H109  H     H_    0.720108 0.498349 0.908730 0.127040
H110  H     H_    0.498349 0.279892 0.908730 0.127040
H111  H     H_    0.279892 0.501651 0.908730 0.127040
H112  H     H_    0.501651 0.720108 0.908730 0.127040
H113  H     H_    0.860146 0.998011 0.591376 0.154105
H114  H     H_    0.001986 0.860146 0.591376 0.154105
H115  H     H_    0.139854 0.001989 0.591376 0.154105
H116  H     H_    0.998010 0.139854 0.591375 0.154105
H117  H     H_    0.139854 0.998011 0.408624 0.154105
H118  H     H_    0.998014 0.860146 0.408624 0.154105
H119  H     H_    0.860146 0.001989 0.408624 0.154105
H120  H     H_    0.001990 0.139853 0.408624 0.154105
H121  H     H_    0.360146 0.498011 0.091375 0.154105
H122  H     H_    0.501989 0.360146 0.091375 0.154105
H123  H     H_    0.639854 0.501989 0.091376 0.154105
H124  H     H_    0.498011 0.639854 0.091375 0.154105
H125  H     H_    0.639854 0.498011 0.908624 0.154105
H126  H     H_    0.498011 0.360146 0.908624 0.154105
H127  H     H_    0.360146 0.501989 0.908624 0.154105
H128  H     H_    0.501989 0.639854 0.908624 0.154105

loop_
_geom_bond_atom_site_label_1
_geom_bond_atom_site_label_2
_ccdc_geom_bond_type
Cu5   O9    S    
C166  H90   S    
C30   C45   S    
Cu7   O11   S    
C168  H94   S    
C36   C128  A    
O64   C167  S    
C154  H61   S    
C36   C124  A    
Cu9   O35   S    
Cu10  O37   S    
Cu12  O48   S    
C74   C114  A    
C81   C117  A    
C152  H56   S    
C17   C29   A    
C7    O13   A    
C83   C119  A    
Cu11  O41   S    
C5    O15   A    
C131  H107  S    
C143  H32   S    
C80   C116  A    
C9    C121  A    
C37   C135  A    
Cu3   O7    S    
C165  H87   S    
C163  C164  S    
C13   C125  A    
C96   C108  A    
C15   C127  A    
O53   C145  S    
C82   C98   A    
C135  H111  S    
C20   C132  A    
C21   C133  A    
Cu9   Cu10  S    
C84   H12   S    
C143  H33   S    
C84   C100  A    
C91   C107  A    
C42   O34   A    
C3    O5    A    
C6    O10   A    
O60   C159  S    
C1    O7    A    
C4    O4    A    
C24   C32   A    
O51   C141  S    
Cu1   Cu3   S    
C8    O16   A    
C11   C27   A    
C48   O44   A    
C165  C166  S    
C14   C26   A    
C141  H28   S    
C93   O53   S    
C87   C103  A    
C9    H113  S    
C12   C28   A    
C32   C47   S    
C151  H53   S    
C18   C130  A    
C75   C115  A    
C82   C118  A    
C130  H106  S    
C168  H96   S    
C15   H119  S    
C155  C156  S    
C20   H124  S    
C50   O20   A    
C10   C122  A    
C14   C126  A    
C74   C90   A    
Cu5   Cu7   S    
C138  H19   S    
C155  H63   S    
C167  C168  S    
Cu8   O14   S    
C39   C131  A    
C78   C94   A    
C37   C129  A    
C38   C134  A    
Cu2   O18   S    
C73   C89   A    
C95   O55   S    
C37   C117  S    
C13   H117  S    
C164  H84   S    
C103  O63   S    
O63   C165  S    
Cu7   O27   S    
C148  H45   S    
C77   C115  A    
C1    C105  S    
C47   O47   A    
C42   O40   A    
Cu11  Cu12  S    
C140  H26   S    
C3    O3    A    
C76   C116  A    
C21   C31   A    
C62   C70   T    
C146  H39   S    
O50   C139  S    
C54   O28   A    
C23   C29   A    
C147  C148  S    
O55   C149  S    
C82   H10   S    
C137  H18   S    
C15   C25   A    
Cu1   O17   S    
C33   C127  A    
C49   C57   S    
C129  H105  S    
C148  H44   S    
C35   C125  A    
C97   O57   S    
Cu10  O40   S    
C52   C60   S    
C59   C67   T    
C53   C61   S    
C92   C108  A    
Cu6   O16   S    
C133  H109  S    
C160  H75   S    
C31   C46   S    
C55   C63   S    
C147  H43   S    
C56   C64   S    
Cu7   O15   S    
C142  H29   S    
C75   C91   A    
C24   C136  A    
C34   C122  A    
C49   O19   A    
O57   C153  S    
C44   O38   A    
C158  H70   S    
C50   O18   A    
C52   O22   A    
C88   C104  A    
C140  H24   S    
C159  H73   S    
C16   H120  S    
C18   H122  S    
C14   H118  S    
C90   O50   S    
C41   O33   A    
C124  H100  S    
C104  C112  A    
C167  H92   S    
C11   H115  S    
C139  C140  S    
C96   O56   S    
C88   H16   S    
C79   H7    S    
C2    C106  S    
C45   O45   A    
Cu2   O24   S    
O59   C157  S    
C97   C109  A    
C164  H86   S    
C99   C111  A    
Cu8   O12   S    
C156  H64   S    
Cu5   O29   S    
C139  H23   S    
C150  H50   S    
C49   O17   A    
C162  H80   S    
C44   O36   A    
C79   C113  A    
C56   O30   A    
C36   C116  S    
C20   C32   A    
C46   O42   A    
C145  H37   S    
C146  H41   S    
C22   C30   A    
C5    O9    A    
C122  H98   S    
C8    O12   A    
C149  H47   S    
C154  H60   S    
C65   C72   S    
C33   C113  S    
Cu2   O2    S    
C148  H46   S    
Cu4   O22   S    
C35   C123  A    
Cu9   O34   S    
Cu10  O38   S    
Cu12  O45   S    
C27   C42   S    
C39   C119  S    
C152  H55   S    
C16   C128  A    
Cu11  O44   S    
C142  H31   S    
C10   H114  S    
C102  O62   S    
C89   C105  A    
C153  H57   S    
C165  H88   S    
C52   O24   A    
C53   O25   A    
C145  C146  S    
C86   C102  A    
C16   C28   A    
C98   C110  A    
C85   H13   S    
C128  H104  S    
C55   O31   A    
C19   C31   A    
C149  C150  S    
Cu1   O1    S    
C136  H112  S    
C9    C25   A    
O49   C137  S    
C138  H21   S    
C40   C136  A    
C143  C144  S    
Cu4   O20   S    
C91   O51   S    
Cu5   O13   S    
C38   C130  A    
C87   C117  A    
C8    C112  S    
C157  H67   S    
C76   H4    S    
Cu6   O26   S    
C156  H66   S    
C73   C113  A    
C166  H89   S    
C100  O60   S    
C85   C101  A    
C56   O32   A    
C68   C69   S    
C153  C154  S    
C17   H121  S    
C19   H123  S    
C88   C120  A    
C4    O8    A    
C2    O2    A    
C98   O58   S    
C83   C99   A    
O56   C151  S    
C6    O14   A    
C151  C152  S    
C78   C114  A    
C134  H110  S    
C168  H95   S    
Cu1   O21   S    
C81   H9    S    
C23   H127  S    
C50   C58   S    
Cu5   O25   S    
C90   C106  A    
C157  C158  S    
C94   O54   S    
C78   H6    S    
Cu8   O28   S    
Cu9   O36   S    
Cu2   O8    S    
Cu11  O42   S    
C79   C95   A    
O58   C155  S    
C66   C71   S    
C22   H126  S    
C34   C126  A    
Cu7   O31   S    
C86   C118  A    
C53   O27   A    
C2    O6    A    
C40   C120  S    
C100  C112  A    
Cu12  O47   S    
C34   C114  S    
C41   O37   A    
C89   O49   S    
C39   C133  A    
C161  H77   S    
C45   O41   A    
C73   H1    S    
C11   C123  A    
C57   C65   T    
C99   O59   S    
C101  C111  A    
C54   C62   S    
C28   C43   S    
C23   C135  A    
C103  C109  A    
C144  H36   S    
C127  H103  S    
C162  H79   S    
O54   C147  S    
C5    C109  S    
C77   C93   A    
C7    C111  S    
C141  H27   S    
C51   O23   A    
C38   C118  S    
Cu8   O30   S    
C35   C115  S    
C60   C68   T    
C160  H74   S    
C151  H52   S    
C4    C108  S    
C161  C162  S    
Cu4   O4    S    
C87   H15   S    
C158  H69   S    
Cu6   O10   S    
O61   C161  S    
C159  C160  S    
C147  H42   S    
C22   C134  A    
C24   H128  S    
C155  H62   S    
C167  H93   S    
C144  H34   S    
C141  C142  S    
C85   C119  A    
C54   O26   A    
C95   C105  A    
Cu10  O39   S    
C140  H25   S    
C58   C66   T    
C126  H102  S    
C164  H85   S    
C7    O11   A    
C163  H83   S    
C18   C30   A    
C80   C96   A    
C150  H49   S    
Cu1   O5    S    
C84   C120  A    
C77   H5    S    
C10   C26   A    
C40   C132  A    
C33   C121  A    
C6    C110  S    
O62   C163  S    
Cu3   O23   S    
C25   C44   S    
Cu4   O6    S    
C80   H8    S    
C19   C131  A    
C145  H38   S    
C92   O52   S    
C146  H40   S    
C29   C48   S    
C17   C129  A    
C75   H3    S    
C137  H17   S    
C162  H81   S    
C149  H48   S    
C158  H71   S    
C3    C107  S    
C154  H59   S    
C132  H108  S    
C125  H101  S    
C144  H35   S    
Cu3   O3    S    
Cu9   O33   S    
C163  H82   S    
C51   O21   A    
Cu12  O46   S    
C12   C124  A    
C1    O1    A    
C160  H76   S    
C152  H54   S    
C83   H11   S    
Cu11  O43   S    
C142  H30   S    
Cu2   Cu4   S    
C76   C92   A    
C86   H14   S    
C55   O29   A    
C48   O46   A    
C43   O39   A    
C166  H91   S    
C153  H58   S    
C51   C59   S    
C161  H78   S    
Cu3   O19   S    
C61   C69   T    
C159  H72   S    
C94   C106  A    
C13   C27   A    
C63   C71   T    
C137  C138  S    
C121  H97   S    
C12   H116  S    
C123  H99   S    
C138  H20   S    
C47   O43   A    
C104  O64   S    
C93   C107  A    
C157  H68   S    
C81   C97   A    
C46   O48   A    
C156  H65   S    
Cu6   Cu8   S    
C64   C72   T    
C139  H22   S    
C150  H51   S    
C102  C110  A    
C101  O61   S    
C21   H125  S    
Cu6   O32   S    
C74   H2    S    
C43   O35   A    
C67   C70   S    
O52   C143  S    
C26   C41   S    
