data_mof_unit_41831.cif
_audit_creation_date              2012-12-10T17:09:16-0500
_audit_creation_method            fapswitch 2.2
_symmetry_space_group_name_H-M    P1
_symmetry_Int_Tables_number       1
_space_group_crystal_system       triclinic
_cell_length_a                    18.045107
_cell_length_b                    18.696398
_cell_length_c                    11.88996
_cell_angle_alpha                 89.999974
_cell_angle_beta                  74.774748
_cell_angle_gamma                 90.000129
_cell_volume                      3870.61955908

loop_
_atom_site_label
_atom_site_type_symbol
_atom_type_description
_atom_site_fract_x
_atom_site_fract_y
_atom_site_fract_z
_atom_type_partial_charge
C1    C     C_R   0.399133 0.100660 0.522254 0.902887
C2    C     C_R   0.602411 0.902074 0.477792 0.935525
C3    C     C_R   0.600865 0.100662 0.477746 0.902890
C4    C     C_R   0.397589 0.902074 0.522208 0.935521
C5    C     C_R   0.898895 0.600453 0.522111 0.896710
C6    C     C_R   0.103075 0.402581 0.477694 0.940506
C7    C     C_R   0.101104 0.600453 0.477889 0.896704
C8    C     C_R   0.896925 0.402580 0.522306 0.940506
C9    C     C_R   0.537706 0.007331 0.960836 -0.239571
C10   C     C_R   0.462294 0.007331 0.039164 -0.239569
C11   C     C_R   0.037697 0.507535 0.960790 -0.240985
C12   C     C_R   0.962303 0.507535 0.039210 -0.240984
C13   C     C_R   0.414874 0.977169 0.870177 0.433898
C14   C     C_R   0.585126 0.977169 0.129824 0.433895
C15   C     C_R   0.914660 0.477628 0.870335 0.433884
C16   C     C_R   0.085340 0.477629 0.129665 0.433879
C17   C     C_R   0.398934 0.000367 0.986705 0.292405
C18   C     C_R   0.601066 0.000367 0.013295 0.292389
C19   C     C_R   0.898895 0.500774 0.986876 0.297759
C20   C     C_R   0.101105 0.500774 0.013123 0.297771
C21   C     C_R   0.544119 0.009056 0.835912 0.568199
C22   C     C_R   0.455880 0.009056 0.164088 0.568225
C23   C     C_R   0.044117 0.508988 0.835856 0.571073
C24   C     C_R   0.955883 0.508988 0.164143 0.571067
C25   C     C_R   0.657956 0.159469 0.462456 -0.262075
C26   C     C_R   0.332549 0.853927 0.534746 -0.233345
C27   C     C_R   0.342040 0.159465 0.537540 -0.261929
C28   C     C_R   0.667450 0.853927 0.465254 -0.233351
C29   C     C_R   0.158788 0.658697 0.463550 -0.261852
C30   C     C_R   0.831222 0.354884 0.534349 -0.235702
C31   C     C_R   0.841211 0.658696 0.536450 -0.261846
C32   C     C_R   0.168777 0.354884 0.465652 -0.235709
C33   C     C_R   0.194740 0.831960 0.597948 0.337115
C34   C     C_R   0.779519 0.212769 0.352247 0.316635
C35   C     C_R   0.805260 0.831957 0.402051 0.337114
C36   C     C_R   0.220480 0.212770 0.647754 0.316615
C37   C     C_R   0.692632 0.334780 0.591874 0.399534
C38   C     C_R   0.279890 0.712554 0.352846 0.311284
C39   C     C_R   0.307365 0.334769 0.408104 0.399552
C40   C     C_R   0.720109 0.712553 0.647155 0.311291
C41   C     C_R   0.258226 0.876868 0.593266 0.287284
C42   C     C_R   0.717856 0.165442 0.357866 0.296756
C43   C     C_R   0.741773 0.876866 0.406732 0.287287
C44   C     C_R   0.282143 0.165443 0.642134 0.296825
C45   C     C_R   0.756561 0.378801 0.589869 0.269765
C46   C     C_R   0.217999 0.665508 0.358393 0.304839
C47   C     C_R   0.243438 0.378796 0.410124 0.269761
C48   C     C_R   0.782001 0.665508 0.641608 0.304851
C49   C     C_R   0.342627 0.792403 0.465913 0.371740
C50   C     C_R   0.652094 0.212136 0.550208 0.422690
C51   C     C_R   0.657372 0.792403 0.534088 0.371744
C52   C     C_R   0.347894 0.212123 0.449777 0.422628
C53   C     C_R   0.841344 0.293089 0.465995 0.371166
C54   C     C_R   0.154537 0.709628 0.553557 0.371435
C55   C     C_R   0.158654 0.293090 0.534008 0.371167
C56   C     C_R   0.845460 0.709626 0.446441 0.371429
C57   C     C_R   0.278017 0.756279 0.450504 -0.199183
C58   C     C_R   0.705673 0.268459 0.531494 -0.181505
C59   C     C_R   0.721982 0.756278 0.549496 -0.199176
C60   C     C_R   0.294321 0.268451 0.468493 -0.181419
C61   C     C_R   0.776827 0.257319 0.449172 -0.221923
C62   C     C_R   0.207664 0.766254 0.535259 -0.198604
C63   C     C_R   0.223170 0.257317 0.550827 -0.221932
C64   C     C_R   0.792334 0.766253 0.464740 -0.198607
Cu1   Cu    Cu3+1 0.507800 1.000000 0.383250 1.158422
Cu2   Cu    Cu3+1 0.492200 0.000000 0.616750 1.158456
Cu3   Cu    Cu3+1 0.007800 0.500000 0.383250 1.158774
Cu4   Cu    Cu3+1 0.992200 0.500000 0.616750 1.158774
N1    N     N_R   0.519530 0.000000 0.207810 -0.295763
N2    N     N_R   0.480470 1.000000 0.792190 -0.295754
N3    N     N_R   0.019530 0.500000 0.207810 -0.296006
N4    N     N_R   0.980470 0.500000 0.792190 -0.296004
O1    O     O_R   0.430030 0.075530 0.417420 -0.521138
O2    O     O_R   0.569970 0.924470 0.582580 -0.546393
O3    O     O_R   0.569970 0.075530 0.582580 -0.521131
O4    O     O_R   0.430030 0.924470 0.417420 -0.546391
O5    O     O_R   0.930030 0.575530 0.417420 -0.519907
O6    O     O_R   0.069970 0.424470 0.582580 -0.546409
O7    O     O_R   0.069970 0.575530 0.582580 -0.519907
O8    O     O_R   0.930030 0.424470 0.417420 -0.546411
O9    O     O_R   0.416860 0.075510 0.614610 -0.541828
O10   O     O_R   0.583140 0.924490 0.385390 -0.513872
O11   O     O_R   0.583140 0.075510 0.385390 -0.541863
O12   O     O_R   0.416860 0.924490 0.614610 -0.513878
O13   O     O_R   0.916860 0.575510 0.614610 -0.542123
O14   O     O_R   0.083140 0.424490 0.385390 -0.512997
O15   O     O_R   0.083140 0.575510 0.385390 -0.542126
O16   O     O_R   0.916860 0.424490 0.614610 -0.512998
S1    S     S_3+6 0.614438 0.887423 0.140937 0.150505
O17   O     O_2   0.686054 0.884946 0.182378 -0.220367
O18   O     O_2   0.551924 0.845616 0.222820 -0.147235
O19   O     O_3   0.632483 0.847920 0.009744 -0.440428
H1    H     H_    0.688414 0.838383 0.987495 0.409396
S2    S     S_3+6 0.385560 0.887424 0.859063 0.150498
O20   O     O_2   0.313944 0.884947 0.817622 -0.220373
O21   O     O_2   0.448074 0.845615 0.777182 -0.147237
O22   O     O_3   0.367514 0.847921 0.990257 -0.440435
H2    H     H_    0.311583 0.838380 0.012502 0.409398
S3    S     S_3+6 0.116251 0.388414 0.141036 0.148367
O23   O     O_2   0.187248 0.387450 0.184206 -0.222496
O24   O     O_2   0.054036 0.345603 0.221722 -0.148060
O25   O     O_3   0.136283 0.348970 0.009592 -0.444371
H3    H     H_    0.191844 0.337827 0.990368 0.408689
S4    S     S_3+6 0.883750 0.388413 0.858964 0.148364
O26   O     O_2   0.812752 0.387447 0.815796 -0.222505
O27   O     O_2   0.945965 0.345603 0.778277 -0.148056
O28   O     O_3   0.863720 0.348969 0.990408 -0.444378
H4    H     H_    0.808157 0.337832 0.009639 0.408671
Cl1   Cl    Cl    0.366150 0.009531 0.266495 -0.429551
Cl2   Cl    Cl    0.633850 0.009535 0.733506 -0.429577
Cl3   Cl    Cl    0.866195 0.508680 0.266683 -0.427219
Cl4   Cl    Cl    0.133805 0.508681 0.733317 -0.427242
Cl5   Cl    Cl    0.589057 0.201236 0.691600 -0.413714
Cl6   Cl    Cl    0.435329 0.754008 0.419494 -0.332959
Cl7   Cl    Cl    0.410907 0.201207 0.308370 -0.414186
Cl8   Cl    Cl    0.564669 0.754008 0.580509 -0.332955
Cl9   Cl    Cl    0.093938 0.696641 0.696242 -0.390603
Cl10  Cl    Cl    0.933893 0.254175 0.421296 -0.332215
Cl11  Cl    Cl    0.906056 0.696637 0.303755 -0.390597
Cl12  Cl    Cl    0.066103 0.254179 0.578713 -0.332211
Cl13  Cl    Cl    0.718249 0.112577 0.234772 -0.365484
Cl14  Cl    Cl    0.245559 0.963502 0.654346 -0.387726
Cl15  Cl    Cl    0.281755 0.112581 0.765230 -0.365419
Cl16  Cl    Cl    0.754442 0.963499 0.345652 -0.387700
Cl17  Cl    Cl    0.217560 0.613501 0.234713 -0.362797
Cl18  Cl    Cl    0.743916 0.465519 0.650561 -0.385364
Cl19  Cl    Cl    0.782443 0.613504 0.765290 -0.362831
Cl20  Cl    Cl    0.256088 0.465516 0.349440 -0.385380
S5    S     S_3+6 0.597902 0.370472 0.645407 0.149126
O29   O     O_2   0.575984 0.367439 0.776328 -0.154695
O30   O     O_2   0.595574 0.446980 0.607611 -0.160348
O31   O     O_3   0.533253 0.324811 0.594575 -0.491898
H5    H     H_    0.482616 0.343535 0.638862 0.408059
S6    S     S_3+6 0.351544 0.725623 0.217965 0.188333
O32   O     O_2   0.412783 0.669662 0.207166 -0.083009
O33   O     O_2   0.318079 0.718849 0.115366 -0.177593
O34   O     O_3   0.391740 0.807215 0.212154 -0.415103
H6    H     H_    0.348029 0.841100 0.228208 0.358387
S7    S     S_3+6 0.402100 0.370441 0.354519 0.148981
O35   O     O_2   0.423990 0.367371 0.223600 -0.155038
O36   O     O_2   0.404465 0.446958 0.392248 -0.159955
O37   O     O_3   0.466744 0.324783 0.405367 -0.492418
H7    H     H_    0.517404 0.342971 0.360277 0.407979
S8    S     S_3+6 0.648456 0.725622 0.782037 0.188325
O38   O     O_2   0.587217 0.669662 0.792836 -0.083018
O39   O     O_2   0.681921 0.718849 0.884635 -0.177604
O40   O     O_3   0.608260 0.807214 0.787847 -0.415101
H8    H     H_    0.651971 0.841100 0.771792 0.358386
S9    S     S_3+6 0.099852 0.865785 0.658405 0.176894
O41   O     O_2   0.079501 0.857210 0.788583 -0.106862
O42   O     O_2   0.094526 0.943642 0.630011 -0.147995
O43   O     O_3   0.035421 0.822021 0.605096 -0.476602
H9    H     H_    0.059259 0.820666 0.520067 0.348967
S10   S     S_3+6 0.851744 0.225273 0.217813 0.189536
O44   O     O_2   0.912598 0.169039 0.208055 -0.081655
O45   O     O_2   0.818682 0.218389 0.114812 -0.178831
O46   O     O_3   0.892384 0.306689 0.211647 -0.414301
H10   H     H_    0.848901 0.340806 0.226585 0.359713
S11   S     S_3+6 0.900148 0.865782 0.341592 0.176894
O47   O     O_2   0.920496 0.857209 0.211414 -0.106862
O48   O     O_2   0.905475 0.943638 0.369989 -0.147993
O49   O     O_3   0.964579 0.822016 0.394895 -0.476602
H11   H     H_    0.940741 0.820655 0.479924 0.348961
S12   S     S_3+6 0.148258 0.225275 0.782189 0.189550
O50   O     O_2   0.087402 0.169043 0.791950 -0.081667
O51   O     O_2   0.181320 0.218391 0.885189 -0.178804
O52   O     O_3   0.107620 0.306692 0.788355 -0.414302
H12   H     H_    0.151103 0.340808 0.773413 0.359719
S13   S     S_3+6 0.298968 0.011583 0.055570 0.137537
O53   O     O_2   0.269408 0.952364 0.141106 -0.241565
O54   O     O_2   0.285596 0.082795 0.116317 -0.154214
O55   O     O_3   0.248385 0.008845 0.955579 -0.410569
H13   H     H_    0.194393 0.017166 0.999865 0.423347
S14   S     S_3+6 0.701032 0.011582 0.944430 0.137520
O56   O     O_2   0.730591 0.952363 0.858892 -0.241558
O57   O     O_2   0.714405 0.082795 0.883684 -0.154256
O58   O     O_3   0.751615 0.008842 0.044421 -0.410575
H14   H     H_    0.805605 0.017166 0.000139 0.423356
S15   S     S_3+6 0.799004 0.512559 0.055950 0.137447
O59   O     O_2   0.768987 0.453166 0.140935 -0.244922
O60   O     O_2   0.786228 0.583577 0.117374 -0.151138
O61   O     O_3   0.748296 0.510753 0.956099 -0.412005
H15   H     H_    0.694404 0.519404 0.000541 0.420993
S16   S     S_3+6 0.200996 0.512559 0.944049 0.137448
O62   O     O_2   0.231012 0.453165 0.859065 -0.244950
O63   O     O_2   0.213774 0.583576 0.882623 -0.151124
O64   O     O_3   0.251705 0.510753 0.043900 -0.411989
H16   H     H_    0.305602 0.519361 0.999449 0.420988

loop_
_geom_bond_atom_site_label_1
_geom_bond_atom_site_label_2
_ccdc_geom_bond_type
C6    C32   S    
O46   H10   S    
C7    C29   S    
S13   O53   D    
C14   C18   A    
C30   C45   A    
O40   H8    S    
Cu3   O5    S    
C1    O1    A    
S6    O34   S    
S4    O27   D    
C21   Cl2   S    
Cu1   O1    S    
C57   C62   A    
C10   C22   A    
C15   C19   A    
C15   N4    A    
C24   Cl3   S    
C59   C64   A    
Cu1   O4    S    
C60   C63   A    
C39   C47   A    
S12   O50   D    
S5    O29   D    
S9    O42   D    
C27   C52   A    
C28   C51   A    
C17   S13   S    
Cu1   O11   S    
C29   C54   A    
C39   C60   A    
C10   C17   A    
C1    O9    A    
Cu2   O2    S    
C49   C57   A    
S16   O62   D    
C6    O6    A    
C25   C50   A    
C52   C60   A    
S14   O56   D    
C53   C61   A    
C27   C44   A    
C7    O15   A    
S11   O47   D    
C37   S5    S    
C34   C42   A    
C55   C63   A    
O28   H4    S    
C56   C64   A    
C35   C64   A    
C15   S4    S    
S1    O18   D    
C36   C63   A    
C3    O3    A    
C9    C10   A    
C22   N1    A    
S10   O45   D    
C37   C58   A    
C2    O2    A    
C16   C20   A    
C42   Cl13  S    
C20   S16   S    
S15   O61   S    
C5    O13   A    
Cu4   O7    S    
Cu2   O9    S    
C49   Cl6   S    
C40   C59   A    
S15   O60   D    
Cu4   O13   S    
S13   O54   D    
O25   H3    S    
C16   N3    A    
S8    O40   S    
S4    O26   D    
O22   H2    S    
S14   O57   D    
C55   Cl12  S    
C34   S10   S    
Cu4   O6    S    
C30   C53   A    
C39   S7    S    
C11   C20   A    
C4    O4    A    
Cu3   Cu4   S    
C50   C58   A    
C47   Cl20  S    
S10   O46   S    
S8    O39   D    
C26   C49   A    
O52   H12   S    
C53   Cl10  S    
C33   C62   A    
S6    O33   D    
C54   C62   A    
S2    O22   S    
C34   C61   A    
C8    O16   A    
C41   Cl14  S    
C13   S2    S    
C14   S1    S    
C23   Cl4   S    
C38   C57   A    
S3    O23   D    
C4    O12   A    
C3    C25   S    
C45   Cl18  S    
Cu4   N4    S    
C22   Cl1   S    
C8    O8    A    
S11   O48   D    
S11   O49   S    
S1    O19   S    
S2    O21   D    
S14   O58   S    
S10   O44   D    
C28   C43   A    
C18   S14   S    
S3    O24   D    
O58   H14   S    
C31   C48   A    
C40   S8    S    
C3    O11   A    
Cu4   O16   S    
C14   N1    A    
C56   Cl11  S    
C2    O10   A    
C51   C59   A    
C5    O5    A    
C19   S15   S    
C35   C43   A    
O55   H13   S    
S7    O35   D    
C7    O7    A    
O49   H11   S    
C52   Cl7   S    
C40   C48   A    
C12   C24   A    
Cu3   O14   S    
C32   C55   A    
C23   N4    A    
S12   O52   S    
Cu3   O8    S    
S8    O38   D    
C25   C42   A    
C46   Cl17  S    
C4    C26   S    
C11   C12   A    
C16   S3    S    
S6    O32   D    
O34   H6    S    
C29   C46   A    
C44   Cl15  S    
Cu3   O15   S    
C51   Cl8   S    
C6    O14   A    
S16   O64   S    
C13   C17   A    
C21   N2    A    
C50   Cl5   S    
C33   C41   A    
S5    O31   S    
S12   O51   D    
C8    C30   S    
S9    O43   S    
C1    C27   S    
C33   S9    S    
S9    O41   D    
C48   Cl19  S    
S7    O36   D    
C9    C21   A    
Cu1   O10   S    
Cu2   N2    S    
S7    O37   S    
C58   C61   A    
Cu1   N1    S    
Cu2   O3    S    
C12   C19   A    
C11   C23   A    
O19   H1    S    
C32   C47   A    
S16   O63   D    
O31   H5    S    
C31   C56   A    
Cu3   N3    S    
C38   S6    S    
S2    O20   D    
C35   S11   S    
C38   C46   A    
C36   C44   A    
Cu2   O12   S    
S15   O59   D    
C9    C18   A    
O64   H16   S    
S3    O25   S    
O43   H9    S    
C26   C41   A    
Cu1   Cu2   S    
C13   N2    A    
C54   Cl9   S    
C36   S12   S    
O37   H7    S    
C2    C28   S    
S13   O55   S    
C5    C31   S    
S1    O17   D    
C37   C45   A    
C43   Cl16  S    
S4    O28   S    
O61   H15   S    
C24   N3    A    
S5    O30   D    
