data_mof_unit_34208.cif
_audit_creation_date              2012-12-10T20:49:09-0500
_audit_creation_method            fapswitch 2.2
_symmetry_space_group_name_H-M    P1
_symmetry_Int_Tables_number       1
_space_group_crystal_system       triclinic
_cell_length_a                    8.968662
_cell_length_b                    8.175389
_cell_length_c                    10.609699
_cell_angle_alpha                 90.73983
_cell_angle_beta                  90.557232
_cell_angle_gamma                 89.636916
_cell_volume                      777.810892186

loop_
_atom_site_label
_atom_site_type_symbol
_atom_type_description
_atom_site_fract_x
_atom_site_fract_y
_atom_site_fract_z
_atom_type_partial_charge
C1    C     C_R   0.218204 0.500338 0.501008 0.932395
C2    C     C_3   0.636089 0.535929 0.050373 0.105973
C3    C     C_3   0.517377 0.505169 0.875957 -0.191148
C4    C     C_3   0.494259 0.493196 0.122735 -0.166005
C5    C     C_1   0.065207 0.500514 0.504094 -0.156609
C6    C     C_1   0.934862 0.499648 0.505773 -0.151791
C7    C     C_3   0.114874 0.379957 0.964517 -0.700347
C8    C     C_3   0.851152 0.473367 0.189784 -0.711319
C9    C     C_2   0.275106 0.718981 0.073824 0.915853
C10   C     C_2   0.732459 0.278739 0.913456 0.877797
C11   C     C_2   0.600120 0.818971 0.940261 1.011949
C12   C     C_R   0.781726 0.499800 0.505075 0.933934
C13   C     C_2   0.414019 0.176414 0.056827 1.007742
C14   C     C_R   0.491783 0.498328 0.257201 0.959064
C15   C     C_R   0.511403 0.501538 0.742074 0.963660
C16   C     C_3   0.401564 0.607277 0.037816 -0.092432
C17   C     C_3   0.610762 0.390560 0.959349 -0.099253
C18   C     C_3   0.544085 0.651180 0.965852 -0.135983
C19   C     C_3   0.467957 0.345564 0.031965 -0.113454
C20   C     C_3   0.376860 0.461075 0.947908 0.102483
H1    H     H_    0.246336 0.349164 0.806057 0.254583
H2    H     H_    0.866226 0.208821 0.770527 0.347908
H3    H     H_    0.653803 0.988536 0.812032 0.357609
H4    H     H_    0.367828 0.003054 0.183818 0.355940
H5    H     H_    0.010127 0.428239 0.922926 0.255047
H6    H     H_    0.128654 0.432567 0.060719 0.228629
H7    H     H_    0.107294 0.244873 0.971403 0.276032
H8    H     H_    0.849702 0.633987 0.039950 0.246917
H9    H     H_    0.944722 0.536714 0.238510 0.237251
H10   H     H_    0.896288 0.366573 0.138367 0.264544
H11   H     H_    0.773511 0.428122 0.260655 0.244140
H12   H     H_    0.136983 0.801758 0.209549 0.349415
N1    N     N_1   0.500000 0.073640 0.500000 0.010877
N2    N     N_1   0.500000 0.926360 0.500000 0.011943
N3    N     N_2   0.236897 0.423884 0.884562 -0.289097
N4    N     N_2   0.778107 0.585749 0.104966 -0.277418
O1    O     O_R   0.285350 0.636850 0.500000 -0.596787
O2    O     O_R   0.225312 0.725176 0.198146 -0.835520
O3    O     O_2   0.789069 0.180248 0.985176 -0.590841
O4    O     O_R   0.782938 0.289524 0.789697 -0.822555
O5    O     O_2   0.636242 0.906527 0.029276 -0.568212
O6    O     O_R   0.615348 0.872989 0.816916 -0.760652
O7    O     O_2   0.376711 0.089298 0.967808 -0.600037
O8    O     O_R   0.403890 0.119647 0.179788 -0.759312
O9    O     O_R   0.714650 0.363150 0.500000 -0.607276
O10   O     O_R   0.714650 0.636850 0.500000 -0.610087
O11   O     O_R   0.285350 0.363150 0.500000 -0.625156
O12   O     O_R   0.499970 0.636850 0.313950 -0.583518
O13   O     O_R   0.500030 0.363150 0.686050 -0.613757
O14   O     O_R   0.500030 0.636850 0.686050 -0.574917
O15   O     O_R   0.499970 0.363150 0.313950 -0.588731
O16   O     O_2   0.211666 0.798708 0.992538 -0.557197
Zn1   Zn    Zn3+2 0.500000 0.682780 0.500000 1.075315
Zn2   Zn    Zn3+2 0.500000 0.317220 0.500000 1.052414

loop_
_geom_bond_atom_site_label_1
_geom_bond_atom_site_label_2
_ccdc_geom_bond_type
C4    C16   S    
C2    C4    S    
C11   C18   S    
C3    C17   S    
H1    N3    S    
H12   O2    S    
C2    C18   S    
C19   C20   S    
C7    H5    S    
C1    O1    A    
C16   C20   S    
O15   Zn2   S    
O1    Zn1   S    
N1    N2    T    
C8    H10   S    
C3    C20   S    
C2    C17   S    
C6    C12   S    
C9    O16   D    
C5    C6    T    
H3    O6    S    
C7    H6    S    
C3    C18   S    
O11   Zn2   S    
C1    C5    S    
C8    H9    S    
O10   Zn1   S    
C10   O4    S    
C9    O2    S    
C17   C19   S    
C9    C16   S    
O9    Zn2   S    
C11   O5    D    
C15   O13   A    
C4    C14   S    
O12   Zn1   S    
H4    O8    S    
O14   Zn1   S    
C10   O3    D    
C13   C19   S    
C10   C17   S    
O13   Zn2   S    
C13   O7    D    
C7    H7    S    
H8    N4    S    
N2    Zn1   S    
C16   C18   S    
C8    N4    S    
C15   O14   A    
C2    N4    S    
N1    Zn2   S    
H2    O4    S    
C1    O11   A    
C3    C15   S    
C14   O12   A    
C11   O6    S    
C4    C19   S    
C7    N3    S    
C20   N3    S    
C13   O8    S    
C8    H11   S    
C14   O15   A    
C12   O9    A    
C12   O10   A    
