data_mof_unit_61755.cif
_audit_creation_date              2012-12-10T20:07:59-0500
_audit_creation_method            fapswitch 2.2
_symmetry_space_group_name_H-M    P1
_symmetry_Int_Tables_number       1
_space_group_crystal_system       triclinic
_cell_length_a                    22.535216
_cell_length_b                    36.14407
_cell_length_c                    22.531949
_cell_angle_alpha                 89.996943
_cell_angle_beta                  90.000167
_cell_angle_gamma                 89.999047
_cell_volume                      18352.5974454

loop_
_atom_site_label
_atom_site_type_symbol
_atom_type_description
_atom_site_fract_x
_atom_site_fract_y
_atom_site_fract_z
_atom_type_partial_charge
C1    C     C_R   0.500025 0.849626 0.749964 0.827838
C2    C     C_R   0.000022 0.849627 0.750030 0.828890
C3    C     C_R   0.339848 0.250000 0.750000 0.844843
C4    C     C_R   0.839848 0.750000 0.250000 0.847295
C5    C     C_R   0.839848 0.750000 0.750000 0.845048
C6    C     C_R   0.839848 0.250000 0.750000 0.847794
C7    C     C_R   0.839848 0.250000 0.250000 0.845101
C8    C     C_R   0.660150 0.750000 0.750000 0.838675
C9    C     C_R   0.660149 0.750000 0.250000 0.839996
C10   C     C_R   0.660150 0.250000 0.250000 0.840315
C11   C     C_R   0.660149 0.250000 0.750000 0.841798
C12   C     C_R   0.160150 0.750000 0.250000 0.839110
C13   C     C_R   0.000027 0.150373 0.750036 0.827973
C14   C     C_R   0.160149 0.750000 0.750000 0.841675
C15   C     C_R   0.160150 0.250000 0.750000 0.838826
C16   C     C_R   0.160149 0.250000 0.250000 0.841253
C17   C     C_1   0.723379 0.750000 0.750000 -0.149801
C18   C     C_1   0.723379 0.750000 0.250000 -0.149625
C19   C     C_1   0.723379 0.250000 0.250000 -0.150692
C20   C     C_1   0.723379 0.250000 0.750000 -0.150095
C21   C     C_1   0.223379 0.750000 0.250000 -0.149024
C22   C     C_1   0.223379 0.750000 0.750000 -0.149430
C23   C     C_1   0.223379 0.250000 0.750000 -0.149977
C24   C     C_R   0.000019 0.150374 0.249965 0.828901
C25   C     C_1   0.223378 0.250000 0.250000 -0.150431
C26   C     C_1   0.776619 0.750000 0.750000 -0.150813
C27   C     C_1   0.776619 0.750000 0.250000 -0.150295
C28   C     C_1   0.776619 0.250000 0.250000 -0.151046
C29   C     C_1   0.776619 0.250000 0.750000 -0.150005
C30   C     C_1   0.276619 0.750000 0.250000 -0.150043
C31   C     C_1   0.276619 0.750000 0.750000 -0.149469
C32   C     C_1   0.276619 0.250000 0.750000 -0.150942
C33   C     C_1   0.276619 0.250000 0.250000 -0.150462
C34   C     C_3   0.529881 0.521655 0.812131 -0.178677
C35   C     C_R   0.000025 0.349627 0.749964 0.828002
C36   C     C_3   0.530124 0.521661 0.187992 -0.178612
C37   C     C_3   0.527798 0.478039 0.187379 -0.193410
C38   C     C_3   0.527550 0.478033 0.812733 -0.193539
C39   C     C_3   0.529746 0.021656 0.312194 -0.176180
C40   C     C_3   0.527559 0.021965 0.687273 -0.195017
C41   C     C_3   0.529883 0.978343 0.687875 -0.176243
C42   C     C_3   0.527420 0.978033 0.312790 -0.194954
C43   C     C_3   0.029767 0.521656 0.312184 -0.176386
C44   C     C_3   0.027389 0.521965 0.687194 -0.195133
C45   C     C_3   0.029714 0.478343 0.687790 -0.176334
C46   C     C_R   0.000021 0.349627 0.250031 0.828757
C47   C     C_3   0.027442 0.478034 0.312781 -0.195067
C48   C     C_3   0.031912 0.021656 0.811053 -0.178981
C49   C     C_3   0.037453 0.021961 0.192869 -0.194390
C50   C     C_3   0.039654 0.978340 0.193861 -0.175796
C51   C     C_3   0.029607 0.978034 0.811732 -0.197810
C52   C     C_3   0.534707 0.521554 0.700238 -0.453216
C53   C     C_3   0.534510 0.521550 0.299904 -0.453058
C54   C     C_3   0.536579 0.478676 0.298963 -0.426286
C55   C     C_3   0.536770 0.478679 0.701185 -0.426075
C56   C     C_3   0.534809 0.021553 0.200311 -0.453895
C57   C     C_R   0.000026 0.650373 0.250036 0.828291
C58   C     C_3   0.536764 0.021321 0.798822 -0.426548
C59   C     C_3   0.534703 0.978446 0.799768 -0.453758
C60   C     C_3   0.536866 0.978679 0.201261 -0.426922
C61   C     C_3   0.034798 0.521553 0.200300 -0.453045
C62   C     C_3   0.036900 0.521321 0.798717 -0.425990
C63   C     C_3   0.034841 0.478446 0.799670 -0.453542
C64   C     C_3   0.036856 0.478679 0.201249 -0.426526
C65   C     C_3   0.033063 0.021553 0.699061 -0.452982
C66   C     C_3   0.028167 0.021325 0.304414 -0.426824
C67   C     C_3   0.025972 0.978450 0.305020 -0.453573
C68   C     C_R   0.000022 0.650373 0.749969 0.828990
C69   C     C_3   0.035155 0.978678 0.699941 -0.425643
C70   C     C_1   0.999687 0.889257 0.750593 -0.132936
C71   C     C_1   0.999688 0.889254 0.249305 -0.112539
C72   C     C_1   0.999747 0.110744 0.249448 -0.133149
C73   C     C_1   0.999611 0.110746 0.750749 -0.112540
C74   C     C_1   0.999661 0.389257 0.250615 -0.133471
C75   C     C_1   0.999579 0.389254 0.749229 -0.112873
C76   C     C_1   0.999662 0.610743 0.749384 -0.132991
C77   C     C_1   0.999580 0.610746 0.250772 -0.112427
C78   C     C_1   0.499659 0.889257 0.250615 -0.133442
C79   C     C_3   0.499380 0.536636 0.754289 0.295265
C80   C     C_1   0.499580 0.889254 0.749230 -0.112882
C81   C     C_1   0.499663 0.110743 0.749385 -0.133377
C82   C     C_1   0.499579 0.110746 0.250773 -0.113314
C83   C     C_1   0.499661 0.389257 0.750614 -0.133871
C84   C     C_1   0.499668 0.389257 0.249383 -0.133923
C85   C     C_1   0.499580 0.610746 0.249232 -0.111979
C86   C     C_1   0.499581 0.610746 0.750773 -0.112012
C87   C     C_2   0.509112 0.539333 0.869801 0.493908
C88   C     C_2   0.509581 0.539343 0.130242 0.493868
C89   C     C_2   0.499400 0.461173 0.132489 0.370991
C90   C     C_3   0.499395 0.536636 0.245715 0.295156
C91   C     C_2   0.498935 0.461162 0.867509 0.371155
C92   C     C_2   0.508849 0.039332 0.369818 0.490592
C93   C     C_2   0.498959 0.038838 0.632490 0.372816
C94   C     C_2   0.509111 0.960667 0.630205 0.490649
C95   C     C_2   0.498702 0.961161 0.367510 0.372914
C96   C     C_2   0.008886 0.539332 0.369815 0.490757
C97   C     C_2   0.998638 0.538839 0.632490 0.372906
C98   C     C_2   0.008783 0.460667 0.630177 0.490747
C99   C     C_2   0.998739 0.461160 0.367510 0.372939
C100  C     C_2   0.013043 0.039333 0.869372 0.493087
C101  C     C_3   0.499534 0.463359 0.246397 0.295470
C102  C     C_2   0.018246 0.038827 0.134122 0.371243
C103  C     C_2   0.028675 0.960655 0.133562 0.490471
C104  C     C_2   0.002812 0.961163 0.867421 0.377399
C105  C     C_R   0.500021 0.849627 0.250031 0.828344
C106  C     C_3   0.499518 0.463359 0.753603 0.295378
C107  C     C_3   0.499368 0.036635 0.254287 0.296258
C108  C     C_3   0.499519 0.036641 0.746398 0.295583
C109  C     C_3   0.499379 0.963365 0.745715 0.295845
C110  C     C_3   0.499508 0.963359 0.253604 0.296033
C111  C     C_3   0.999372 0.536635 0.254286 0.295323
C112  C     C_3   0.999511 0.536641 0.746396 0.295128
C113  C     C_3   0.999369 0.463365 0.745714 0.295593
C114  C     C_3   0.999512 0.463359 0.253603 0.295435
C115  C     C_3   0.999529 0.036635 0.754243 0.296037
C116  C     C_R   0.500026 0.150373 0.250036 0.828264
C117  C     C_3   0.000066 0.036641 0.246567 0.295308
C118  C     C_3   0.000039 0.963365 0.245886 0.295259
C119  C     C_3   0.999646 0.963359 0.753556 0.295458
C120  C     C_3   0.935391 0.978511 0.748429 -0.363843
C121  C     C_3   0.935930 0.978671 0.239564 -0.351247
C122  C     C_3   0.935696 0.021492 0.243146 -0.363449
C123  C     C_3   0.935149 0.021331 0.752018 -0.351528
C124  C     C_3   0.935474 0.478511 0.246255 -0.363594
C125  C     C_3   0.935108 0.478671 0.750224 -0.351468
C126  C     C_3   0.935478 0.521491 0.753800 -0.363597
C127  C     C_R   0.500022 0.150373 0.749969 0.828908
C128  C     C_3   0.935107 0.521331 0.249832 -0.351494
C129  C     C_3   0.435472 0.978511 0.246237 -0.363758
C130  C     C_3   0.435106 0.978670 0.750048 -0.351456
C131  C     C_3   0.435467 0.021491 0.753625 -0.363623
C132  C     C_3   0.435104 0.021331 0.249814 -0.351671
C133  C     C_3   0.435467 0.478512 0.746367 -0.363726
C134  C     C_3   0.435455 0.478510 0.253381 -0.363675
C135  C     C_3   0.435107 0.521330 0.249798 -0.351353
C136  C     C_3   0.435107 0.521332 0.749952 -0.351312
C137  C     C_1   0.999574 0.922577 0.751629 -0.114755
C138  C     C_R   0.500023 0.349627 0.249968 0.828212
C139  C     C_1   0.999687 0.922574 0.248057 -0.055189
C140  C     C_1   0.999753 0.077423 0.248451 -0.114105
C141  C     C_1   0.999458 0.077426 0.752036 -0.055422
C142  C     C_1   0.999508 0.422577 0.251666 -0.114414
C143  C     C_1   0.999377 0.422574 0.747929 -0.055064
C144  C     C_1   0.999509 0.577423 0.748333 -0.114119
C145  C     C_1   0.999379 0.577426 0.252072 -0.054772
C146  C     C_1   0.499506 0.922577 0.251667 -0.114706
C147  C     C_1   0.499382 0.922574 0.747930 -0.055172
C148  C     C_1   0.499512 0.077423 0.748334 -0.114377
C149  C     C_R   0.500021 0.349627 0.750031 0.828521
C150  C     C_1   0.499376 0.077426 0.252073 -0.055327
C151  C     C_1   0.499511 0.422577 0.751665 -0.114451
C152  C     C_1   0.499521 0.422577 0.248333 -0.114577
C153  C     C_1   0.499388 0.577426 0.247930 -0.054837
C154  C     C_1   0.499383 0.577426 0.752075 -0.054983
C155  C     C_1   0.499984 0.749993 0.526621 -0.148064
C156  C     C_1   0.499982 0.749992 0.473379 -0.148866
C157  C     C_1   0.499984 0.250007 0.473379 -0.148009
C158  C     C_1   0.499982 0.250008 0.526621 -0.148770
C159  C     C_1   0.499984 0.249993 0.026621 -0.150782
C160  C     C_R   0.500025 0.650373 0.750037 0.828492
C161  C     C_1   0.499982 0.249992 0.973379 -0.150929
C162  C     C_1   0.499983 0.750007 0.973379 -0.146058
C163  C     C_1   0.499982 0.750008 0.026621 -0.146222
C164  C     C_1   0.999984 0.749993 0.026621 -0.147010
C165  C     C_1   0.999983 0.749992 0.973379 -0.148178
C166  C     C_1   0.999984 0.250007 0.973379 -0.147744
C167  C     C_1   0.999982 0.250008 0.026621 -0.148712
C168  C     C_1   0.999984 0.249993 0.526621 -0.147941
C169  C     C_1   0.999982 0.249992 0.473379 -0.148942
C170  C     C_1   0.999984 0.750007 0.473379 -0.147991
C171  C     C_R   0.500024 0.650373 0.249965 0.828804
C172  C     C_1   0.999982 0.750008 0.526621 -0.148914
C173  C     C_R   0.499993 0.750004 0.910149 0.845347
C174  C     C_R   0.499992 0.750005 0.089850 0.845893
C175  C     C_R   0.499993 0.249995 0.089851 0.842604
C176  C     C_R   0.499992 0.249995 0.910149 0.843231
C177  C     C_R   0.499993 0.250005 0.410149 0.845716
C178  C     C_R   0.499992 0.250005 0.589851 0.843978
C179  C     C_R   0.499993 0.749995 0.589851 0.844868
C180  C     C_R   0.499992 0.749995 0.410149 0.843193
C181  C     C_R   0.999993 0.750004 0.410149 0.845041
C182  C     C_R   0.000023 0.849626 0.249961 0.826953
C183  C     C_R   0.999992 0.750005 0.589851 0.843815
C184  C     C_R   0.999993 0.249995 0.589851 0.845023
C185  C     C_R   0.999992 0.249995 0.410149 0.843952
C186  C     C_R   0.999993 0.250005 0.910149 0.844829
C187  C     C_R   0.999992 0.250005 0.089850 0.843729
C188  C     C_R   0.999993 0.749995 0.089851 0.844786
C189  C     C_R   0.999992 0.749995 0.910149 0.843893
C190  C     C_R   0.339848 0.750000 0.750000 0.848190
C191  C     C_R   0.339848 0.750000 0.250000 0.846812
C192  C     C_R   0.339848 0.250000 0.250000 0.846221
H1    H     H_    0.076485 0.968201 0.811188 0.082048
H2    H     H_    0.577546 0.970364 0.690986 0.077267
H3    H     H_    0.574431 0.031797 0.686282 0.081058
H4    H     H_    0.577416 0.029633 0.309187 0.076863
H5    H     H_    0.574420 0.468197 0.813733 0.081102
H6    H     H_    0.574671 0.468204 0.186563 0.080969
H7    H     H_    0.577775 0.529637 0.191291 0.078044
H8    H     H_    0.577545 0.529630 0.809021 0.077940
H9    H     H_    0.513613 0.531007 0.658203 0.185691
H10   H     H_    0.513251 0.531000 0.341856 0.185702
H11   H     H_    0.519158 0.467775 0.341768 0.183820
H12   H     H_    0.086154 0.970366 0.204791 0.077736
H13   H     H_    0.519517 0.467783 0.658310 0.183830
H14   H     H_    0.513806 0.031008 0.158232 0.185595
H15   H     H_    0.519503 0.032217 0.841693 0.183583
H16   H     H_    0.513609 0.968992 0.841802 0.185602
H17   H     H_    0.519698 0.967783 0.158352 0.183526
H18   H     H_    0.013783 0.531008 0.158227 0.185828
H19   H     H_    0.019757 0.532217 0.841637 0.183829
H20   H     H_    0.013863 0.468992 0.841761 0.185711
H21   H     H_    0.019675 0.467783 0.158345 0.183688
H22   H     H_    0.010603 0.031007 0.657742 0.185623
H23   H     H_    0.083847 0.031796 0.199601 0.081410
H24   H     H_    0.004083 0.032226 0.343854 0.183858
H25   H     H_    0.998235 0.969001 0.343001 0.185907
H26   H     H_    0.016500 0.967782 0.657657 0.183605
H27   H     H_    0.580789 0.532644 0.700593 0.177542
H28   H     H_    0.580592 0.532642 0.299732 0.177692
H29   H     H_    0.583462 0.469281 0.295124 0.177620
H30   H     H_    0.583638 0.469284 0.705209 0.177777
H31   H     H_    0.580891 0.032642 0.200765 0.176533
H32   H     H_    0.583631 0.030717 0.794807 0.177382
H33   H     H_    0.580786 0.967356 0.799415 0.177068
H34   H     H_    0.079448 0.029633 0.806380 0.078189
H35   H     H_    0.583725 0.969281 0.205378 0.176757
H36   H     H_    0.080880 0.532642 0.200741 0.177727
H37   H     H_    0.083756 0.530717 0.794573 0.177868
H38   H     H_    0.080923 0.467356 0.799189 0.177417
H39   H     H_    0.083715 0.469281 0.205353 0.177540
H40   H     H_    0.079133 0.032643 0.697904 0.177431
H41   H     H_    0.075058 0.030718 0.308170 0.177609
H42   H     H_    0.071481 0.967357 0.312272 0.177272
H43   H     H_    0.082129 0.969281 0.702420 0.177752
H44   H     H_    0.408298 0.530199 0.788773 0.234492
H45   H     H_    0.074311 0.468201 0.313859 0.081126
H46   H     H_    0.408450 0.530201 0.210872 0.234503
H47   H     H_    0.405354 0.466749 0.219243 0.219701
H48   H     H_    0.405232 0.466749 0.780386 0.219683
H49   H     H_    0.408211 0.030201 0.288575 0.234376
H50   H     H_    0.405237 0.033252 0.719599 0.219835
H51   H     H_    0.408297 0.969801 0.711229 0.234451
H52   H     H_    0.405168 0.966750 0.280197 0.219748
H53   H     H_    0.908225 0.530201 0.288601 0.234463
H54   H     H_    0.905155 0.533252 0.719857 0.219850
H55   H     H_    0.908192 0.469801 0.711478 0.234461
H56   H     H_    0.077385 0.470364 0.690770 0.077486
H57   H     H_    0.905180 0.466751 0.280224 0.219848
H58   H     H_    0.909626 0.030200 0.791696 0.234315
H59   H     H_    0.911486 0.033251 0.204601 0.220366
H60   H     H_    0.915884 0.969800 0.196857 0.235005
H61   H     H_    0.906291 0.966750 0.783426 0.219549
H62   H     H_    0.412848 0.532696 0.709791 0.154489
H63   H     H_    0.412689 0.532691 0.289871 0.154506
H64   H     H_    0.417173 0.469767 0.297093 0.160361
H65   H     H_    0.417357 0.469773 0.702583 0.160392
H66   H     H_    0.412932 0.032693 0.209603 0.154320
H67   H     H_    0.074257 0.531797 0.686075 0.081335
H68   H     H_    0.417350 0.030233 0.797405 0.160372
H69   H     H_    0.412847 0.967309 0.790211 0.154473
H70   H     H_    0.417450 0.969770 0.202418 0.160276
H71   H     H_    0.912924 0.532693 0.209627 0.154544
H72   H     H_    0.917482 0.530232 0.797629 0.160439
H73   H     H_    0.912959 0.467309 0.790447 0.154413
H74   H     H_    0.917439 0.469770 0.202441 0.160311
H75   H     H_    0.911585 0.032693 0.712607 0.154326
H76   H     H_    0.910617 0.030237 0.283342 0.160026
H77   H     H_    0.907357 0.967311 0.275510 0.154071
H78   H     H_    0.077436 0.529634 0.309164 0.077668
H79   H     H_    0.915852 0.969770 0.705265 0.160324
H80   H     H_    0.533852 0.533914 0.910205 0.045443
H81   H     H_    0.534482 0.533928 0.089935 0.045188
H82   H     H_    0.524645 0.441829 0.105663 0.064376
H83   H     H_    0.524072 0.441814 0.894432 0.064487
H84   H     H_    0.533501 0.033913 0.410277 0.044251
H85   H     H_    0.524112 0.058176 0.605563 0.067232
H86   H     H_    0.533852 0.966085 0.589801 0.044146
H87   H     H_    0.523795 0.941822 0.394491 0.067244
H88   H     H_    0.033551 0.533913 0.410266 0.044314
H89   H     H_    0.574289 0.968201 0.313882 0.080657
H90   H     H_    0.023717 0.558176 0.605494 0.067366
H91   H     H_    0.033413 0.466085 0.589705 0.044333
H92   H     H_    0.023841 0.441822 0.394483 0.067278
H93   H     H_    0.039100 0.033918 0.908942 0.049859
H94   H     H_    0.047447 0.058201 0.111734 0.066778
H95   H     H_    0.059753 0.966055 0.097799 0.042011
H96   H     H_    0.028829 0.941822 0.893509 0.070261
O1    O     O_3   0.499990 0.750000 0.750000 -0.490840
O2    O     O_R   0.534620 0.832000 0.284640 -0.637834
O3    O     O_R   0.965400 0.168000 0.284590 -0.636788
O4    O     O_R   0.965400 0.332000 0.784590 -0.639461
O5    O     O_R   0.965400 0.332000 0.215410 -0.636298
O6    O     O_R   0.965400 0.668000 0.215410 -0.639291
O7    O     O_R   0.965400 0.668000 0.784590 -0.636173
O8    O     O_2   0.465603 0.559405 0.872177 -0.550333
O9    O     O_2   0.466081 0.559414 0.127694 -0.550369
O10   O     O_2   0.448520 0.468565 0.118123 -0.538198
O11   O     O_2   0.448000 0.468554 0.881675 -0.538176
O12   O     O_2   0.465334 0.059403 0.372100 -0.553338
O13   O     O_R   0.534620 0.168000 0.284640 -0.632005
O14   O     O_2   0.448022 0.031457 0.618320 -0.537021
O15   O     O_2   0.465600 0.940598 0.627828 -0.553315
O16   O     O_2   0.447734 0.968543 0.381569 -0.537060
O17   O     O_2   0.965372 0.559403 0.372109 -0.553375
O18   O     O_2   0.947662 0.531458 0.618460 -0.537016
O19   O     O_2   0.965267 0.440597 0.627920 -0.553295
O20   O     O_2   0.947775 0.468542 0.381584 -0.536990
O21   O     O_2   0.969631 0.059400 0.873177 -0.551399
O22   O     O_2   0.970359 0.031412 0.111737 -0.535599
O23   O     O_2   0.986135 0.940600 0.124038 -0.551863
O24   O     O_R   0.534620 0.168000 0.715360 -0.637668
O25   O     O_2   0.952367 0.968548 0.883250 -0.534895
O26   O     O_R   0.534620 0.332000 0.215360 -0.638352
O27   O     O_R   0.534620 0.332000 0.784640 -0.638245
O28   O     O_R   0.534620 0.668000 0.784640 -0.631179
O29   O     O_R   0.534620 0.668000 0.215360 -0.630990
O30   O     O_R   0.034620 0.832000 0.215360 -0.629424
O31   O     O_R   0.034620 0.832000 0.784640 -0.637251
O32   O     O_R   0.034620 0.168000 0.784640 -0.631173
O33   O     O_3   0.499990 0.750000 0.250000 -0.490081
O34   O     O_R   0.034620 0.168000 0.215360 -0.637011
O35   O     O_R   0.034620 0.332000 0.715360 -0.631927
O36   O     O_R   0.034620 0.332000 0.284640 -0.637727
O37   O     O_R   0.034620 0.668000 0.284640 -0.631781
O38   O     O_R   0.034620 0.668000 0.715360 -0.637598
O39   O     O_R   0.465390 0.771500 0.882020 -0.637998
O40   O     O_R   0.465390 0.771500 0.117980 -0.637515
O41   O     O_R   0.465390 0.228500 0.117980 -0.637038
O42   O     O_R   0.465390 0.228500 0.882020 -0.636526
O43   O     O_R   0.465390 0.271500 0.382020 -0.637091
O44   O     O_3   0.499990 0.250000 0.250000 -0.489496
O45   O     O_R   0.465390 0.271500 0.617980 -0.636651
O46   O     O_R   0.465390 0.728500 0.617980 -0.637826
O47   O     O_R   0.465390 0.728500 0.382020 -0.637368
O48   O     O_R   0.965390 0.771500 0.382020 -0.637653
O49   O     O_R   0.965390 0.771500 0.617980 -0.636814
O50   O     O_R   0.965390 0.228500 0.617980 -0.637717
O51   O     O_R   0.965390 0.228500 0.382020 -0.636767
O52   O     O_R   0.965390 0.271500 0.882020 -0.637982
O53   O     O_R   0.965390 0.271500 0.117980 -0.637079
O54   O     O_R   0.965390 0.728500 0.117980 -0.637982
O55   O     O_3   0.499990 0.250000 0.750000 -0.488817
O56   O     O_R   0.965390 0.728500 0.882020 -0.636919
O57   O     O_R   0.367970 0.771500 0.784600 -0.634279
O58   O     O_R   0.367970 0.771500 0.215400 -0.634998
O59   O     O_R   0.367970 0.228500 0.215400 -0.634598
O60   O     O_R   0.367970 0.228500 0.784600 -0.635290
O61   O     O_R   0.367970 0.271500 0.284600 -0.635260
O62   O     O_R   0.367970 0.271500 0.715400 -0.635228
O63   O     O_R   0.367970 0.728500 0.715400 -0.634483
O64   O     O_R   0.367970 0.728500 0.284600 -0.634445
O65   O     O_R   0.867970 0.771500 0.284600 -0.634917
O66   O     O_3   0.999990 0.750000 0.250000 -0.490839
O67   O     O_R   0.867970 0.771500 0.715400 -0.635305
O68   O     O_R   0.867970 0.228500 0.715400 -0.634558
O69   O     O_R   0.867970 0.228500 0.284600 -0.635342
O70   O     O_R   0.867970 0.271500 0.784600 -0.634546
O71   O     O_R   0.867970 0.271500 0.215400 -0.635237
O72   O     O_R   0.867970 0.728500 0.215400 -0.634317
O73   O     O_R   0.867970 0.728500 0.784600 -0.635112
O74   O     O_R   0.632030 0.771500 0.715390 -0.637457
O75   O     O_R   0.632030 0.771500 0.284610 -0.636842
O76   O     O_R   0.632030 0.228500 0.284610 -0.637202
O77   O     O_3   0.999990 0.750000 0.750000 -0.489216
O78   O     O_R   0.632030 0.228500 0.715390 -0.636375
O79   O     O_R   0.632030 0.271500 0.215390 -0.636686
O80   O     O_R   0.632030 0.271500 0.784610 -0.636445
O81   O     O_R   0.632030 0.728500 0.784610 -0.637253
O82   O     O_R   0.632030 0.728500 0.215390 -0.636949
O83   O     O_R   0.132030 0.771500 0.215390 -0.637088
O84   O     O_R   0.132030 0.771500 0.784610 -0.636232
O85   O     O_R   0.132030 0.228500 0.784610 -0.637317
O86   O     O_R   0.132030 0.228500 0.215390 -0.636521
O87   O     O_R   0.132030 0.271500 0.715390 -0.637343
O88   O     O_3   0.999990 0.250000 0.750000 -0.490618
O89   O     O_R   0.132030 0.271500 0.284610 -0.636527
O90   O     O_R   0.132030 0.728500 0.284610 -0.637241
O91   O     O_R   0.132030 0.728500 0.715390 -0.636420
O92   O     O_R   0.534610 0.728510 0.882040 -0.631553
O93   O     O_R   0.534610 0.728510 0.117960 -0.631488
O94   O     O_R   0.534610 0.271490 0.117960 -0.635619
O95   O     O_R   0.534610 0.271490 0.882040 -0.635550
O96   O     O_R   0.534610 0.228510 0.382040 -0.632479
O97   O     O_R   0.534610 0.228510 0.617960 -0.634559
O98   O     O_R   0.534610 0.771490 0.617960 -0.632522
O99   O     O_3   0.999990 0.250000 0.250000 -0.488997
O100  O     O_R   0.534610 0.771490 0.382040 -0.634594
O101  O     O_R   0.034610 0.728510 0.382040 -0.632530
O102  O     O_R   0.034610 0.728510 0.617960 -0.634555
O103  O     O_R   0.034610 0.271490 0.617960 -0.632503
O104  O     O_R   0.034610 0.271490 0.382040 -0.634501
O105  O     O_R   0.034610 0.228510 0.882040 -0.632143
O106  O     O_R   0.034610 0.228510 0.117960 -0.634120
O107  O     O_R   0.034610 0.771490 0.117960 -0.631603
O108  O     O_R   0.034610 0.771490 0.882040 -0.633994
O109  O     O_R   0.465400 0.832000 0.784590 -0.639499
O110  O     O_R   0.534620 0.832000 0.715360 -0.631957
O111  O     O_R   0.465400 0.832000 0.215410 -0.636585
O112  O     O_R   0.465400 0.168000 0.215410 -0.639070
O113  O     O_R   0.465400 0.168000 0.784590 -0.636172
O114  O     O_R   0.465400 0.332000 0.284590 -0.636326
O115  O     O_R   0.465400 0.332000 0.715410 -0.636076
O116  O     O_R   0.465400 0.668000 0.715410 -0.639594
O117  O     O_R   0.465400 0.668000 0.284590 -0.639382
O118  O     O_R   0.965400 0.832000 0.284590 -0.640836
O119  O     O_R   0.965400 0.832000 0.715410 -0.636499
O120  O     O_R   0.965400 0.168000 0.715410 -0.639807
Zn1   Zn    Zn3+2 0.549450 0.719300 0.799470 0.987958
Zn2   Zn    Zn3+2 0.049450 0.719300 0.700530 0.981827
Zn3   Zn    Zn3+2 0.049450 0.280700 0.700530 0.986395
Zn4   Zn    Zn3+2 0.049450 0.280700 0.299470 0.981422
Zn5   Zn    Zn3+2 0.049450 0.219300 0.799470 0.987043
Zn6   Zn    Zn3+2 0.049450 0.219300 0.200530 0.982072
Zn7   Zn    Zn3+2 0.049450 0.780700 0.200530 0.988383
Zn8   Zn    Zn3+2 0.049450 0.780700 0.799470 0.982569
Zn9   Zn    Zn3+2 0.450550 0.780720 0.799450 0.985364
Zn10  Zn    Zn3+2 0.450550 0.780720 0.200550 0.984303
Zn11  Zn    Zn3+2 0.450550 0.219280 0.200550 0.983613
Zn12  Zn    Zn3+2 0.549450 0.719300 0.200530 0.989045
Zn13  Zn    Zn3+2 0.450550 0.219280 0.799450 0.982716
Zn14  Zn    Zn3+2 0.450550 0.280720 0.299450 0.983919
Zn15  Zn    Zn3+2 0.450550 0.280720 0.700550 0.982984
Zn16  Zn    Zn3+2 0.450550 0.719280 0.700550 0.985247
Zn17  Zn    Zn3+2 0.450550 0.719280 0.299450 0.984320
Zn18  Zn    Zn3+2 0.950550 0.780720 0.299450 0.983758
Zn19  Zn    Zn3+2 0.950550 0.780720 0.700550 0.982834
Zn20  Zn    Zn3+2 0.950550 0.219280 0.700550 0.984807
Zn21  Zn    Zn3+2 0.950550 0.219280 0.299450 0.982703
Zn22  Zn    Zn3+2 0.950550 0.280720 0.799450 0.984742
Zn23  Zn    Zn3+2 0.549450 0.280700 0.200530 0.979068
Zn24  Zn    Zn3+2 0.950550 0.280720 0.200550 0.982696
Zn25  Zn    Zn3+2 0.950550 0.719280 0.200550 0.985021
Zn26  Zn    Zn3+2 0.950550 0.719280 0.799450 0.983246
Zn27  Zn    Zn3+2 0.549450 0.280700 0.799470 0.980200
Zn28  Zn    Zn3+2 0.549450 0.219300 0.299470 0.987219
Zn29  Zn    Zn3+2 0.549450 0.219300 0.700530 0.981792
Zn30  Zn    Zn3+2 0.549450 0.780700 0.700530 0.986148
Zn31  Zn    Zn3+2 0.549450 0.780700 0.299470 0.980323
Zn32  Zn    Zn3+2 0.049450 0.719300 0.299470 0.986825

loop_
_geom_bond_atom_site_label_1
_geom_bond_atom_site_label_2
_ccdc_geom_bond_type
C59   H16   S    
C16   O89   A    
C115  C141  S    
O4    Zn22  S    
C157  C158  T    
C126  H54   S    
O29   Zn12  S    
O26   Zn23  S    
C63   H20   S    
C185  O104  A    
C46   O36   A    
C97   O18   D    
C8    O81   A    
O104  Zn4   S    
O67   Zn19  S    
O53   Zn24  S    
O103  Zn3   S    
O76   Zn28  S    
C112  C144  S    
O35   Zn3   S    
C52   H9    S    
C2    O119  A    
O74   Zn30  S    
C108  C131  S    
O13   Zn28  S    
C107  C150  S    
O60   Zn13  S    
C106  C133  S    
C8    O74   A    
O33   Zn10  S    
C159  C161  T    
C106  C151  S    
C133  H48   S    
C92   H84   S    
C40   C93   S    
O111  Zn10  S    
C93   H85   S    
C53   H28   S    
O90   Zn32  S    
O114  Zn14  S    
C50   C103  S    
O31   Zn8   S    
O52   Zn22  S    
C138  O26   A    
C15   O87   A    
C48   C100  S    
C11   C20   S    
C1    O109  A    
C69   H26   S    
C96   H88   S    
C7    O69   A    
C49   C102  S    
C98   H91   S    
C132  H66   S    
O44   Zn28  S    
C51   C104  S    
C69   C119  S    
O54   Zn25  S    
C7    C28   S    
O75   Zn31  S    
O3    Zn21  S    
C185  O51   A    
C183  O49   A    
C180  O47   A    
C48   H34   S    
C93   O14   D    
C41   C94   S    
C43   C96   S    
C90   C153  S    
C103  H95   S    
C75   C143  T    
O80   Zn27  S    
C44   C112  S    
C168  C169  T    
C127  O113  A    
O51   Zn21  S    
O98   Zn30  S    
O88   Zn5   S    
O116  Zn16  S    
C129  H70   S    
C176  O42   A    
O34   Zn6   S    
C181  O48   A    
O33   Zn31  S    
C16   C25   S    
O97   Zn29  S    
C65   H40   S    
C125  H73   S    
C98   O19   D    
C166  C186  S    
C5    O67   A    
O81   Zn1   S    
C164  C188  S    
C64   H39   S    
C37   C89   S    
C49   H23   S    
C6    O70   A    
C8    C17   S    
O27   Zn27  S    
C130  C131  S    
C158  C178  S    
C156  C180  S    
C103  O23   D    
C12   C21   S    
O33   Zn12  S    
C59   C109  S    
O43   Zn14  S    
C34   C87   S    
C86   C154  T    
C67   C118  S    
C24   O3    A    
C78   C146  T    
O55   Zn27  S    
C131  H68   S    
C63   C113  S    
C178  O45   A    
C34   H8    S    
O66   Zn7   S    
C171  O29   A    
C175  O94   A    
O33   Zn17  S    
C155  C156  T    
O30   Zn7   S    
C43   C47   S    
C15   O85   A    
C108  C148  S    
C47   C114  S    
O109  Zn9   S    
C54   C101  S    
C171  O117  A    
C36   H7    S    
O48   Zn18  S    
C88   H81   S    
C179  O46   A    
O119  Zn19  S    
C42   C95   S    
C189  O108  A    
C53   C54   S    
C36   C88   S    
C176  O95   A    
C79   C136  S    
C31   C190  S    
C85   C171  S    
O79   Zn23  S    
C128  H53   S    
C36   C37   S    
C56   C60   S    
C179  O98   A    
C87   H80   S    
C54   H11   S    
C102  O22   D    
C47   C99   S    
C110  C129  S    
C44   C97   S    
C128  H71   S    
C120  H61   S    
C192  O59   A    
O55   Zn15  S    
C13   O120  A    
O32   Zn5   S    
C51   C119  S    
C14   O91   A    
C52   C79   S    
C174  O93   A    
C61   H18   S    
C66   C67   S    
C41   C109  S    
O66   Zn32  S    
C65   C115  S    
C109  C147  S    
C13   O32   A    
C43   C111  S    
C45   H56   S    
C3    O62   A    
C64   C114  S    
O85   Zn5   S    
C130  H69   S    
C190  O57   A    
C64   H21   S    
C12   O90   A    
C68   O38   A    
C51   H1    S    
C161  C176  S    
O88   Zn20  S    
C54   H29   S    
C157  C177  S    
C190  O63   A    
O99   Zn21  S    
C117  C122  S    
C177  O43   A    
C160  O116  A    
C45   C113  S    
C96   O17   D    
C94   H86   S    
C186  O105  A    
C37   H6    S    
C19   C28   T    
C104  H96   S    
C55   H30   S    
C9    O82   A    
C46   O5    A    
C173  O39   A    
C188  O107  A    
C121  H77   S    
C53   C90   S    
O7    Zn26  S    
C24   C72   S    
C36   C90   S    
C52   H27   S    
O87   Zn3   S    
O39   Zn9   S    
O110  Zn30  S    
O38   Zn2   S    
C107  C132  S    
O36   Zn4   S    
O62   Zn15  S    
C56   H31   S    
C120  C123  S    
C134  C135  S    
C129  H52   S    
O70   Zn22  S    
C87   O8    D    
C40   C108  S    
C14   C22   S    
C42   C110  S    
O41   Zn11  S    
C37   C101  S    
C90   C135  S    
C172  C183  S    
O118  Zn18  S    
C136  H44   S    
O49   Zn19  S    
C66   H24   S    
O37   Zn32  S    
C9    C18   S    
C72   C140  T    
C56   H14   S    
C49   C50   S    
C111  C128  S    
C177  O96   A    
C110  C146  S    
O77   Zn8   S    
O42   Zn13  S    
C25   C33   T    
C3    O60   A    
C40   H3    S    
C67   H42   S    
C184  O50   A    
O89   Zn4   S    
C16   O86   A    
C134  H47   S    
C94   O15   D    
O63   Zn16  S    
C4    C27   S    
C10   O79   A    
C162  C173  S    
C73   C141  T    
C127  O24   A    
O58   Zn10  S    
C164  C165  T    
C45   C98   S    
O120  Zn20  S    
O68   Zn20  S    
C180  O100  A    
C68   O7    A    
C181  O101  A    
O28   Zn1   S    
C57   O6    A    
C11   O80   A    
C47   H45   S    
C66   C117  S    
C105  O111  A    
C165  C189  S    
O44   Zn14  S    
O96   Zn28  S    
C182  O30   A    
C60   H17   S    
C112  C126  S    
C52   C55   S    
C124  C128  S    
C129  C132  S    
C99   H92   S    
C133  H65   S    
O107  Zn7   S    
O6    Zn25  S    
C50   C118  S    
O92   Zn1   S    
C81   C127  S    
C104  O25   D    
C14   O84   A    
C155  C179  S    
C89   O10   D    
C39   C42   S    
C83   C151  T    
C55   H13   S    
C61   H36   S    
C55   C106  S    
C122  H76   S    
C57   C77   S    
C67   H25   S    
C184  O103  A    
C115  C123  S    
C123  H58   S    
C58   H32   S    
C121  H60   S    
O113  Zn13  S    
C66   H41   S    
C57   O37   A    
C58   C59   S    
C38   C91   S    
O88   Zn3   S    
O65   Zn18  S    
C113  C143  S    
C34   C38   S    
C4    O65   A    
C61   C64   S    
O1    Zn9   S    
C41   H2    S    
C82   C116  S    
O101  Zn32  S    
O82   Zn12  S    
O72   Zn25  S    
C91   O11   D    
C10   C19   S    
C81   C148  T    
C187  O53   A    
C126  H72   S    
C99   O20   D    
C5    O73   A    
O77   Zn2   S    
C44   H67   S    
C121  C122  S    
O115  Zn15  S    
C186  O52   A    
O64   Zn17  S    
C78   C105  S    
C173  O92   A    
C125  C126  S    
C125  H55   S    
O1    Zn16  S    
C68   C76   S    
C118  C139  S    
C39   C92   S    
C44   C45   S    
C175  O41   A    
C162  C163  T    
C1    O110  A    
O44   Zn23  S    
C131  H50   S    
O55   Zn29  S    
C119  C120  S    
O56   Zn26  S    
C189  O56   A    
C39   H4    S    
C101  C152  S    
C53   H10   S    
C135  H46   S    
O105  Zn5   S    
C12   O83   A    
C23   C32   T    
C91   H83   S    
C134  H64   S    
C65   H22   S    
C11   O78   A    
C100  O21   D    
C102  H94   S    
C170  C172  T    
C116  O13   A    
C65   C69   S    
O71   Zn24  S    
O102  Zn2   S    
C58   C108  S    
C69   H43   S    
C3    C32   S    
C59   H33   S    
C60   C110  S    
C160  O28   A    
C5    C26   S    
O66   Zn18  S    
C123  H75   S    
C132  H49   S    
C6    C29   S    
C62   C112  S    
C70   C137  T    
C182  O118  A    
O1    Zn30  S    
C1    C80   S    
O40   Zn10  S    
C135  H63   S    
C2    C70   S    
C86   C160  S    
C83   C149  S    
C34   C79   S    
O99   Zn6   S    
O69   Zn21  S    
C35   O35   A    
O55   Zn13  S    
C101  C134  S    
C39   C107  S    
C35   C75   S    
C62   C63   S    
C120  H79   S    
C92   O12   D    
C33   C192  S    
O117  Zn17  S    
C17   C26   T    
C114  C142  S    
C191  O58   A    
C136  H62   S    
O99   Zn4   S    
O84   Zn8   S    
C111  C145  S    
O100  Zn31  S    
O1    Zn1   S    
C113  C125  S    
O24   Zn29  S    
O99   Zn24  S    
C2    O31   A    
C105  O2    A    
C43   H78   S    
C187  O106  A    
C122  H59   S    
C10   O76   A    
O77   Zn26  S    
C80   C147  T    
O78   Zn29  S    
C168  C184  S    
C133  C136  S    
C62   H19   S    
C178  O97   A    
C9    O75   A    
C21   C30   T    
C114  C124  S    
C15   C23   S    
C74   C142  T    
C84   C138  S    
C159  C175  S    
C71   C182  S    
O59   Zn11  S    
C170  C181  S    
C138  O114  A    
C4    O72   A    
O57   Zn9   S    
C192  O61   A    
C149  O27   A    
C20   C29   T    
C48   C51   S    
O50   Zn20  S    
C95   H87   S    
C22   C31   T    
C119  C137  S    
C71   C139  T    
O5    Zn24  S    
C100  H93   S    
O83   Zn7   S    
O66   Zn25  S    
C118  C121  S    
C38   C106  S    
C56   C107  S    
C124  H57   S    
C183  O102  A    
C130  H51   S    
O106  Zn6   S    
C174  O40   A    
C35   O4    A    
C95   O16   D    
C62   H37   S    
C167  C187  S    
C38   H5    S    
O2    Zn31  S    
C85   C153  T    
C30   C191  S    
C82   C150  T    
C48   C115  S    
C84   C152  T    
O88   Zn22  S    
C40   C41   S    
O61   Zn14  S    
C63   H38   S    
O112  Zn11  S    
C166  C167  T    
C49   C117  S    
O93   Zn12  S    
C61   C111  S    
C77   C145  T    
C46   C74   S    
C188  O54   A    
C42   H89   S    
C116  O112  A    
C191  O64   A    
C18   C27   T    
C13   C73   S    
C76   C144  T    
C50   H12   S    
O45   Zn15  S    
O46   Zn16  S    
O73   Zn26  S    
C24   O34   A    
C60   H35   S    
O95   Zn27  S    
O47   Zn17  S    
C169  C185  S    
C7    O71   A    
C97   H90   S    
O108  Zn8   S    
C79   C154  S    
C89   H82   S    
C58   H15   S    
C149  O115  A    
C124  H74   S    
O86   Zn6   S    
C117  C140  S    
C109  C130  S    
O44   Zn11  S    
C88   O9    D    
C163  C174  S    
O91   Zn2   S    
O94   Zn23  S    
O77   Zn19  S    
C6    O68   A    
