data_mof_unit_43594.cif
_audit_creation_date              2012-12-10T17:11:58-0500
_audit_creation_method            fapswitch 2.2
_symmetry_space_group_name_H-M    P1
_symmetry_Int_Tables_number       1
_space_group_crystal_system       triclinic
_cell_length_a                    11.655476
_cell_length_b                    13.015116
_cell_length_c                    15.675022
_cell_angle_alpha                 92.253008
_cell_angle_beta                  73.825808
_cell_angle_gamma                 99.91237
_cell_volume                      2249.55711059

loop_
_atom_site_label
_atom_site_type_symbol
_atom_type_description
_atom_site_fract_x
_atom_site_fract_y
_atom_site_fract_z
_atom_type_partial_charge
C1    C     C_R   0.520896 0.700874 0.501242 0.820945
C2    C     C_R   0.479093 0.299127 0.498781 0.836493
C3    C     C_R   0.413190 0.341940 0.058042 -0.237852
C4    C     C_R   0.658908 0.507725 0.901989 -0.235925
C5    C     C_R   0.329866 0.312179 0.008457 0.460730
C6    C     C_R   0.743819 0.534327 0.950672 0.459176
C7    C     C_R   0.466776 0.185738 0.498235 -0.127725
C8    C     C_R   0.533174 0.814269 0.501869 -0.129117
C9    C     C_R   0.654115 0.985205 0.506860 0.430907
C10   C     C_R   0.345797 0.014807 0.493323 0.429530
C11   C     C_R   0.642034 0.876306 0.506559 -0.280349
C12   C     C_R   0.357909 0.123706 0.493559 -0.273486
C13   C     C_R   0.435312 0.860529 0.497597 -0.200450
C14   C     C_R   0.564605 0.139480 0.502580 -0.206001
C15   C     C_R   0.444788 0.968632 0.497772 0.054664
C16   C     C_R   0.555118 0.031378 0.502426 0.056003
C17   C     C_R   0.940718 0.597632 0.581912 -0.318300
C18   C     C_R   0.058880 0.401765 0.418714 -0.295778
C19   C     C_R   0.822205 0.588046 0.574077 0.101134
C20   C     C_R   0.177352 0.411284 0.426566 0.137197
C21   C     C_R   0.859340 0.457423 0.464840 0.072457
C22   C     C_R   0.140669 0.542604 0.535180 0.042431
C23   C     C_R   0.425926 0.492169 0.668914 0.842988
C24   C     C_R   0.573776 0.505084 0.330803 0.826541
C25   C     C_R   0.979348 0.464268 0.470502 0.057803
C26   C     C_R   0.020498 0.535536 0.529765 0.066044
C27   C     C_R   0.380239 0.468725 0.765454 -0.308665
C28   C     C_R   0.620941 0.507750 0.232160 -0.277866
C29   C     C_R   0.253399 0.346534 0.882280 0.457181
C30   C     C_R   0.784247 0.561048 0.097032 0.451191
C31   C     C_R   0.272847 0.396781 0.800052 0.228914
C32   C     C_R   0.739423 0.559685 0.190399 0.218428
C33   C     C_R   0.458422 0.501489 0.819054 0.346396
C34   C     C_R   0.546525 0.459233 0.179511 0.326682
C35   C     C_R   0.448371 0.443105 0.895944 -0.069897
C36   C     C_R   0.587749 0.465654 0.085279 -0.080339
C37   C     C_R   0.343017 0.366791 0.929051 -0.092108
C38   C     C_R   0.706314 0.520316 0.044198 -0.088495
C39   C     C_R   0.538798 0.461335 0.942721 0.067007
C40   C     C_R   0.511467 0.423945 0.030452 0.070653
Cu1   Cu    Cu3+1 0.386820 0.492450 0.493500 0.970798
Cu2   Cu    Cu3+1 0.613180 0.507550 0.506500 0.962490
H1    H     H_    0.282168 0.159812 0.490179 0.160390
H2    H     H_    0.717798 0.840203 0.509892 0.161019
N1    N     N_R   0.216750 0.481110 0.483710 -0.185417
N2    N     N_R   0.783250 0.518890 0.516290 -0.186644
O1    O     O_R   0.419950 0.645670 0.495380 -0.590591
O2    O     O_R   0.580050 0.354330 0.504620 -0.595550
O3    O     O_R   0.611110 0.658410 0.506370 -0.593924
O4    O     O_R   0.388890 0.341590 0.493630 -0.587575
O5    O     O_R   0.350820 0.490050 0.621260 -0.570307
O6    O     O_R   0.649180 0.509950 0.378740 -0.563136
O7    O     O_R   0.541970 0.502800 0.632250 -0.568365
O8    O     O_R   0.458030 0.497200 0.367750 -0.548446
O9    O     O_3   0.235535 0.229902 0.037071 -0.640817
H3    H     H_    0.238722 0.201601 0.094033 0.319225
O10   O     O_3   0.862095 0.577550 0.907843 -0.645355
H4    H     H_    0.872424 0.582154 0.843054 0.312575
H5    H     H_    0.237907 0.362410 0.386879 0.133530
H6    H     H_    0.761154 0.636187 0.614404 0.143318
H7    H     H_    0.969587 0.653090 0.628268 0.153489
H8    H     H_    0.029780 0.345905 0.372719 0.155744
O11   O     O_3   0.428792 0.414718 0.220210 -0.713818
H9    H     H_    0.432571 0.361485 0.262522 0.307400
O12   O     O_3   0.540602 0.593577 0.799806 -0.725927
H10   H     H_    0.517887 0.636596 0.758285 0.323596
O13   O     O_3   0.811586 0.615016 0.238807 -0.709755
H11   H     H_    0.760305 0.655178 0.284451 0.342164
O14   O     O_3   0.187912 0.370979 0.753343 -0.713387
H12   H     H_    0.171274 0.437252 0.734214 0.348160
O15   O     O_3   0.147778 0.277094 0.918102 -0.631436
H13   H     H_    0.091077 0.274165 0.881068 0.371504
O16   O     O_3   0.901709 0.608440 0.056005 -0.630230
H14   H     H_    0.949350 0.622712 0.099743 0.373793
H15   H     H_    0.404390 0.294853 0.115342 0.174553
H16   H     H_    0.690182 0.518357 0.830739 0.190993
H17   H     H_    0.648524 0.188089 0.506081 0.214307
H18   H     H_    0.351389 0.811920 0.494103 0.216207
O17   O     O_3   0.761100 0.047434 0.511366 -0.741617
H19   H     H_    0.820667 0.002504 0.514037 0.328551
O18   O     O_3   0.238802 0.952580 0.488838 -0.739219
H20   H     H_    0.179244 0.997513 0.486150 0.328186
H21   H     H_    0.173535 0.596984 0.580545 0.121683
H22   H     H_    0.826545 0.403140 0.419380 0.128696

loop_
_geom_bond_atom_site_label_1
_geom_bond_atom_site_label_2
_ccdc_geom_bond_type
C24   O6    A    
O9    H3    S    
C8    C13   A    
C5    C37   A    
C1    C8    S    
Cu1   Cu2   S    
C2    C7    S    
O18   H20   S    
C19   N2    A    
C33   O12   S    
C27   C33   A    
C17   C26   A    
C35   C37   A    
C9    C16   A    
C12   H1    S    
C10   C15   A    
Cu2   O7    S    
C9    O17   S    
C33   C35   A    
C24   O8    A    
C15   C16   A    
C30   C38   A    
Cu2   N2    S    
C14   H17   S    
C2    O4    A    
C17   H7    S    
C7    C14   A    
C6    C38   A    
C23   C27   S    
C3    H15   S    
C34   C36   A    
C20   N1    A    
C28   C34   A    
C6    O10   S    
C18   C25   A    
C23   O7    A    
C21   H22   S    
O16   H14   S    
C7    C12   A    
C27   C31   A    
O13   H11   S    
C36   C40   A    
C4    C6    A    
C39   C40   A    
C30   O16   S    
C1    O1    A    
C2    O2    A    
C25   C26   A    
O17   H19   S    
C35   C39   A    
C23   O5    A    
C4    C39   A    
C28   C32   A    
Cu1   O1    S    
C11   H2    S    
Cu2   O2    S    
C20   H5    S    
C9    C11   A    
C10   C12   A    
C32   O13   S    
C3    C40   A    
C13   C15   A    
C14   C16   A    
Cu1   O4    S    
C21   N2    A    
C21   C25   A    
C13   H18   S    
C5    O9    S    
C18   H8    S    
C24   C28   S    
C3    C5    A    
C19   H6    S    
C10   O18   S    
C22   H21   S    
C36   C38   A    
O15   H13   S    
C29   C31   A    
C30   C32   A    
O10   H4    S    
C8    C11   A    
C34   O11   S    
C17   C19   A    
C18   C20   A    
O14   H12   S    
Cu1   O8    S    
C4    H16   S    
Cu2   O3    S    
O11   H9    S    
C31   O14   S    
C22   N1    A    
O12   H10   S    
C22   C26   A    
C29   C37   A    
Cu1   N1    S    
C1    O3    A    
Cu1   O5    S    
Cu2   O6    S    
C29   O15   S    
