data_mof_unit_56946.cif
_audit_creation_date              2012-12-10T16:55:00-0500
_audit_creation_method            fapswitch 2.2
_symmetry_space_group_name_H-M    P1
_symmetry_Int_Tables_number       1
_space_group_crystal_system       triclinic
_cell_length_a                    7.783012
_cell_length_b                    8.574745
_cell_length_c                    15.714012
_cell_angle_alpha                 91.10441
_cell_angle_beta                  85.167998
_cell_angle_gamma                 93.485142
_cell_volume                      1042.94603901

loop_
_atom_site_label
_atom_site_type_symbol
_atom_type_description
_atom_site_fract_x
_atom_site_fract_y
_atom_site_fract_z
_atom_type_partial_charge
C1    C     C_R   0.545644 0.794689 0.497911 0.962760
C2    C     C_2   0.430240 0.041951 0.503634 -0.381517
C3    C     C_R   0.501018 0.500274 0.661605 0.903089
C4    C     C_R   0.454361 0.205316 0.502250 0.964133
C5    C     C_R   0.499106 0.499693 0.338352 0.901066
C6    C     C_3   0.353259 0.585937 0.957210 0.247024
C7    C     C_3   0.683231 0.583947 0.945265 0.439641
C8    C     C_3   0.670540 0.592913 0.044320 -0.435397
C9    C     C_1   0.498501 0.499460 0.249430 -0.190105
C10   C     C_3   0.512138 0.499178 0.916904 0.094142
C11   C     C_3   0.203940 0.805929 0.931202 -0.342523
C12   C     C_3   0.345446 0.576320 0.055625 -0.483399
C13   C     C_3   0.896809 0.537669 0.832977 -0.266437
C14   C     C_3   0.581584 0.081285 0.903756 -0.263231
C15   C     C_3   0.506146 0.499190 0.082293 0.169080
C16   C     C_3   0.505994 0.329296 0.047118 -0.468141
C17   C     C_3   0.496395 0.327360 0.948927 0.367780
C18   C     C_1   0.501797 0.499115 0.173928 -0.037856
C19   C     C_1   0.507264 0.499972 0.825522 -0.032608
C20   C     C_1   0.503443 0.500275 0.750351 -0.198632
C21   C     C_2   0.569771 0.958063 0.496786 -0.380851
H1    H     H_    0.338107 0.695140 0.085168 0.213309
H2    H     H_    0.666849 0.717283 0.065859 0.141328
H3    H     H_    0.787407 0.546943 0.068962 0.198100
H4    H     H_    0.366515 0.275835 0.934052 0.038135
H5    H     H_    0.393621 0.258044 0.077333 0.140105
H6    H     H_    0.110767 0.763461 0.984677 0.177013
H7    H     H_    0.151410 0.778008 0.868952 0.181145
H8    H     H_    0.218254 0.934939 0.937609 0.174734
H9    H     H_    0.878115 0.659408 0.813988 0.111737
H10   H     H_    0.839142 0.452830 0.787838 0.215067
H11   H     H_    0.037484 0.521588 0.826314 0.170685
H12   H     H_    0.234139 0.523915 0.935072 0.114281
H13   H     H_    0.480636 0.059850 0.858203 0.174139
H14   H     H_    0.536172 0.034337 0.967792 0.176751
H15   H     H_    0.695342 0.016836 0.879354 0.182722
H16   H     H_    0.226064 0.506942 0.079491 0.157383
H17   H     H_    0.625019 0.275059 0.063726 0.217282
H18   H     H_    0.701683 0.008789 0.490253 0.180754
H19   H     H_    0.298329 0.991226 0.510197 0.180441
H20   H     H_    0.013698 0.381481 0.436278 0.192031
H21   H     H_    0.986293 0.618422 0.563784 0.187398
H22   H     H_    0.695136 0.706809 0.922343 0.082600
N1    N     N_2   0.950340 0.457950 0.477370 -0.172491
N2    N     N_2   0.049660 0.542050 0.522630 -0.175103
O1    O     O_R   0.389240 0.738570 0.505550 -0.612635
O2    O     O_3   0.832661 0.502466 0.917769 -0.576472
O3    O     O_3   0.631695 0.241805 0.908183 -0.552423
O4    O     O_R   0.678400 0.711630 0.491050 -0.630521
O5    O     O_R   0.355360 0.513470 0.630110 -0.616425
O6    O     O_R   0.644510 0.486530 0.615610 -0.626315
O7    O     O_R   0.321600 0.288370 0.508950 -0.630705
O8    O     O_R   0.610760 0.261430 0.494450 -0.612151
O9    O     O_R   0.355490 0.513470 0.384390 -0.620251
O10   O     O_R   0.644640 0.486530 0.369890 -0.612218
O11   O     O_3   0.368316 0.744940 0.932369 -0.620105
Zn1   Zn    Zn3+2 0.306930 0.517990 0.509680 0.940522
Zn2   Zn    Zn3+2 0.693070 0.482010 0.490320 0.942133

loop_
_geom_bond_atom_site_label_1
_geom_bond_atom_site_label_2
_ccdc_geom_bond_type
C14   H13   S    
C15   C18   S    
C2    C4    S    
O8    Zn2   S    
C6    H12   S    
C6    C10   S    
C7    H22   S    
C4    O8    A    
C7    C10   S    
C5    O9    A    
C13   H11   S    
N1    Zn2   S    
C19   C20   T    
C21   H18   S    
C12   C15   S    
C11   H6    S    
C10   C19   S    
C17   O3    S    
C17   H4    S    
C2    C21   D    
C7    C8    S    
O6    Zn2   S    
O9    Zn1   S    
C1    C21   S    
C14   H14   S    
N2    Zn1   S    
C5    C9    S    
C11   H7    S    
C4    O7    A    
C16   H5    S    
C6    C12   S    
C8    H3    S    
C3    O5    A    
C5    O10   A    
C8    C15   S    
O1    Zn1   S    
C14   H15   S    
H20   N1    S    
C1    O1    A    
O7    Zn1   S    
O4    Zn2   S    
C10   C17   S    
C15   C16   S    
C2    H19   S    
C9    C18   T    
C3    C20   S    
C8    H2    S    
C12   H1    S    
N1    N2    D    
C11   H8    S    
O10   Zn2   S    
C16   H17   S    
C12   H16   S    
C13   O2    S    
C3    O6    A    
C14   O3    S    
C13   H9    S    
O5    Zn1   S    
C1    O4    A    
C13   H10   S    
C11   O11   S    
C6    O11   S    
C16   C17   S    
H21   N2    S    
C7    O2    S    
