data_mof_unit_44935.cif
_audit_creation_date              2013-03-05T15:45:32-0500
_audit_creation_method            fapswitch 2.2
_symmetry_space_group_name_H-M    P1
_symmetry_Int_Tables_number       1
_space_group_crystal_system       triclinic
_cell_length_a                    8.797464
_cell_length_b                    14.47385
_cell_length_c                    19.258924
_cell_angle_alpha                 94.468796
_cell_angle_beta                  94.83449
_cell_angle_gamma                 91.623471
_cell_volume                      2434.6430902

loop_
_atom_site_label
_atom_site_type_symbol
_atom_site_description
_atom_site_fract_x
_atom_site_fract_y
_atom_site_fract_z
_atom_type_partial_charge
P1    P     P_3+3 0.937730 0.712710 0.546710 0.595890
O1    O     O_2   0.108370 0.727470 0.525290 -0.262743
O2    O     O_3   0.865330 0.611210 0.531230 -0.342005
O3    O     O_3   0.346360 0.671710 0.401620 -0.362792
O4    O     O_2   0.243151 0.840068 0.441680 -0.364871
O5    O     O_3   0.955117 0.764647 0.634612 -0.578666
O6    O     O_3   0.377369 0.827909 0.327076 -0.595347
H1    H     H_    0.149070 0.787921 0.309576 0.181362
C1    C     C_3   0.244097 0.823160 0.215674 -0.831158
H2    H     H_    0.211472 0.896369 0.223480 0.282513
P2    P     P_3+3 0.357970 0.428340 0.344000 0.520726
P3    P     P_3+3 0.895297 0.609334 0.275277 0.569308
O7    O     O_2   0.182890 0.456530 0.332150 -0.297426
O8    O     O_3   0.933230 0.625130 0.368420 -0.317178
O9    O     O_2   0.032672 0.555550 0.250398 -0.335333
O10   O     O_3   0.334351 0.309670 0.310661 -0.574364
O11   O     O_3   0.921685 0.716613 0.239610 -0.529037
C2    C     C_3   0.784815 0.766048 0.233197 0.168331
H3    H     H_    0.681682 0.719220 0.228165 0.058306
C3    C     C_3   0.779021 0.818835 0.164866 -0.459697
C4    C     C_3   0.824380 0.284198 0.306857 0.244385
C5    C     C_3   0.851900 0.218904 0.240451 -0.547009
Ba1   Ba    Ba6+2 0.150350 0.545800 0.464500 1.583643
C6    C     C_3   0.993413 0.717761 0.695189 0.367430
C7    C     C_3   0.009145 0.791884 0.757690 -0.858814
C8    C     C_3   0.345953 0.238307 0.356314 0.257394
H4    H     H_    0.227572 0.218000 0.365096 0.184235
C9    C     C_3   0.410576 0.148683 0.321760 -0.556453
P4    P     P_3+3 0.872570 0.287280 0.453240 0.538074
O12   O     O_2   0.701930 0.272470 0.474700 -0.414024
O13   O     O_3   0.944970 0.388780 0.468720 -0.277761
O14   O     O_3   0.463940 0.328280 0.598320 -0.461453
O15   O     O_3   0.871873 0.237041 0.365909 -0.547616
P5    P     P_3+3 0.907732 0.382518 0.723582 0.465336
O16   O     O_3   0.372010 0.546630 0.581240 -0.289041
O17   O     O_3   0.877070 0.374860 0.631520 -0.402363
O18   O     O_2   0.780849 0.442726 0.752047 -0.327804
O19   O     O_3   0.869478 0.273022 0.752616 -0.554979
Ba2   Ba    Ba6+2 0.659830 0.454190 0.535450 1.593342
P6    P     P_3+3 0.382146 0.792767 0.411747 0.543577
C10   C     C_3   0.258268 0.780508 0.285204 0.500998
O20   O     O_3   0.438280 0.453360 0.418700 -0.426126
C11   C     C_3   0.499918 0.760642 0.677855 0.318737
C12   C     C_3   0.560861 0.833252 0.737952 -0.823942
H5    H     H_    0.659224 0.804143 0.767735 0.257069
P7    P     P_3+3 0.452912 0.565477 0.671150 0.554879
O21   O     O_2   0.627420 0.543410 0.667830 -0.327551
O22   O     O_3   0.452622 0.681261 0.710359 -0.589224
C13   C     C_3   0.947757 0.203270 0.716293 0.307851
H6    H     H_    0.048611 0.231232 0.693142 0.019710
C14   C     C_3   0.004173 0.133887 0.769018 -0.595991
H7    H     H_    0.063938 0.172768 0.815857 0.207213
P8    P     P_3+3 0.438342 0.207781 0.590277 0.413826
C15   C     C_3   0.508717 0.222724 0.728067 0.452435
O23   O     O_2   0.550770 0.168216 0.539460 -0.405791
O24   O     O_3   0.494372 0.158241 0.668888 -0.528512
H8    H     H_    0.585525 0.281662 0.718501 0.134771
H9    H     H_    0.491708 0.121979 0.806703 0.160017
C16   C     C_3   0.577980 0.171477 0.790193 -0.583027
C17   C     C_R   0.012276 0.941812 0.531578 -0.024412
C18   C     C_R   0.828069 0.804736 0.500195 0.213344
C19   C     C_R   0.678847 0.777272 0.475393 -0.352894
C20   C     C_R   0.571010 0.838976 0.452870 0.367814
C21   C     C_R   0.614029 0.932886 0.452500 -0.362718
C22   C     C_R   0.762838 0.966173 0.475979 0.122206
C23   C     C_R   0.869969 0.903192 0.502888 0.018655
C24   C     C_R   0.947021 0.101069 0.501357 -0.037757
C25   C     C_R   0.052901 0.038442 0.530494 0.061126
C26   C     C_R   0.991627 0.198923 0.499678 0.206793
C27   C     C_R   0.145807 0.226687 0.520098 -0.325932
C28   C     C_R   0.244056 0.166478 0.554256 0.119112
C29   C     C_R   0.200196 0.072688 0.557134 -0.162362
C30   C     C_R   0.803148 0.062002 0.473304 -0.022777
C31   C     C_R   0.601069 0.531898 0.292964 -0.376671
C32   C     C_R   0.458627 0.486322 0.275652 0.223114
C33   C     C_R   0.410245 0.466471 0.204464 -0.034878
C34   C     C_R   0.505925 0.486600 0.151844 0.106935
C35   C     C_R   0.659744 0.519038 0.171009 -0.200031
C36   C     C_R   0.706928 0.544939 0.242887 0.208389
C37   C     C_R   0.380145 0.559894 0.046768 -0.043201
C38   C     C_R   0.330724 0.555676 0.975032 -0.240711
C39   C     C_R   0.335601 0.473579 0.932196 0.208886
C40   C     C_R   0.386668 0.393749 0.962011 -0.159046
C41   C     C_R   0.442070 0.395829 0.032925 -0.083673
C42   C     C_R   0.440040 0.479796 0.076727 0.017953
C43   C     C_R   0.145402 0.438053 0.829781 -0.134889
C44   C     C_R   0.100677 0.431444 0.758197 0.178441
C45   C     C_R   0.350063 0.498050 0.734619 0.079003
C46   C     C_R   0.394222 0.505336 0.808055 -0.171098
C47   C     C_R   0.292686 0.471657 0.855353 0.034074
C48   C     C_R   0.204676 0.458066 0.711513 -0.517497
C49   C     C_2   0.753666 0.130712 0.233049 0.810799
H10   H     H_    0.685925 0.111337 0.184124 -0.000984
O25   O     O_2   0.753808 0.079128 0.280328 -0.554251
H11   H     H_    0.822687 0.255841 0.192815 0.130314
C50   C     C_2   0.016781 0.195280 0.238824 0.598270
H12   H     H_    0.095327 0.242905 0.218071 -0.038547
O26   O     O_2   0.063671 0.124009 0.261480 -0.505269
C51   C     C_2   0.137456 0.672660 0.693208 0.318958
H13   H     H_    0.198888 0.655834 0.741519 0.035515
O27   O     O_2   0.180763 0.648691 0.637091 -0.496363
C52   C     C_2   0.883498 0.642616 0.705966 0.475345
H14   H     H_    0.877870 0.581884 0.669128 0.107087
O28   O     O_2   0.814222 0.643912 0.758296 -0.592253
H15   H     H_    0.107474 0.840016 0.753665 0.242140
H16   H     H_    0.027728 0.760346 0.808461 0.234179
H17   H     H_    0.906275 0.834128 0.758221 0.268031
H18   H     H_    0.415968 0.260057 0.405905 0.101985
H19   H     H_    0.159228 0.782776 0.178642 0.258035
C53   C     C_2   0.349945 0.061853 0.350249 0.615996
H20   H     H_    0.384500 0.995526 0.328370 0.109870
O29   O     O_2   0.264722 0.063907 0.397212 -0.592456
H21   H     H_    0.535127 0.150952 0.335558 0.144262
C54   C     C_2   0.382806 0.138647 0.242588 0.677143
H22   H     H_    0.350965 0.196987 0.213227 0.099530
O30   O     O_2   0.401722 0.064883 0.209648 -0.626673
H23   H     H_    0.283934 0.706022 0.275752 0.135489
H24   H     H_    0.355259 0.822961 0.193153 0.276977
C55   C     C_2   0.623907 0.745752 0.631061 0.526374
H25   H     H_    0.701892 0.803407 0.626315 0.009539
O31   O     O_2   0.622080 0.677681 0.590068 -0.555771
C56   C     C_2   0.368315 0.800970 0.636890 0.582551
H26   H     H_    0.272924 0.828050 0.662968 0.041665
O32   O     O_2   0.367535 0.805606 0.574018 -0.602403
H27   H     H_    0.601741 0.898305 0.717181 0.195142
C57   C     C_2   0.444427 0.857972 0.788599 0.691613
H28   H     H_    0.359313 0.908229 0.776100 0.004338
O33   O     O_2   0.446092 0.822807 0.844239 -0.567836
C58   C     C_2   0.632705 0.871501 0.155632 0.390436
H29   H     H_    0.602881 0.920815 0.197180 0.109785
O34   O     O_2   0.548946 0.862508 0.101395 -0.560217
C59   C     C_2   0.841786 0.158686 0.656720 0.546294
H30   H     H_    0.803727 0.200105 0.614670 0.072863
O35   O     O_2   0.796872 0.077795 0.654612 -0.547734
H31   H     H_    0.908279 0.094735 0.788051 0.198241
C60   C     C_2   0.111565 0.066085 0.739224 0.562309
H32   H     H_    0.233566 0.078461 0.749432 0.078531
O36   O     O_2   0.062560 0.996861 0.703219 -0.545183
C61   C     C_2   0.356096 0.258763 0.743857 0.350099
H33   H     H_    0.284773 0.284086 0.702523 0.071644
O37   O     O_2   0.311405 0.259876 0.802182 -0.641393
C62   C     C_2   0.639812 0.233795 0.853203 0.672035
H34   H     H_    0.687032 0.202805 0.899422 -0.021829
O38   O     O_2   0.638611 0.318133 0.853442 -0.519096
C63   C     C_2   0.775013 0.830863 0.298027 0.742207
H35   H     H_    0.670511 0.866461 0.306114 -0.028522
O39   O     O_2   0.883293 0.843608 0.342036 -0.550818
H36   H     H_    0.670590 0.128394 0.772624 0.195769
H37   H     H_    0.643447 0.705688 0.475305 0.193033
H38   H     H_    0.531112 0.980368 0.434250 0.142223
C64   C     C_2   0.317791 0.008300 0.579501 0.682081
H39   H     H_    0.380297 0.971591 0.540656 0.048850
O40   O     O_2   0.347054 0.997657 0.641225 -0.615997
C65   C     C_2   0.210911 0.314665 0.497194 0.623523
H40   H     H_    0.277701 0.365557 0.529213 0.125400
O41   O     O_2   0.182785 0.336623 0.438583 -0.574633
H41   H     H_    0.092488 0.896218 0.555212 0.162945
H42   H     H_    0.720998 0.105201 0.448075 0.163938
C66   C     C_2   0.541683 0.551777 0.835564 0.680196
H43   H     H_    0.582548 0.612124 0.812509 0.112674
O42   O     O_2   0.618888 0.523464 0.884630 -0.540015
H44   H     H_    0.289406 0.617193 0.951913 0.132083
C67   C     C_2   0.368220 0.650512 0.087387 0.522198
H45   H     H_    0.320283 0.708586 0.061703 0.088523
O43   O     O_2   0.411023 0.662230 0.149362 -0.649239
H46   H     H_    0.298337 0.434197 0.189859 0.123528
H47   H     H_    0.388950 0.329941 0.928936 0.171259
C68   C     C_2   0.504702 0.308691 0.057130 0.518284
H48   H     H_    0.478820 0.243684 0.025718 0.006652
O44   O     O_2   0.589856 0.308075 0.110303 -0.577060
H49   H     H_    0.066509 0.414877 0.865608 0.159072
C69   C     C_2   0.764019 0.526830 0.114653 0.569158
H50   H     H_    0.718167 0.534998 0.061523 0.043453
O45   O     O_2   0.901440 0.519725 0.125344 -0.529363
C70   C     C_2   0.164268 0.431006 0.638189 1.301992
H51   H     H_    0.166197 0.358458 0.622622 -0.770835
O46   O     O_2   0.099386 0.482723 0.599570 -0.557330
C71   C     C_2   0.622714 0.588671 0.358153 0.624895
H52   H     H_    0.642697 0.560039 0.408162 0.068567
O47   O     O_2   0.625390 0.671953 0.354237 -0.674054
C72   C     C_2   0.908727 0.890328 0.166018 0.564621
H53   H     H_    0.973096 0.895705 0.120714 0.069308
O48   O     O_2   0.937789 0.946776 0.216076 -0.533613
C73   C     C_2   0.786515 0.747199 0.103159 0.672795
H54   H     H_    0.683982 0.707992 0.081882 0.018424
O49   O     O_2   0.906687 0.729921 0.078149 -0.589960
C74   C     C_2   0.661952 0.306342 0.305986 0.365492
H55   H     H_    0.617333 0.328845 0.354565 0.077362
O50   O     O_2   0.584113 0.306813 0.250618 -0.607115
C75   C     C_2   0.907544 0.373972 0.303888 0.532676
H56   H     H_    0.971753 0.385549 0.259524 0.031482
O51   O     O_2   0.892961 0.437502 0.347734 -0.539003

loop_
_geom_bond_atom_site_label_1
_geom_bond_atom_site_label_2
_geom_bond_distance
_ccdc_geom_bond_type
C35   C36   1.429174 A    
C57   H28   1.084213 S    
C19   H37   1.073232 S    
C44   C48   1.402364 A    
P5    O18   1.545888 D    
C61   O37   1.220061 D    
C5    H11   1.112660 S    
P8    O23   1.540120 D    
O2    Ba1   3.053409 S    
C67   H45   1.085710 S    
C3    C58   1.519132 S    
C32   C33   1.405947 A    
C2    C63   1.512167 S    
C33   H46   1.083224 S    
C63   H35   1.083236 S    
C7    H15   1.106895 S    
C70   O46   1.216029 D    
O19   C13   1.411889 S    
C72   H53   1.085989 S    
C69   H50   1.084284 S    
C12   C57   1.504483 S    
C8    H4    1.104411 S    
P4    O12   1.603282 D    
P6    C20   1.862235 S    
C40   C41   1.408640 A    
C67   O43   1.218299 D    
C2    H3    1.109998 S    
C66   H43   1.076502 S    
C4    O15   1.410983 S    
C6    C51   1.443792 S    
P3    C36   1.910936 S    
P4    O15   1.779036 S    
C61   H33   1.065847 S    
C22   C30   1.427788 A    
C73   H54   1.084461 S    
O7    Ba1   2.806979 S    
P2    O20   1.559810 S    
P1    O1    1.602923 D    
C38   H44   1.084448 S    
O14   Ba2   2.876579 S    
C13   H6    1.106467 S    
C53   H20   1.080122 S    
C52   H14   1.083003 S    
C14   H31   1.106617 S    
C18   C23   1.457672 A    
C15   C61   1.500377 S    
C16   C62   1.507446 S    
C73   O49   1.222397 D    
C59   H30   1.081039 S    
C13   C14   1.545354 S    
C50   O26   1.220078 D    
P3    O11   1.763354 S    
C57   O33   1.220787 D    
O6    P6    1.743129 S    
C45   C48   1.410977 A    
C4    C74   1.472305 S    
C27   C28   1.405510 A    
C24   C30   1.417828 A    
C1    H2    1.107903 S    
C65   O41   1.204021 D    
C25   C29   1.414207 A    
C3    C73   1.522094 S    
C16   H36   1.099771 S    
C68   O44   1.217565 D    
C17   C23   1.407380 A    
H1    C10   1.108469 S    
C27   C65   1.494290 S    
C4    C5    1.569758 S    
C64   O40   1.217492 D    
O10   C8    1.408081 S    
C1    H24   1.102705 S    
C18   C19   1.394530 A    
C24   C25   1.429393 A    
C49   O25   1.221624 D    
C8    C9    1.555578 S    
C63   O39   1.220406 D    
C69   O45   1.217756 D    
C7    H16   1.112660 S    
C46   C66   1.481452 S    
Ba2   O20   2.847890 S    
P4    C26   1.904905 S    
C15   C16   1.547287 S    
C55   O31   1.212438 D    
C1    H19   1.108287 S    
C13   C59   1.507352 S    
C15   O24   1.410422 S    
C12   H27   1.113392 S    
C31   C32   1.401825 A    
C43   H49   1.083465 S    
C71   H52   1.080760 S    
C41   C42   1.425820 A    
C60   O36   1.219605 D    
C43   C47   1.406212 A    
C72   O48   1.219084 D    
C8    H18   1.110712 S    
O3    Ba1   2.877331 S    
C43   C44   1.396594 A    
C60   H32   1.082016 S    
C9    C53   1.511231 S    
H9    C16   1.111653 S    
C34   C35   1.428525 A    
C40   H47   1.081943 S    
C30   H42   1.078466 S    
C38   C39   1.396591 A    
C14   H7    1.109519 S    
C21   H38   1.072740 S    
P1    O2    1.580992 S    
Ba1   O13   2.873527 S    
O8    Ba1   2.872361 S    
O16   Ba2   3.060028 S    
C11   C12   1.550953 S    
C37   C67   1.484914 S    
O3    P6    1.764190 S    
C37   C42   1.429051 A    
C41   C68   1.483008 S    
C6    C52   1.473262 S    
C14   C60   1.497028 S    
C54   O30   1.221600 D    
C70   H51   1.070321 S    
C31   C71   1.441445 S    
P3    O9    1.545617 D    
C64   H39   1.080873 S    
C29   C64   1.471877 S    
O5    C6    1.416049 S    
C50   H12   1.083917 S    
P4    Ba2   3.464879 S    
C19   C20   1.387373 A    
C35   C69   1.487719 S    
O11   C2    1.419375 S    
C48   C70   1.447473 S    
C6    C7    1.543145 S    
C52   O28   1.220121 D    
Ba1   O20   3.060925 S    
C11   C56   1.503222 S    
C65   H40   1.054379 S    
C9    C54   1.518691 S    
C68   H48   1.085847 S    
C51   O27   1.204993 D    
P3    O8    1.792301 S    
C22   C23   1.424002 A    
Ba1   O16   2.848348 S    
C31   C36   1.415217 A    
C62   O38   1.220699 D    
C75   H56   1.084196 S    
C56   O32   1.217353 D    
P8    C28   1.854104 S    
O14   P8    1.745372 S    
O1    Ba1   2.840656 S    
C12   H5    1.109055 S    
C7    H17   1.106757 S    
Ba2   O21   2.806988 S    
C58   H29   1.084244 S    
C11   O22   1.419139 S    
P8    O24   1.764257 S    
C24   C26   1.462461 A    
C17   H41   1.076898 S    
P7    O21   1.582459 D    
C75   O51   1.216129 D    
P5    O19   1.754190 S    
C5    C50   1.502017 S    
O17   Ba2   2.872901 S    
C37   C38   1.409107 A    
P1    C18   1.902746 S    
C71   O47   1.213308 D    
C55   H25   1.079554 S    
C54   H22   1.082745 S    
C1    C10   1.514860 S    
C39   C47   1.494077 S    
P7    C45   1.894082 S    
C21   C22   1.407472 A    
C66   O42   1.220708 D    
C56   H26   1.081262 S    
C74   H55   1.075700 S    
P4    O13   1.580993 S    
P2    C32   1.883520 S    
C51   H13   1.084007 S    
C33   C34   1.412905 A    
P2    O7    1.606808 D    
C4    C75   1.480437 S    
C34   C42   1.507227 S    
Ba1   Ba2   4.816570 S    
P2    Ba1   3.447869 S    
C49   H10   1.084588 S    
P5    O17   1.765136 S    
O13   Ba2   3.054321 S    
O12   Ba2   2.841233 S    
P1    Ba1   3.464250 S    
C2    C3    1.570257 S    
P5    C44   1.869421 S    
O6    C10   1.396243 S    
C26   C27   1.417923 A    
C53   O29   1.221644 D    
C74   O50   1.218336 D    
P2    O10   1.786356 S    
C9    H21   1.104463 S    
O2    Ba2   2.874172 S    
C20   C21   1.401296 A    
P7    O22   1.783819 S    
C28   C29   1.407285 A    
C45   C46   1.429715 A    
C17   C25   1.435891 A    
C59   O35   1.221570 D    
C39   C40   1.398545 A    
O4    P6    1.549525 D    
P1    O5    1.790508 S    
C5    C49   1.511598 S    
C62   H34   1.084683 S    
C10   H23   1.112014 S    
C46   C47   1.430732 A    
O16   P7    1.813002 S    
C11   C55   1.482290 S    
C3    C72   1.516111 S    
C58   O34   1.222545 D    
C15   H8    1.109532 S    
