data_mof_unit_9850.cif
_audit_creation_date              2012-12-11T15:56:03-0500
_audit_creation_method            fapswitch 2.2
_symmetry_space_group_name_H-M    P1
_symmetry_Int_Tables_number       1
_space_group_crystal_system       triclinic
_cell_length_a                    11.133564
_cell_length_b                    11.156314
_cell_length_c                    18.810596
_cell_angle_alpha                 90.393423
_cell_angle_beta                  90.147099
_cell_angle_gamma                 59.048392
_cell_volume                      2003.70031039

loop_
_atom_site_label
_atom_site_type_symbol
_atom_type_description
_atom_site_fract_x
_atom_site_fract_y
_atom_site_fract_z
_atom_type_partial_charge
C1    C     C_R   0.359711 0.769672 0.396216 0.525394
C2    C     C_R   0.629291 0.120787 0.169158 0.039704
C3    C     C_R   0.356654 0.316268 0.164779 0.009742
C4    C     C_R   0.477294 0.227751 0.275638 -0.160810
C5    C     C_R   0.483741 0.220904 0.201465 -0.022302
C6    C     C_R   0.115905 0.653770 0.330135 -0.056852
C7    C     C_R   0.004801 0.768331 0.364312 -0.092480
C8    C     C_R   0.663464 0.012710 0.117798 -0.074717
C9    C     C_R   0.799293 0.922400 0.094495 -0.145775
C10   C     C_R   0.237213 0.414844 0.202849 -0.155454
C11   C     C_R   0.234830 0.421422 0.276211 -0.054627
C12   C     C_R   0.384715 0.352401 0.388408 0.533700
C13   C     C_R   0.878923 0.773609 0.374357 -0.006847
C14   C     C_R   0.864951 0.663450 0.347369 -0.104027
C15   C     C_R   0.978320 0.549436 0.312944 -0.128833
C16   C     C_R   0.108139 0.539987 0.309223 0.008918
C17   C     C_R   0.359320 0.330526 0.313617 -0.013501
C18   C     C_R   0.851064 0.345221 0.180534 0.029061
C19   C     C_R   0.938912 0.273910 0.236407 -0.027576
C20   C     C_R   0.894015 0.288672 0.304045 0.005040
C21   C     C_R   0.663069 0.463432 0.267475 -0.175275
C22   C     C_R   0.709791 0.442994 0.196147 -0.154824
C23   C     C_R   0.714337 0.414878 0.395608 0.569516
C24   C     C_3   0.087320 0.173232 0.253479 -0.267524
C25   C     C_3   0.035115 0.178529 0.330392 -0.118196
C26   C     C_R   0.757525 0.387042 0.322664 0.006659
C27   C     C_R   0.359932 0.817744 0.172177 0.004554
C28   C     C_R   0.468029 0.811314 0.213087 0.003868
C29   C     C_R   0.465304 0.808759 0.288072 0.025292
C30   C     C_R   0.241997 0.831877 0.280947 -0.189099
C31   C     C_R   0.262131 0.799250 0.209358 -0.166235
C32   C     C_3   0.519403 0.907875 0.212004 -0.272919
C33   C     C_3   0.510014 0.913343 0.290845 -0.289093
C34   C     C_R   0.369877 0.710181 0.610898 0.539779
C35   C     C_R   0.348534 0.822653 0.323377 0.009654
C36   C     C_R   0.340183 0.338248 0.825126 0.008602
C37   C     C_R   0.466796 0.243306 0.790728 0.033196
C38   C     C_R   0.478508 0.253759 0.718786 0.040389
C39   C     C_R   0.271420 0.479374 0.718464 -0.177776
C40   C     C_R   0.248491 0.464038 0.790589 -0.180887
C41   C     C_3   0.546684 0.085544 0.786282 -0.239880
C42   C     C_3   0.540807 0.100292 0.706440 -0.131460
C43   C     C_R   0.381029 0.368916 0.680428 0.006635
C44   C     C_R   0.809092 0.340736 0.837539 0.018917
C45   C     C_R   0.404839 0.377363 0.604877 0.550761
C46   C     C_R   0.786873 0.459509 0.800876 0.019303
C47   C     C_R   0.768648 0.470103 0.729054 0.031174
C48   C     C_R   0.774538 0.251644 0.725637 -0.171891
C49   C     C_R   0.790143 0.242092 0.800176 -0.167746
C50   C     C_3   0.868544 0.533040 0.799203 -0.249996
C51   C     C_3   0.843489 0.549108 0.719764 -0.132745
C52   C     C_R   0.773472 0.362227 0.689125 0.003031
C53   C     C_R   0.316626 0.813413 0.832479 0.016253
C54   C     C_R   0.216241 0.800052 0.794379 0.035151
C55   C     C_R   0.233837 0.766436 0.723266 0.019866
C56   C     C_R   0.750630 0.383464 0.612951 0.531471
C57   C     C_R   0.462676 0.736704 0.726885 -0.161073
C58   C     C_R   0.445287 0.771819 0.799302 -0.166381
C59   C     C_3   0.063253 0.901268 0.785052 -0.269788
C60   C     C_3   0.081861 0.861182 0.707030 -0.278434
C61   C     C_R   0.354014 0.740668 0.687082 0.005801
C62   C     C_R   0.908196 0.318028 0.110219 0.551043
C63   C     C_R   0.329401 0.292349 0.092214 0.546698
C64   C     C_R   0.309939 0.894035 0.104027 0.534821
C65   C     C_R   0.881197 0.310978 0.905712 0.541501
C66   C     C_R   0.300797 0.291618 0.888406 0.542487
C67   C     C_R   0.908864 0.926631 0.125659 -0.076939
C68   C     C_R   0.276926 0.891891 0.898961 0.539047
C69   C     C_R   0.882472 0.021395 0.180436 -0.083170
C70   C     C_R   0.745092 0.119462 0.200453 -0.108088
Cr1   Cr    Cr6+3 0.601740 0.606840 0.505840 0.949773
Cr2   Cr    Cr6+3 0.291500 0.601560 0.495070 0.965565
Cr3   Cr    Cr6+3 0.606780 0.291630 0.499130 0.955527
Cr4   Cr    Cr6+3 0.062440 0.063060 0.008240 1.009318
Cr5   Cr    Cr6+3 0.062950 0.375000 0.998920 0.998333
Cr6   Cr    Cr6+3 0.374550 0.061770 0.992470 0.984568
H1    H     H_    0.768518 0.664153 0.353973 0.156732
H2    H     H_    0.965973 0.468968 0.290152 0.139016
H3    H     H_    0.554027 0.535881 0.279398 0.122768
H4    H     H_    0.636776 0.501432 0.154024 0.123750
H5    H     H_    0.152782 0.220683 0.245802 0.135979
H6    H     H_    0.127007 0.074322 0.224606 0.151613
H7    H     H_    0.030525 0.084577 0.344382 0.131875
H8    H     H_    0.142586 0.861807 0.303019 0.106485
H9    H     H_    0.820287 0.842678 0.055060 0.095164
H10   H     H_    0.181511 0.791210 0.182441 0.131994
H11   H     H_    0.443419 0.009058 0.187395 0.167865
H12   H     H_    0.629890 0.850092 0.193824 0.143411
H13   H     H_    0.614217 0.871017 0.312915 0.133505
H14   H     H_    0.427866 0.016734 0.311797 0.135567
H15   H     H_    0.194970 0.570208 0.690437 0.137821
H16   H     H_    0.153474 0.543462 0.816375 0.125407
H17   H     H_    0.494364 0.031257 0.806792 0.166500
H18   H     H_    0.654735 0.040410 0.807467 0.102102
H19   H     H_    0.646553 0.051343 0.682520 0.119276
H20   H     H_    0.770220 0.170028 0.696617 0.127155
H21   H     H_    0.800292 0.152008 0.827157 0.124120
H22   H     H_    0.980193 0.463752 0.814055 0.163829
H23   H     H_    0.813957 0.634485 0.828354 0.115962
H24   H     H_    0.773674 0.660909 0.706033 0.120834
H25   H     H_    0.555987 0.717754 0.700413 0.133398
H26   H     H_    0.526850 0.778760 0.827059 0.122866
H27   H     H_    0.038218 0.009950 0.794433 0.152993
H28   H     H_    0.013376 0.851772 0.108366 0.128578
H29   H     H_    0.997328 0.869487 0.814123 0.131060
H30   H     H_    0.028302 0.804023 0.691781 0.118382
H31   H     H_    0.059981 0.948167 0.670948 0.145950
H32   H     H_    0.968372 0.017759 0.208139 0.114345
H33   H     H_    0.729617 0.190521 0.243293 0.123373
H34   H     H_    0.215818 0.643322 0.322935 0.165098
H35   H     H_    0.593609 0.980724 0.098787 0.164754
H36   H     H_    0.141620 0.487903 0.175228 0.149437
O1    O     O_R   0.748670 0.497520 0.427970 -0.548413
O2    O     O_R   0.300170 0.471020 0.567120 -0.524072
O3    O     O_R   0.491630 0.259030 0.574940 -0.546836
O4    O     O_R   0.718640 0.304340 0.577850 -0.523034
O5    O     O_3   0.500010 0.500010 0.500020 -0.291457
O6    O     O_R   0.186620 0.923750 0.087000 -0.538704
O7    O     O_R   0.957350 0.194160 0.084660 -0.490905
O8    O     O_R   0.935120 0.407280 0.085350 -0.523324
O9    O     O_R   0.203800 0.365060 0.067090 -0.509537
O10   O     O_R   0.417470 0.174910 0.067830 -0.544051
O11   O     O_R   0.375160 0.946380 0.070880 -0.518636
O12   O     O_R   0.476470 0.723930 0.429450 -0.507394
O13   O     O_R   0.160500 0.919670 0.926690 -0.517712
O14   O     O_R   0.933140 0.190380 0.936050 -0.505132
O15   O     O_R   0.909010 0.403210 0.925030 -0.529930
O16   O     O_R   0.179590 0.361290 0.918480 -0.513605
O17   O     O_R   0.391360 0.170840 0.907510 -0.528960
O18   O     O_R   0.350950 0.942600 0.922260 -0.516352
O19   O     O_3   0.166650 0.166610 0.999880 -0.248605
O20   O     O_R   0.264730 0.744140 0.416740 -0.550300
O21   O     O_R   0.309440 0.472410 0.418220 -0.499222
O22   O     O_R   0.501630 0.260530 0.414310 -0.542787
O23   O     O_R   0.727920 0.305730 0.428950 -0.503746
O24   O     O_R   0.738670 0.496020 0.588600 -0.531389
O25   O     O_R   0.467190 0.722540 0.578350 -0.518930
O26   O     O_R   0.254720 0.742640 0.577370 -0.528744
H37   H     H_    0.570729 0.153872 0.304260 0.142912
C71   C     C_3   0.773107 0.885310 0.423338 -0.261903
C72   C     C_3   0.789610 0.822284 0.496249 -0.321421
C73   C     C_3   0.694953 0.931175 0.549860 -0.436110
H38   H     H_    0.726393 0.010128 0.557400 0.178410
H39   H     H_    0.585129 0.982669 0.531185 0.168687
H40   H     H_    0.705040 0.878190 0.600998 0.106208
H41   H     H_    0.761955 0.739801 0.492731 0.185254
H42   H     H_    0.899736 0.776699 0.514220 0.157394
H43   H     H_    0.790982 0.974617 0.426979 0.151516
H44   H     H_    0.663912 0.930239 0.406024 0.138108
C74   C     C_3   0.103081 0.225465 0.387165 -0.243966
C75   C     C_3   0.155621 0.126409 0.451640 -0.297028
C76   C     C_3   0.302723 0.088604 0.474495 -0.444937
H45   H     H_    0.378305 0.035683 0.430594 0.155121
H46   H     H_    0.304721 0.183379 0.490484 0.165562
H47   H     H_    0.337406 0.014732 0.519581 0.159312
H48   H     H_    0.081783 0.176390 0.496694 0.154372
H49   H     H_    0.158608 0.027335 0.440463 0.180012
H50   H     H_    0.191482 0.230170 0.363287 0.152256
H51   H     H_    0.027070 0.332770 0.405958 0.169033
H52   H     H_    0.017474 0.850655 0.386596 0.118239
C77   C     C_3   0.440647 0.060241 0.669576 -0.248876
C78   C     C_3   0.298121 0.111839 0.706174 -0.288514
C79   C     C_3   0.196135 0.101856 0.656235 -0.468185
H53   H     H_    0.172069 0.173049 0.610910 0.139213
H54   H     H_    0.241468 0.994899 0.634830 0.184229
H55   H     H_    0.097827 0.132006 0.685229 0.137115
H56   H     H_    0.310590 0.048519 0.753725 0.171473
H57   H     H_    0.250128 0.221929 0.723227 0.171509
H58   H     H_    0.419885 0.101937 0.615078 0.181530
H59   H     H_    0.495818 0.944981 0.664692 0.138842
C80   C     C_3   0.975999 0.471690 0.673181 -0.241980
C81   C     C_3   0.967572 0.556616 0.607614 -0.285136
C82   C     C_3   0.037748 0.463460 0.542864 -0.404657
H60   H     H_    0.046534 0.524748 0.499099 0.162078
H61   H     H_    0.143496 0.376599 0.556807 0.170757
H62   H     H_    0.974365 0.419061 0.523971 0.174955
H63   H     H_    0.857019 0.629613 0.594187 0.181252
H64   H     H_    0.015236 0.620660 0.618971 0.143739
H65   H     H_    0.068590 0.447703 0.704182 0.138096
H66   H     H_    0.992715 0.369686 0.656219 0.161442

loop_
_geom_bond_atom_site_label_1
_geom_bond_atom_site_label_2
_ccdc_geom_bond_type
C81   H63   S    
C44   C49   A    
C7    C13   A    
C21   C26   A    
C29   C33   S    
C41   C42   S    
C19   C20   A    
C80   C81   S    
C1    O20   A    
C71   H43   S    
C77   C78   S    
Cr2   O21   S    
C42   C77   S    
Cr1   O25   S    
C53   C54   A    
Cr4   O7    S    
C55   C60   S    
C50   H23   S    
C59   H29   S    
Cr3   O4    S    
C30   C35   A    
C65   O15   A    
C28   C29   A    
C79   H54   S    
C38   C42   S    
C30   C31   A    
Cr6   O19   S    
C36   C66   S    
C23   C26   S    
C15   H2    S    
C20   C25   S    
C15   C16   A    
C32   H12   S    
Cr2   O2    S    
C64   O6    A    
Cr1   O1    S    
Cr5   O16   S    
C11   C16   S    
C14   H1    S    
C53   C68   S    
C24   H6    S    
C9    H9    S    
C54   C55   A    
Cr6   O18   S    
C45   O2    A    
C41   H17   S    
Cr3   O23   S    
C44   C46   A    
C8    C9    A    
C12   C17   S    
C75   C76   S    
C10   H36   S    
C58   H26   S    
C13   C14   A    
C74   H50   S    
C62   O8    A    
C66   O17   A    
C77   H58   S    
Cr2   O26   S    
C59   C60   S    
C31   H10   S    
C12   O22   A    
Cr4   O19   S    
C30   H8    S    
C6    H34   S    
C73   H40   S    
C80   H65   S    
C44   C65   S    
C39   H15   S    
Cr6   O10   S    
C56   O24   A    
C69   H32   S    
Cr5   O19   S    
C67   H28   S    
Cr2   O20   S    
C54   C59   S    
C82   H61   S    
C56   O4    A    
Cr4   O6    S    
C50   H22   S    
Cr3   O5    S    
C74   H51   S    
Cr1   O5    S    
C27   C31   A    
C42   H19   S    
C13   C71   S    
Cr1   O12   S    
C28   C32   S    
C79   H55   S    
C71   C72   S    
C10   C11   A    
C8    H35   S    
Cr1   O24   S    
C18   C19   A    
C39   C43   A    
C7    H52   S    
C82   H60   S    
C32   H11   S    
C6    C16   A    
C34   O26   A    
C34   C61   S    
C40   H16   S    
C25   C74   S    
C67   C69   A    
Cr2   O5    S    
C24   H5    S    
C9    C67   A    
C37   C38   A    
C70   H33   S    
C33   H13   S    
C23   O1    A    
Cr6   O17   S    
C45   O3    A    
C41   H18   S    
C14   C15   A    
C76   H47   S    
C36   C40   A    
C21   H3    S    
C50   C51   S    
C63   O9    A    
C75   H48   S    
C24   C25   S    
C68   O18   A    
C43   C45   S    
C62   O7    A    
C47   C52   A    
C60   H31   S    
C72   H41   S    
C78   H57   S    
C77   H59   S    
C48   C49   A    
Cr5   O9    S    
C12   O21   A    
C72   C73   S    
C73   H39   S    
C80   H66   S    
C2    C5    S    
C4    C17   A    
C75   H49   S    
C39   C40   A    
C63   O10   A    
C60   H30   S    
C81   C82   S    
C1    C35   S    
C78   C79   S    
C82   H62   S    
C81   H64   S    
C51   H24   S    
C46   C50   S    
C46   C47   A    
C36   C37   A    
C48   H20   S    
C18   C22   A    
Cr6   O11   S    
C2    C8    A    
Cr5   O8    S    
C76   H46   S    
C4    C5    A    
C3    C5    A    
C11   C17   A    
C47   C51   S    
C53   C58   A    
C57   C61   A    
C6    C7    A    
C3    C63   S    
C64   O11   A    
C57   H25   S    
C29   C35   A    
C34   O25   A    
Cr3   O3    S    
C23   O23   A    
C59   H27   S    
C32   C33   S    
C51   C80   S    
C19   C24   S    
C1    O12   A    
C22   H4    S    
C38   C43   A    
C3    C10   A    
C2    C70   A    
C33   H14   S    
C65   O14   A    
C4    H37   S    
C57   C58   A    
Cr4   O14   S    
C20   C26   A    
C55   C61   A    
C66   O16   A    
C68   O13   A    
Cr5   O15   S    
C37   C41   S    
C69   C70   A    
C79   H53   S    
C27   C64   S    
C72   H42   S    
C49   H21   S    
C78   H56   S    
Cr4   O13   S    
C48   C52   A    
Cr3   O22   S    
C27   C28   A    
C25   H7    S    
C73   H38   S    
C18   C62   S    
C76   H45   S    
C21   C22   A    
C71   H44   S    
C52   C56   S    
C74   C75   S    
