data_mof_unit_46895.cif
_audit_creation_date              2012-12-10T16:51:27-0500
_audit_creation_method            fapswitch 2.2
_symmetry_space_group_name_H-M    P1
_symmetry_Int_Tables_number       1
_space_group_crystal_system       triclinic
_cell_length_a                    7.822703
_cell_length_b                    8.536353
_cell_length_c                    12.727594
_cell_angle_alpha                 91.476655
_cell_angle_beta                  103.996318
_cell_angle_gamma                 94.055266
_cell_volume                      821.809947245

loop_
_atom_site_label
_atom_site_type_symbol
_atom_type_description
_atom_site_fract_x
_atom_site_fract_y
_atom_site_fract_z
_atom_type_partial_charge
C1    C     C_R   0.045926 0.794666 0.500420 0.939323
C2    C     C_R   0.190067 0.552050 0.819962 -0.074563
C3    C     C_2   0.072056 0.959078 0.507075 -0.394688
C4    C     C_R   0.112514 0.507786 0.707841 0.879097
C5    C     C_2   0.933145 0.041790 0.506850 -0.391504
C6    C     C_R   0.956364 0.205655 0.504424 0.958454
C7    C     C_R   0.892849 0.506702 0.293529 0.878979
C8    C     C_R   0.904268 0.481677 0.009068 -0.224303
C9    C     C_R   0.842675 0.538619 0.180169 -0.214087
C10   C     C_R   0.118310 0.678270 0.863103 -0.210117
C11   C     C_R   0.217092 0.765750 0.952995 -0.119240
C12   C     C_R   0.449216 0.588219 0.967823 0.108276
C13   C     C_R   0.382825 0.721775 0.004264 -0.118252
C14   C     C_3   0.138682 0.760640 0.204220 0.135493
C15   C     C_3   0.323035 0.849427 0.232815 -0.346863
C16   C     C_3   0.356352 0.958456 0.333636 -0.955290
C17   C     C_3   0.662482 0.177956 0.744806 0.118549
C18   C     C_3   0.610777 0.042634 0.811357 -0.411724
C19   C     C_3   0.550031 0.892267 0.740792 -0.937872
C20   C     C_R   0.360698 0.507525 0.871310 0.005940
C21   C     C_R   0.613925 0.545740 0.020498 0.000159
C22   C     C_R   0.720334 0.472256 0.962469 -0.011005
C23   C     C_R   0.638581 0.389658 0.864342 0.499510
C24   C     C_R   0.452236 0.394803 0.826003 -0.346123
C25   C     C_R   0.669823 0.562336 0.132026 -0.314345
C26   C     C_R   0.966645 0.542558 0.116168 0.478847
H1    H     H_    0.801190 0.989716 0.504591 0.176536
H2    H     H_    0.204324 0.012066 0.512301 0.175611
H3    H     H_    0.093194 0.752800 0.279754 0.162541
H4    H     H_    0.046731 0.833563 0.148675 0.091876
H5    H     H_    0.426910 0.765262 0.246180 0.239664
H6    H     H_    0.334670 0.926194 0.165688 0.191253
H7    H     H_    0.245572 0.034796 0.328264 0.268989
H8    H     H_    0.480095 0.034666 0.340680 0.256626
H9    H     H_    0.373968 0.888457 0.407011 0.281210
H10   H     H_    0.761136 0.136005 0.703038 0.174407
H11   H     H_    0.551194 0.208722 0.678234 0.134214
H12   H     H_    0.469483 0.378526 0.418135 0.197686
H13   H     H_    0.726746 0.020004 0.877704 0.231835
H14   H     H_    0.502415 0.074356 0.848365 0.217585
H15   H     H_    0.432970 0.911151 0.674374 0.261459
H16   H     H_    0.513431 0.796937 0.790769 0.277360
H17   H     H_    0.658299 0.854931 0.705585 0.255261
H18   H     H_    0.530292 0.620947 0.582013 0.197623
H19   H     H_    0.996002 0.445080 0.963946 0.199056
H20   H     H_    0.576481 0.582451 0.180328 0.196829
H21   H     H_    0.992088 0.718416 0.821753 0.164707
H22   H     H_    0.467458 0.797524 0.067513 0.113679
H23   H     H_    0.167436 0.870500 0.980346 0.129244
H24   H     H_    0.380535 0.317963 0.759268 0.169724
N1    N     N_2   0.434800 0.456690 0.470850 -0.174342
N2    N     N_2   0.565200 0.543310 0.529150 -0.177975
O1    O     O_R   0.893060 0.738880 0.507150 -0.614474
O2    O     O_3   0.746430 0.310106 0.811599 -0.655744
O3    O     O_R   0.172250 0.711130 0.488470 -0.641980
O4    O     O_R   0.944700 0.520730 0.667600 -0.593288
O5    O     O_R   0.223890 0.492980 0.648920 -0.634601
O6    O     O_R   0.827750 0.288870 0.511530 -0.634280
O7    O     O_R   0.106940 0.261120 0.492850 -0.615594
O8    O     O_R   0.776110 0.507020 0.351080 -0.625281
O9    O     O_R   0.055300 0.479270 0.332400 -0.584245
O10   O     O_3   0.140281 0.607688 0.155315 -0.623187
Zn1   Zn    Zn3+2 0.813580 0.518530 0.512470 0.938342
Zn2   Zn    Zn3+2 0.186420 0.481470 0.487530 0.939021

loop_
_geom_bond_atom_site_label_1
_geom_bond_atom_site_label_2
_ccdc_geom_bond_type
C4    O5    A    
C13   H22   S    
C2    C4    S    
C18   H13   S    
C15   H5    S    
C11   H23   S    
C17   H10   S    
C16   H7    S    
O9    Zn2   S    
O1    Zn1   S    
C6    O6    A    
C8    C22   A    
C8    H19   S    
C19   H16   S    
C23   C24   A    
O3    Zn2   S    
H18   N2    S    
C17   C18   S    
C26   O10   S    
O4    Zn1   S    
C9    C25   A    
C15   H6    S    
C17   H11   S    
C21   C22   A    
C4    O4    A    
C11   C13   A    
C12   C20   A    
O7    Zn2   S    
C14   H4    S    
O8    Zn1   S    
C6    O7    A    
C3    H2    S    
C19   H17   S    
C9    C26   A    
C1    O3    A    
C22   C23   A    
C16   H9    S    
C24   H24   S    
C5    C6    S    
C10   C11   A    
C8    C26   A    
C14   H3    S    
C2    C20   A    
C15   C16   S    
C14   O10   S    
C20   C24   A    
C7    O8    A    
O6    Zn1   S    
N1    N2    D    
C12   C13   A    
C25   H20   S    
C23   O2    S    
C18   C19   S    
C10   H21   S    
C7    C9    S    
C18   H14   S    
C21   C25   A    
C14   C15   S    
C7    O9    A    
C1    O1    A    
H12   N1    S    
C3    C5    D    
C16   H8    S    
C5    H1    S    
C12   C21   A    
C17   O2    S    
N1    Zn2   S    
C19   H15   S    
O5    Zn2   S    
C1    C3    S    
N2    Zn1   S    
C2    C10   A    
