data_mof_unit_9219.cif
_audit_creation_date              2012-10-26T20:42:31-0400
_audit_creation_method            fapswitch 2.2
_symmetry_space_group_name_H-M    P1
_symmetry_Int_Tables_number       1
_space_group_crystal_system       triclinic
_cell_length_a                    10.845312
_cell_length_b                    9.596592
_cell_length_c                    10.973733
_cell_angle_alpha                 90.12373
_cell_angle_beta                  92.792488
_cell_angle_gamma                 88.774434
_cell_volume                      1140.50664847

loop_
_atom_site_label
_atom_site_type_symbol
_atom_type_description
_atom_site_fract_x
_atom_site_fract_y
_atom_site_fract_z
_atom_type_partial_charge
C1    C     C_R   0.262938 0.501259 0.505161 0.576952
C2    C     C_R   0.942400 0.383017 0.552057 0.151836
C3    C     C_R   0.872682 0.495702 0.500134 0.026724
C4    C     C_R   0.129661 0.503312 0.512084 0.032363
C5    C     C_R   0.932652 0.610148 0.453426 -0.189112
C6    C     C_R   0.060301 0.611999 0.456160 -0.180667
C7    C     C_R   0.413460 0.077596 0.432571 0.053016
C8    C     C_R   0.585306 0.073711 0.568594 0.066874
C9    C     C_R   0.411012 0.928742 0.431799 0.252632
C10   C     C_R   0.587013 0.925719 0.569822 0.252341
C11   C     C_3   0.172962 0.166545 0.608982 -0.249580
C12   C     C_R   0.737920 0.498439 0.498745 0.571113
C13   C     C_3   0.884497 0.161438 0.466650 -0.283559
C14   C     C_3   0.221008 0.936786 0.291365 -0.326603
C15   C     C_3   0.803675 0.888478 0.640936 -0.319451
C16   C     C_R   0.498479 0.499696 0.265455 0.577812
C17   C     C_R   0.501958 0.499826 0.734503 0.583842
C18   C     C_2   0.524375 0.392092 0.937765 0.232439
C19   C     C_2   0.482370 0.391483 0.061635 0.221374
C20   C     C_2   0.489208 0.499882 0.865165 -0.145301
C21   C     C_2   0.512570 0.499188 0.134883 -0.124537
C22   C     C_R   0.070678 0.393402 0.568729 0.135466
Cu1   Cu    Cu3+1 0.500000 0.640660 0.500000 0.970612
Cu2   Cu    Cu3+1 0.500000 0.359340 0.500000 1.058040
H1    H     H_    0.437886 0.587607 0.902114 0.070341
H2    H     H_    0.112401 0.086550 0.645833 0.122026
H3    H     H_    0.269384 0.141774 0.641486 0.195041
H4    H     H_    0.166845 0.162172 0.507996 0.146820
H5    H     H_    0.912759 0.205164 0.653384 0.263300
H6    H     H_    0.950991 0.073094 0.482065 0.102191
H7    H     H_    0.908453 0.216353 0.381993 0.169211
H8    H     H_    0.790972 0.119622 0.450135 0.164494
H9    H     H_    0.338265 0.767821 0.322909 0.305506
H10   H     H_    0.154130 0.863611 0.247871 0.140869
H11   H     H_    0.264336 0.994664 0.217826 0.233143
H12   H     H_    0.560456 0.587189 0.098397 0.075079
H13   H     H_    0.168288 0.008506 0.349553 0.130347
H14   H     H_    0.661379 0.756407 0.675284 0.313063
H15   H     H_    0.862444 0.812821 0.695347 0.153032
H16   H     H_    0.822701 0.993396 0.678093 0.158950
H17   H     H_    0.828663 0.880870 0.544380 0.137750
H18   H     H_    0.880725 0.695650 0.410093 0.139986
H19   H     H_    0.104753 0.697921 0.413761 0.154458
H20   H     H_    0.345761 0.138840 0.379911 0.176441
H21   H     H_    0.651984 0.130143 0.624413 0.197691
H22   H     H_    0.747432 0.107210 0.992985 0.362747
H23   H     H_    0.271679 0.258057 0.937419 0.330151
H24   H     H_    0.104689 0.302580 0.738813 0.250013
N1    N     N_R   0.500000 0.852070 0.500000 -0.222406
N2    N     N_R   0.500000 0.147940 0.500000 -0.290825
N3    N     N_2   0.138333 0.303559 0.652518 -0.509556
N4    N     N_2   0.886328 0.253338 0.572251 -0.482179
N5    N     N_2   0.313976 0.859068 0.364031 -0.512015
N6    N     N_2   0.674939 0.857121 0.651639 -0.487282
O1    O     O_R   0.319640 0.618740 0.499990 -0.511155
O2    O     O_2   0.717170 0.303357 0.809570 -0.325406
O3    O     O_3   0.699260 0.188628 0.021838 -0.486134
O4    O     O_2   0.468845 0.141701 0.166204 -0.225386
O5    O     O_2   0.290401 0.300750 0.185562 -0.340337
O6    O     O_3   0.320870 0.180807 0.976625 -0.473629
O7    O     O_R   0.680360 0.618740 0.500010 -0.529868
O8    O     O_R   0.319620 0.381170 0.499990 -0.491226
O9    O     O_R   0.680380 0.381170 0.500010 -0.469985
O10   O     O_R   0.500000 0.618750 0.321940 -0.534054
O11   O     O_R   0.500000 0.618750 0.678060 -0.526368
O12   O     O_R   0.499970 0.381180 0.321940 -0.426488
O13   O     O_R   0.500030 0.381180 0.678060 -0.433941
O14   O     O_2   0.548686 0.140094 0.836516 -0.246298
S1    S     S_3+6 0.624265 0.253160 0.895882 0.049173
S2    S     S_3+6 0.388695 0.251400 0.102590 0.038090

loop_
_geom_bond_atom_site_label_1
_geom_bond_atom_site_label_2
_ccdc_geom_bond_type
C14   H10   S    
C5    H18   S    
Cu1   O1    S    
C16   C21   S    
O6    S2    S    
C13   N4    S    
C4    C22   A    
C16   O10   A    
C13   H8    S    
C17   O11   A    
H14   N6    S    
Cu2   O12   S    
Cu1   Cu2   S    
C1    C4    S    
C1    O8    A    
C2    C22   A    
C18   S1    S    
C2    C3    A    
C1    O1    A    
C3    C5    A    
C9    N1    A    
H22   O3    S    
C21   H12   S    
C7    H20   S    
C14   H13   S    
Cu2   N2    S    
C12   O7    A    
C15   H15   S    
C2    N4    S    
C11   H4    S    
C4    C6    A    
Cu1   O10   S    
C19   C21   D    
C11   H3    S    
O2    S1    D    
Cu2   O9    S    
C18   C20   D    
C6    H19   S    
C11   N3    S    
H9    N5    S    
C5    C6    A    
C10   N6    S    
C15   H16   S    
Cu1   N1    S    
C16   O12   A    
C20   H1    S    
C17   O13   A    
C15   N6    S    
C8    N2    A    
C13   H6    S    
Cu1   O7    S    
C14   N5    S    
C9    N5    S    
C15   H17   S    
C8    C10   A    
C18   C19   S    
C14   H11   S    
C7    C9    A    
C12   O9    A    
C8    H21   S    
O4    S2    D    
C19   S2    S    
Cu2   O8    S    
C3    C12   S    
O5    S2    D    
C11   H2    S    
O3    S1    S    
H23   O6    S    
O14   S1    D    
C10   N1    A    
C17   C20   S    
C13   H7    S    
H24   N3    S    
C7    N2    A    
Cu1   O11   S    
C22   N3    S    
Cu2   O13   S    
H5    N4    S    
