data_mof_unit_18977.cif
_audit_creation_date              2012-12-10T18:34:38-0500
_audit_creation_method            fapswitch 2.2
_symmetry_space_group_name_H-M    P1
_symmetry_Int_Tables_number       1
_space_group_crystal_system       triclinic
_cell_length_a                    13.143543
_cell_length_b                    15.238229
_cell_length_c                    13.977748
_cell_angle_alpha                 89.984596
_cell_angle_beta                  96.041677
_cell_angle_gamma                 93.761311
_cell_volume                      2777.91523209

loop_
_atom_site_label
_atom_site_type_symbol
_atom_type_description
_atom_site_fract_x
_atom_site_fract_y
_atom_site_fract_z
_atom_type_partial_charge
C1    C     C_R   0.502456 0.329819 0.500029 0.924747
C2    C     C_R   0.493728 0.669805 0.498992 0.881700
C3    C     C_R   0.504760 0.232552 0.498262 -0.332117
C4    C     C_R   0.485190 0.766655 0.495572 -0.380293
C5    C     C_R   0.562990 0.190649 0.433787 0.224273
C6    C     C_R   0.492532 0.816448 0.581180 0.274370
C7    C     C_R   0.566284 0.097569 0.437281 0.307357
C8    C     C_R   0.511304 0.907560 0.579107 0.328505
C9    C     C_R   0.496353 0.047909 0.488094 -0.073955
C10   C     C_R   0.496830 0.951329 0.490448 -0.104740
C11   C     C_R   0.586157 0.535140 0.116861 0.264127
C12   C     C_R   0.467053 0.422781 0.888136 0.294892
C13   C     C_R   0.575186 0.548444 0.217100 0.441006
C14   C     C_R   0.454494 0.430028 0.785830 0.430937
C15   C     C_R   0.426873 0.449981 0.202096 0.405205
C16   C     C_R   0.538566 0.571985 0.796675 0.406657
C17   C     C_R   0.417920 0.458797 0.100230 0.229053
C18   C     C_R   0.531610 0.574330 0.897319 0.237020
C19   C     C_R   0.502382 0.495848 0.055406 -0.112731
C20   C     C_R   0.501437 0.497232 0.946060 -0.139297
C21   C     C_R   0.300740 0.500886 0.482472 0.857768
C22   C     C_R   0.699279 0.497068 0.518324 0.847987
C23   C     C_R   0.812353 0.494698 0.530910 -0.239253
C24   C     C_R   0.187800 0.495324 0.474635 -0.243219
C25   C     C_R   0.026816 0.428991 0.399214 -0.269231
C26   C     C_R   0.974592 0.546561 0.617709 -0.252257
C27   C     C_R   0.131274 0.448626 0.397824 0.397761
C28   C     C_R   0.869381 0.528074 0.615753 0.400560
C29   C     C_R   0.136142 0.529283 0.548980 0.420537
C30   C     C_R   0.865173 0.461247 0.457634 0.421129
C31   C     C_R   0.028333 0.515568 0.544774 -0.073879
C32   C     C_R   0.973319 0.467191 0.467634 -0.082835
C33   C     C_R   0.428374 0.089733 0.540194 0.321121
C34   C     C_R   0.467294 0.902969 0.405382 0.354492
C35   C     C_R   0.445786 0.180385 0.558201 0.273745
C36   C     C_R   0.465484 0.810004 0.406527 0.310200
Cu1   Cu    Cu3+1 0.500000 0.499990 0.596430 1.031745
Cu2   Cu    Cu3+1 0.500000 0.500010 0.403570 1.064124
H1    H     H_    0.988102 0.385651 0.343834 0.192276
H2    H     H_    0.013036 0.582216 0.679301 0.191940
N1    N     N_R   0.500000 0.500020 0.258690 -0.281933
N2    N     N_R   0.500000 0.499980 0.741310 -0.302402
O1    O     O_R   0.500010 0.371450 0.581430 -0.517527
O2    O     O_R   0.499990 0.628550 0.418570 -0.518857
O3    O     O_R   0.500010 0.371460 0.418560 -0.551132
O4    O     O_R   0.499990 0.628540 0.581440 -0.516956
O5    O     O_R   0.349000 0.499980 0.568210 -0.555719
O6    O     O_R   0.651000 0.500020 0.431790 -0.505924
O7    O     O_R   0.349000 0.499990 0.405340 -0.519098
O8    O     O_R   0.651000 0.500010 0.594660 -0.577342
O9    O     O_3   0.810543 0.419982 0.378282 -0.559386
C37   C     C_3   0.816280 0.474304 0.296754 -0.226478
H3    H     H_    0.832670 0.545637 0.313823 0.166388
H4    H     H_    0.741908 0.466252 0.252957 0.212990
H5    H     H_    0.873334 0.452132 0.250711 0.114624
O10   O     O_3   0.189592 0.585514 0.617589 -0.581362
C38   C     C_3   0.201341 0.544225 0.708367 -0.330523
H6    H     H_    0.283509 0.534478 0.728153 0.199827
H7    H     H_    0.155603 0.480384 0.712887 0.134222
H8    H     H_    0.177729 0.588807 0.763476 0.155632
O11   O     O_3   0.357148 0.395991 0.245900 -0.500356
C39   C     C_3   0.362172 0.306769 0.218852 0.161524
H9    H     H_    0.393840 0.270311 0.282691 0.139043
H10   H     H_    0.411586 0.295753 0.160279 0.132003
C40   C     C_3   0.254752 0.266367 0.187644 -0.751719
H11   H     H_    0.216207 0.305628 0.129407 0.277411
H12   H     H_    0.259330 0.198612 0.160171 0.187819
H13   H     H_    0.208323 0.263519 0.249607 0.256440
O12   O     O_3   0.568234 0.649224 0.753091 -0.495208
C41   C     C_3   0.675612 0.666417 0.767640 0.228349
H14   H     H_    0.705586 0.658482 0.697250 0.190830
H15   H     H_    0.716027 0.623496 0.821878 0.141513
C42   C     C_3   0.701072 0.761569 0.798599 -0.796088
H16   H     H_    0.676270 0.773251 0.870601 0.277665
H17   H     H_    0.785122 0.777041 0.802048 0.188239
H18   H     H_    0.662054 0.805605 0.745681 0.269699
O13   O     O_3   0.328592 0.425893 0.046863 -0.514453
C43   C     C_3   0.272546 0.496421 0.008384 0.102233
H19   H     H_    0.308137 0.526329 0.946553 0.117054
H20   H     H_    0.267643 0.548788 0.063127 0.102540
C44   C     C_3   0.163861 0.462245 0.971343 -0.862587
H21   H     H_    0.121066 0.437802 0.031216 0.230094
H22   H     H_    0.122247 0.515975 0.934547 0.196164
H23   H     H_    0.165446 0.407274 0.919791 0.248942
O14   O     O_3   0.560613 0.652490 0.946444 -0.509432
C45   C     C_3   0.474024 0.689528 0.978093 0.139317
H24   H     H_    0.458512 0.662489 0.048957 0.104702
H25   H     H_    0.403250 0.676660 0.928122 0.101694
C46   C     C_3   0.495703 0.788494 0.989179 -0.827885
H26   H     H_    0.512113 0.817904 0.919331 0.272303
H27   H     H_    0.428014 0.818479 0.013470 0.191661
H28   H     H_    0.562936 0.803269 0.043069 0.234886
O15   O     O_3   0.822885 0.545326 0.696913 -0.599228
C47   C     C_3   0.835661 0.473861 0.760363 -0.342292
H29   H     H_    0.917868 0.468481 0.786925 0.158641
H30   H     H_    0.802549 0.410885 0.726101 0.168629
H31   H     H_    0.794085 0.484985 0.823779 0.159543
O16   O     O_3   0.177746 0.421668 0.320223 -0.531743
C48   C     C_3   0.152359 0.479187 0.243492 -0.237490
H32   H     H_    0.069423 0.471289 0.217040 0.113408
H33   H     H_    0.195207 0.462442 0.183369 0.227408
H34   H     H_    0.175301 0.549054 0.263379 0.149981
O17   O     O_3   0.355340 0.039284 0.584673 -0.550392
C49   C     C_3   0.256429 0.067634 0.556417 0.098067
H35   H     H_    0.245827 0.085738 0.478784 0.118322
H36   H     H_    0.241638 0.125013 0.600764 0.190504
C50   C     C_3   0.177186 0.993390 0.572819 -0.853554
H37   H     H_    0.183670 0.975050 0.650032 0.255696
H38   H     H_    0.098895 0.014781 0.551502 0.204541
H39   H     H_    0.189607 0.934965 0.529052 0.233901
O18   O     O_3   0.437005 0.947404 0.322019 -0.550991
C51   C     C_3   0.329810 0.954793 0.315085 0.079378
H40   H     H_    0.300560 0.964205 0.386156 0.140037
H41   H     H_    0.289540 0.894716 0.280461 0.163786
C52   C     C_3   0.303257 0.033943 0.253613 -0.846854
H42   H     H_    0.328453 0.026222 0.180875 0.253207
H43   H     H_    0.219117 0.040264 0.246572 0.204433
H44   H     H_    0.342300 0.094594 0.287977 0.237371
O19   O     O_3   0.408760 0.216415 0.636992 -0.530763
C53   C     C_3   0.465746 0.185507 0.720556 -0.195408
H45   H     H_    0.456258 0.112988 0.727576 0.199559
H46   H     H_    0.436890 0.211835 0.785198 0.199498
H47   H     H_    0.548414 0.207466 0.722422 0.129484
O20   O     O_3   0.424824 0.760014 0.326740 -0.565114
C54   C     C_3   0.472476 0.783464 0.243852 -0.192725
H48   H     H_    0.474809 0.722961 0.200908 0.148923
H49   H     H_    0.552312 0.812976 0.259605 0.151404
H50   H     H_    0.425248 0.828480 0.198603 0.180786
O21   O     O_3   0.625524 0.242412 0.378642 -0.542582
C55   C     C_3   0.616118 0.212511 0.281972 0.191131
H51   H     H_    0.536345 0.187802 0.255779 0.110226
H52   H     H_    0.669325 0.160316 0.273288 0.194161
C56   C     C_3   0.648340 0.286883 0.217583 -0.859869
H53   H     H_    0.730428 0.307131 0.237084 0.274662
H54   H     H_    0.639084 0.263207 0.142132 0.174625
H55   H     H_    0.600936 0.343612 0.224500 0.243085
O22   O     O_3   0.464420 0.778960 0.665057 -0.487899
C57   C     C_3   0.356351 0.779873 0.661220 0.171098
H56   H     H_    0.318499 0.734183 0.604108 0.157020
H57   H     H_    0.329684 0.847178 0.647283 0.157197
C58   C     C_3   0.321788 0.750204 0.756495 -0.746751
H58   H     H_    0.354438 0.796950 0.814153 0.240737
H59   H     H_    0.236869 0.748250 0.752642 0.194920
H60   H     H_    0.347639 0.683570 0.772409 0.246373
O23   O     O_3   0.633844 0.053935 0.387925 -0.559627
C59   C     C_3   0.730669 0.057952 0.442511 0.056368
H61   H     H_    0.726360 0.022428 0.511523 0.115379
H62   H     H_    0.760634 0.127240 0.457397 0.170976
C60   C     C_3   0.806109 0.013404 0.386380 -0.805501
H63   H     H_    0.813552 0.047891 0.317208 0.242511
H64   H     H_    0.882502 0.015368 0.428956 0.197773
H65   H     H_    0.778897 0.943710 0.371370 0.245202
O24   O     O_3   0.524404 0.953042 0.665882 -0.519122
C61   C     C_3   0.627075 0.987491 0.684051 0.069824
H66   H     H_    0.637044 0.051262 0.646599 0.120541
H67   H     H_    0.682985 0.941775 0.661052 0.114669
C62   C     C_3   0.652317 0.004377 0.791542 -0.808730
H68   H     H_    0.639391 0.942804 0.832193 0.258259
H69   H     H_    0.733860 0.028845 0.806887 0.196245
H70   H     H_    0.603228 0.054399 0.816420 0.228141
O25   O     O_3   0.676227 0.564777 0.080186 -0.530807
C63   C     C_3   0.727568 0.493302 0.048496 -0.327703
H71   H     H_    0.702888 0.478604 0.971598 0.160459
H72   H     H_    0.717332 0.432641 0.091687 0.125356
H73   H     H_    0.810893 0.512433 0.054628 0.170658
O26   O     O_3   0.441553 0.343255 0.929803 -0.516518
C64   C     C_3   0.532300 0.299885 0.952504 -0.358363
H74   H     H_    0.572633 0.289546 0.887687 0.139753
H75   H     H_    0.512210 0.234440 0.982634 0.181631
H76   H     H_    0.584787 0.337126 0.007528 0.161399
O27   O     O_3   0.644618 0.600667 0.278613 -0.543890
C65   C     C_3   0.689498 0.675028 0.234747 -0.265025
H77   H     H_    0.705549 0.728153 0.289521 0.151090
H78   H     H_    0.639728 0.701089 0.173552 0.168358
H79   H     H_    0.764354 0.659740 0.211047 0.190165
O28   O     O_3   0.398229 0.366115 0.729016 -0.495422
C66   C     C_3   0.299101 0.348126 0.758287 -0.170874
H80   H     H_    0.274301 0.399631 0.805068 0.102294
H81   H     H_    0.295167 0.284849 0.797195 0.187541
H82   H     H_    0.243131 0.341469 0.693107 0.154041

loop_
_geom_bond_atom_site_label_1
_geom_bond_atom_site_label_2
_ccdc_geom_bond_type
C22   O6    A    
C30   O9    S    
C4    C36   A    
C27   O16   S    
O15   C47   S    
C42   H17   S    
C42   H16   S    
C35   O19   S    
O18   C51   S    
C24   C27   A    
O27   C65   S    
C1    O3    A    
C49   H36   S    
C44   H21   S    
C64   H75   S    
Cu2   O7    S    
O13   C43   S    
C2    O4    A    
C11   C19   A    
C62   H68   S    
C36   O20   S    
Cu1   Cu2   S    
C59   H61   S    
C60   H64   S    
O23   C59   S    
C45   H25   S    
C38   H7    S    
O21   C55   S    
C52   H42   S    
C63   H73   S    
C11   O25   S    
O10   C38   S    
C18   C20   A    
C7    C9    A    
Cu1   N2    S    
C24   C29   A    
C51   H40   S    
Cu2   O3    S    
C39   H10   S    
C17   C19   A    
C1    O1    A    
C31   C32   A    
C53   H46   S    
C65   H78   S    
C66   H81   S    
C54   H50   S    
C14   O28   S    
C50   H37   S    
C41   H14   S    
C46   H27   S    
C9    C10   S    
Cu2   O6    S    
Cu1   O4    S    
C37   H5    S    
C22   O8    A    
C52   H44   S    
C40   H13   S    
C25   C32   A    
C5    O21   S    
C54   H48   S    
C53   H45   S    
C26   C31   A    
C62   H69   S    
C33   O17   S    
C9    C33   A    
C34   O18   S    
C50   H38   S    
O12   C41   S    
C21   O7    A    
C49   H35   S    
C44   H22   S    
C37   H4    S    
O25   C63   S    
C64   H76   S    
C59   H62   S    
C12   O26   S    
C18   O14   S    
O9    C37   S    
C23   C30   A    
C15   N1    A    
Cu2   N1    S    
C4    C6    A    
C60   H65   S    
C2    O2    A    
C64   H74   S    
C5    C7    A    
C43   H19   S    
C38   H8    S    
C6    C8    A    
C47   H31   S    
C40   H12   S    
O14   C45   S    
C45   C46   S    
C28   O15   S    
C1    C3    S    
C53   H47   S    
Cu1   O1    S    
C2    C4    S    
Cu2   O2    S    
C39   H9    S    
C56   H55   S    
C59   C60   S    
C48   H32   S    
C3    C35   A    
C66   H82   S    
C12   C20   A    
C41   C42   S    
C17   O13   S    
C15   O11   S    
C47   H29   S    
C10   C34   A    
C37   H3    S    
C46   H28   S    
C47   H30   S    
C8    O24   S    
C61   H66   S    
C57   H57   S    
C61   C62   S    
C51   H41   S    
C16   C18   A    
O28   C66   S    
C48   H33   S    
C12   C14   A    
C40   H11   S    
C62   H70   S    
C56   H53   S    
C50   H39   S    
C58   H60   S    
C55   C56   S    
Cu1   O5    S    
C23   C28   A    
C16   N2    A    
C44   H23   S    
C65   H77   S    
C56   H54   S    
C63   H71   S    
C15   C17   A    
C52   H43   S    
C39   C40   S    
C45   H24   S    
C61   H67   S    
C16   O12   S    
C3    C5    A    
C57   C58   S    
O19   C53   S    
C65   H79   S    
C13   N1    A    
C29   O10   S    
C25   C27   A    
O22   C57   S    
C26   C28   A    
C14   N2    A    
C55   H52   S    
C19   C20   S    
C58   H59   S    
C55   H51   S    
C46   H26   S    
C29   C31   A    
C63   H72   S    
C58   H58   S    
C25   H1    S    
C30   C32   A    
Cu1   O8    S    
C11   C13   A    
C43   C44   S    
C26   H2    S    
C38   H6    S    
O26   C64   S    
C6    O22   S    
C33   C35   A    
C34   C36   A    
C43   H20   S    
C49   C50   S    
O11   C39   S    
C57   H56   S    
C66   H80   S    
C13   O27   S    
C48   H34   S    
C42   H18   S    
C8    C10   A    
O16   C48   S    
C21   C24   S    
O17   C49   S    
C54   H49   S    
C22   C23   S    
C41   H15   S    
C7    O23   S    
O24   C61   S    
C60   H63   S    
C51   C52   S    
O20   C54   S    
C21   O5    A    
