data_mof_unit_62688.cif
_audit_creation_date              2012-12-10T19:33:08-0500
_audit_creation_method            fapswitch 2.2
_symmetry_space_group_name_H-M    P1
_symmetry_Int_Tables_number       1
_space_group_crystal_system       triclinic
_cell_length_a                    21.631565
_cell_length_b                    21.649638
_cell_length_c                    22.130978
_cell_angle_alpha                 119.261908
_cell_angle_beta                  120.062507
_cell_angle_gamma                 88.981644
_cell_volume                      7463.10694138

loop_
_atom_site_label
_atom_site_type_symbol
_atom_type_description
_atom_site_fract_x
_atom_site_fract_y
_atom_site_fract_z
_atom_type_partial_charge
C1    C     C_R   0.499566 0.120349 0.499858 0.876242
C2    C     C_3   0.723336 0.318787 0.047051 -0.433513
C3    C     C_3   0.792402 0.292410 0.082478 0.311542
C4    C     C_3   0.762653 0.210470 0.049877 -0.393972
C5    C     C_3   0.715790 0.161461 0.952841 -0.398641
C6    C     C_1   0.836637 0.338348 0.173980 -0.109594
C7    C     C_1   0.664737 0.163469 0.826343 -0.107318
C8    C     C_1   0.626437 0.125713 0.751251 -0.183476
C9    C     C_R   0.461083 0.233920 0.528222 0.124083
C10   C     C_R   0.502146 0.188932 0.504463 -0.102943
C11   C     C_R   0.550199 0.213358 0.489975 -0.209020
C12   C     C_R   0.581289 0.081044 0.662204 0.915685
C13   C     C_R   0.549319 0.276957 0.488940 -0.214208
C14   C     C_R   0.501091 0.316197 0.503197 -0.081181
C15   C     C_R   0.461183 0.297597 0.528400 0.047154
C16   C     C_3   0.379294 0.285214 0.493411 -0.239687
C17   C     C_3   0.379576 0.215099 0.494135 -0.492904
C18   C     C_3   0.205816 0.785575 0.048146 -0.391624
C19   C     C_3   0.296864 0.707702 0.050297 -0.118201
C20   C     C_3   0.245162 0.657849 0.952492 -0.432455
C21   C     C_1   0.124518 0.623946 0.751297 -0.181308
C22   C     C_3   0.288922 0.787940 0.082630 0.317539
C23   C     C_R   0.499544 0.878647 0.497861 0.883362
C24   C     C_3   0.156982 0.735517 0.950995 -0.406090
C25   C     C_3   0.206392 0.704797 0.917975 0.340439
C26   C     C_3   0.267263 0.770918 0.951026 -0.393852
C27   C     C_3   0.314912 0.820913 0.047890 -0.444722
C28   C     C_1   0.161066 0.659995 0.826403 -0.104977
C29   C     C_1   0.335293 0.835524 0.174075 -0.110437
C30   C     C_1   0.373655 0.873990 0.249036 -0.180154
C31   C     C_R   0.433706 0.768799 0.472077 0.089692
C32   C     C_R   0.496497 0.808194 0.488782 -0.087988
C33   C     C_R   0.556335 0.778211 0.496697 -0.211776
C34   C     C_R   0.418747 0.919039 0.337885 0.910287
C35   C     C_R   0.557007 0.715685 0.500303 -0.216265
C36   C     C_R   0.498755 0.684561 0.497540 -0.006917
C37   C     C_R   0.435961 0.709420 0.479456 0.010030
C38   C     C_3   0.392236 0.731222 0.518541 -0.251450
C39   C     C_3   0.387455 0.794951 0.506509 -0.458804
C40   C     C_R   0.880100 0.500346 0.499776 0.881531
C41   C     C_R   0.918801 0.419297 0.337886 0.908293
C42   C     C_R   0.119372 0.498472 0.498312 0.878506
C43   C     C_R   0.081148 0.580689 0.662219 0.912996
C44   C     C_R   0.620306 0.500101 0.500149 0.884558
C45   C     C_3   0.676028 0.270649 0.949924 -0.393387
C46   C     C_R   0.498937 0.380260 0.500600 0.873426
C47   C     C_R   0.379592 0.498208 0.499865 0.870345
C48   C     C_R   0.498380 0.619986 0.499524 0.888432
C49   C     C_R   0.804862 0.563781 0.548503 0.132291
C50   C     C_R   0.813356 0.499589 0.497285 -0.096241
C51   C     C_R   0.755358 0.432604 0.444543 -0.217997
C52   C     C_R   0.690741 0.432509 0.444736 -0.221730
C53   C     C_R   0.685529 0.498942 0.499640 -0.097597
C54   C     C_R   0.744224 0.563163 0.550966 0.126435
C55   C     C_3   0.771761 0.644068 0.616655 -0.488658
C56   C     C_3   0.791339 0.247116 0.951218 -0.429714
C57   C     C_3   0.841955 0.644589 0.614645 -0.493983
C58   C     C_R   0.249696 0.556594 0.564241 0.040734
C59   C     C_R   0.185563 0.496274 0.499301 -0.088944
C60   C     C_R   0.188165 0.430790 0.440626 -0.213427
C61   C     C_R   0.252592 0.430106 0.440685 -0.206275
C62   C     C_R   0.314343 0.494252 0.501063 -0.064263
C63   C     C_R   0.313773 0.555087 0.565001 0.091074
C64   C     C_3   0.331120 0.633430 0.590591 -0.470842
C65   C     C_3   0.260352 0.635576 0.589316 -0.191054
C66   C     C_3   0.839189 0.298859 0.048905 -0.119801
C67   C     C_1   0.873961 0.375585 0.248990 -0.178832
C68   C     C_3   0.710934 0.209589 0.917845 0.335018
H1    H     H_    0.741533 0.378109 0.070217 0.166897
H2    H     H_    0.617775 0.244779 0.925428 0.174342
H3    H     H_    0.688156 0.314786 0.069083 0.178484
H4    H     H_    0.809260 0.189096 0.076397 0.170874
H5    H     H_    0.585648 0.181695 0.475508 0.169696
H6    H     H_    0.584123 0.294104 0.474467 0.140189
H7    H     H_    0.345854 0.273316 0.428930 0.152293
H8    H     H_    0.370274 0.217095 0.540072 0.204814
H9    H     H_    0.345575 0.163227 0.430229 0.192025
H10   H     H_    0.113389 0.688928 0.929011 0.161105
H11   H     H_    0.673042 0.306604 0.926472 0.168355
H12   H     H_    0.184540 0.765829 0.073976 0.169917
H13   H     H_    0.355334 0.713055 0.067056 0.118317
H14   H     H_    0.202145 0.609891 0.928903 0.168633
H15   H     H_    0.279504 0.633785 0.927671 0.156155
H16   H     H_    0.309444 0.877850 0.068700 0.177552
H17   H     H_    0.375095 0.825844 0.072604 0.165791
H18   H     H_    0.240653 0.804364 0.925332 0.172404
H19   H     H_    0.200969 0.842690 0.068826 0.167912
H20   H     H_    0.127389 0.768279 0.925699 0.170158
H21   H     H_    0.816800 0.203943 0.928146 0.169132
H22   H     H_    0.304407 0.749549 0.929780 0.171876
H23   H     H_    0.604036 0.804991 0.504601 0.167963
H24   H     H_    0.603931 0.693607 0.508590 0.130177
H25   H     H_    0.336727 0.689546 0.478500 0.120167
H26   H     H_    0.329976 0.787880 0.457683 0.191824
H27   H     H_    0.416509 0.851426 0.565547 0.216452
H28   H     H_    0.759778 0.381137 0.403259 0.157821
H29   H     H_    0.645884 0.381011 0.403505 0.155491
H30   H     H_    0.737007 0.675231 0.592616 0.195488
H31   H     H_    0.788768 0.280603 0.925066 0.158356
H32   H     H_    0.782926 0.655292 0.676436 0.212701
H33   H     H_    0.848113 0.676578 0.590114 0.210384
H34   H     H_    0.893507 0.655492 0.673010 0.197822
H35   H     H_    0.139560 0.381952 0.392815 0.151540
H36   H     H_    0.253593 0.380840 0.392998 0.144998
H37   H     H_    0.384590 0.668964 0.653300 0.219048
H38   H     H_    0.326566 0.636663 0.540233 0.172823
H39   H     H_    0.216286 0.640792 0.538221 0.161747
H40   H     H_    0.848763 0.356619 0.064349 0.119054
H41   H     H_    0.658563 0.132692 0.928356 0.175149
H42   H     H_    0.741622 0.117778 0.931559 0.164379
H43   H     H_    0.726819 0.206741 0.071294 0.170364
O1    O     O_R   0.448270 0.091610 0.500010 -0.622712
O2    O     O_R   0.908540 0.448310 0.500030 -0.624111
O3    O     O_R   0.938770 0.490290 0.377140 -0.621090
O4    O     O_R   0.938740 0.386860 0.377150 -0.619587
O5    O     O_R   0.091820 0.551690 0.499970 -0.630682
O6    O     O_R   0.091790 0.448250 0.499980 -0.628410
O7    O     O_R   0.061630 0.613140 0.622850 -0.616201
O8    O     O_R   0.061600 0.509710 0.622860 -0.620052
O9    O     O_R   0.626360 0.534710 0.569400 -0.622999
O10   O     O_R   0.557050 0.465350 0.430680 -0.624579
O11   O     O_R   0.534700 0.443070 0.569360 -0.633635
O12   O     O_R   0.551720 0.091610 0.499980 -0.628936
O13   O     O_R   0.465400 0.373710 0.430650 -0.625848
O14   O     O_R   0.443050 0.534650 0.569320 -0.617836
O15   O     O_R   0.373740 0.465290 0.430600 -0.633511
O16   O     O_R   0.534700 0.626290 0.569350 -0.572824
O17   O     O_R   0.465390 0.556930 0.430640 -0.636622
O18   O     O_R   0.509700 0.061430 0.622870 -0.616899
O19   O     O_R   0.613150 0.061430 0.622840 -0.616243
O20   O     O_R   0.448280 0.908390 0.500020 -0.623301
O21   O     O_R   0.551730 0.908390 0.499990 -0.630772
O22   O     O_R   0.386850 0.938570 0.377160 -0.617588
O23   O     O_R   0.490300 0.938570 0.377130 -0.622245
O24   O     O_R   0.908570 0.551750 0.500020 -0.623073
Zn1   Zn    Zn3+2 0.430930 0.000000 0.500020 0.947460
Zn2   Zn    Zn3+2 0.569070 0.000000 0.499980 0.943501
Zn3   Zn    Zn3+2 0.000200 0.569060 0.500000 0.937905
Zn4   Zn    Zn3+2 0.000160 0.430940 0.500000 0.940974
Zn5   Zn    Zn3+2 0.546320 0.546310 0.592620 0.970429
Zn6   Zn    Zn3+2 0.453780 0.453690 0.407380 0.939931
C69   C     C_R   0.359699 0.342583 0.550491 0.163185
C70   C     C_R   0.411170 0.412694 0.621457 -0.131085
C71   C     C_R   0.389560 0.464879 0.670274 -0.151066
C72   C     C_R   0.316681 0.447911 0.649003 -0.107310
C73   C     C_R   0.265177 0.378716 0.578763 -0.112639
C74   C     C_R   0.286387 0.326458 0.529518 -0.162336
H44   H     H_    0.467791 0.427661 0.639142 0.145798
H45   H     H_    0.429239 0.518767 0.724340 0.127784
H46   H     H_    0.299948 0.488604 0.686540 0.122591
H47   H     H_    0.208510 0.365848 0.561888 0.139671
H48   H     H_    0.245489 0.273416 0.474593 0.127410
C75   C     C_R   0.287276 0.673479 0.092487 0.145455
C76   C     C_R   0.216303 0.642661 0.069699 -0.150090
C77   C     C_R   0.210035 0.614656 0.112143 -0.146888
C78   C     C_R   0.274211 0.617145 0.177882 -0.106935
C79   C     C_R   0.344860 0.647292 0.201068 -0.126090
C80   C     C_R   0.351455 0.675037 0.158594 -0.167695
H49   H     H_    0.165540 0.639952 0.019187 0.119813
H50   H     H_    0.155269 0.591182 0.094164 0.127103
H51   H     H_    0.269201 0.595766 0.210899 0.125869
H52   H     H_    0.394621 0.649487 0.252276 0.136780
H53   H     H_    0.406909 0.698943 0.178382 0.118048
C81   C     C_2   0.434213 0.760240 0.610677 0.929355
O25   O     O_2   0.495820 0.753069 0.647578 -0.619680
O26   O     O_R   0.401570 0.796599 0.653903 -0.808475
H54   H     H_    0.434021 0.813786 0.715055 0.338049
C82   C     C_R   0.274388 0.689990 0.674271 0.196108
C83   C     C_R   0.237305 0.744539 0.683161 -0.102239
C84   C     C_R   0.254137 0.799634 0.762202 -0.132677
C85   C     C_R   0.308325 0.800979 0.833053 -0.126719
C86   C     C_R   0.344286 0.746010 0.824769 -0.160884
C87   C     C_R   0.327084 0.690334 0.745795 -0.157750
H55   H     H_    0.196423 0.745396 0.629163 0.113892
H56   H     H_    0.225988 0.841992 0.768686 0.125328
H57   H     H_    0.322512 0.844707 0.894415 0.122570
H58   H     H_    0.386107 0.746947 0.879699 0.123771
H59   H     H_    0.356262 0.648778 0.740846 0.125089
C88   C     C_R   0.916526 0.288799 0.091289 0.146123
C89   C     C_R   0.926633 0.218319 0.070197 -0.149172
C90   C     C_R   0.997896 0.211673 0.112932 -0.143205
C91   C     C_R   0.059920 0.274981 0.177217 -0.116214
C92   C     C_R   0.050912 0.345117 0.198601 -0.137595
C93   C     C_R   0.979861 0.352085 0.155890 -0.164901
H60   H     H_    0.879831 0.168235 0.020778 0.120001
H61   H     H_    0.004981 0.157293 0.096298 0.125692
H62   H     H_    0.114959 0.269707 0.210491 0.119192
H63   H     H_    0.098986 0.394203 0.248618 0.135440
H64   H     H_    0.974174 0.407161 0.174342 0.116937

loop_
_geom_bond_atom_site_label_1
_geom_bond_atom_site_label_2
_ccdc_geom_bond_type
C86   H58   S    
O24   Zn3   S    
C85   C86   A    
C79   C80   A    
C22   C29   S    
C20   H14   S    
C16   H7    S    
C83   C84   A    
C52   H29   S    
C45   C68   S    
C35   C36   A    
C41   O3    A    
C3    C6    S    
O23   Zn2   S    
C72   C73   A    
C7    C8    T    
C14   C46   S    
C18   H12   S    
O6    Zn4   S    
C90   C91   A    
C52   C53   A    
C25   C28   S    
C57   H34   S    
C65   C82   S    
C26   C27   S    
C37   C38   S    
C12   O19   A    
C18   C24   S    
C78   C79   A    
C41   O4    A    
C73   C74   A    
C33   H23   S    
C1    O1    A    
C38   C39   S    
C40   C50   S    
C70   C71   A    
C20   C25   S    
C44   O9    A    
C49   C54   A    
C44   O10   A    
C49   C57   S    
C38   H25   S    
C27   H16   S    
C56   C68   S    
C75   C80   A    
C27   H17   S    
C91   C92   A    
C7    C68   S    
C21   C43   S    
C44   C53   S    
C84   C85   A    
C19   C20   S    
C16   C17   S    
C64   C65   S    
C55   H32   S    
C17   H8    S    
C83   H55   S    
O2    Zn4   S    
C36   C48   S    
O9    Zn5   S    
C60   H35   S    
C93   H64   S    
C9    C10   A    
C72   H46   S    
C8    C12   S    
C51   H28   S    
C47   C62   S    
C35   H24   S    
C38   C81   S    
C77   H50   S    
C10   C11   A    
C59   C60   A    
C2    C45   S    
C13   C14   A    
C46   O13   A    
C70   H44   S    
O1    Zn1   S    
C5    C68   S    
C47   O14   A    
O5    Zn3   S    
C84   H56   S    
O14   Zn5   S    
C82   C87   A    
C40   O24   A    
C12   O18   A    
C30   C34   S    
C51   C52   A    
O10   Zn6   S    
C64   H37   S    
C19   C22   S    
C24   C25   S    
C41   C67   S    
O20   Zn1   S    
C11   H5    S    
C19   H13   S    
C4    C5    S    
C34   O22   A    
C25   C26   S    
C53   C54   A    
C3    C4    S    
C63   C64   S    
C60   C61   A    
C16   C69   S    
C92   C93   A    
C1    O12   A    
C39   H26   S    
C71   H45   S    
C48   O17   A    
O18   Zn1   S    
C58   C65   S    
C40   O2    A    
C14   C15   A    
C26   H18   S    
C61   H36   S    
C62   C63   A    
C17   H9    S    
C50   C51   A    
C23   O20   A    
C45   H11   S    
C24   H20   S    
C39   H27   S    
C76   C77   A    
C80   H53   S    
O22   Zn1   S    
C9    C17   S    
C82   C83   A    
C4    H43   S    
O4    Zn4   S    
C78   H51   S    
C22   C27   S    
C55   C57   S    
O26   H54   S    
C19   C75   S    
O13   Zn6   S    
C58   C59   A    
C3    C66   S    
O16   Zn5   S    
C2    H3    S    
C2    H1    S    
C4    H4    S    
C86   C87   A    
C47   O15   A    
C88   C93   A    
O17   Zn6   S    
C24   H10   S    
C58   C63   A    
C56   H21   S    
C54   C55   S    
C81   O25   D    
C45   H2    S    
C18   C22   S    
C66   C88   S    
C69   C74   A    
C21   C28   T    
C31   C32   A    
C1    C10   S    
C66   H40   S    
C71   C72   A    
C42   C59   S    
C90   H61   S    
C42   O6    A    
C64   H38   S    
C88   C89   A    
C26   H22   S    
C57   H33   S    
C85   H57   S    
O12   Zn2   S    
O15   Zn6   S    
C18   H19   S    
O8    Zn4   S    
C32   C33   A    
C81   O26   S    
C2    C3    S    
O21   Zn2   S    
O11   Zn5   S    
C76   H49   S    
C6    C67   T    
C92   H63   S    
C23   C32   S    
C48   O16   A    
C11   C13   A    
C5    H41   S    
C87   H59   S    
C56   C66   S    
C42   O5    A    
C55   H30   S    
C33   C35   A    
C31   C39   S    
C23   O21   A    
C74   H48   S    
C91   H62   S    
O3    Zn3   S    
C9    C15   A    
C61   C62   A    
C89   H60   S    
C43   O7    A    
C29   C30   T    
C73   H47   S    
C31   C37   A    
C13   H6    S    
C36   C37   A    
C49   C50   A    
C5    H42   S    
C20   H15   S    
C77   C78   A    
C34   O23   A    
C69   C70   A    
C46   O11   A    
C56   H31   S    
C75   C76   A    
O7    Zn3   S    
O19   Zn2   S    
C79   H52   S    
C65   H39   S    
C89   C90   A    
C15   C16   S    
C43   O8    A    
