data_mof_unit_65778.cif
_audit_creation_date              2012-10-26T18:46:07-0400
_audit_creation_method            fapswitch 2.2
_symmetry_space_group_name_H-M    P1
_symmetry_Int_Tables_number       1
_space_group_crystal_system       triclinic
_cell_length_a                    13.907415
_cell_length_b                    16.537208
_cell_length_c                    17.708726
_cell_angle_alpha                 91.090931
_cell_angle_beta                  92.225253
_cell_angle_gamma                 85.919013
_cell_volume                      4058.89496516

loop_
_atom_site_label
_atom_site_type_symbol
_atom_type_description
_atom_site_fract_x
_atom_site_fract_y
_atom_site_fract_z
_atom_type_partial_charge
Br1   Br    Br    0.597580 0.336227 0.103197 -0.527784
Br2   Br    Br    0.402421 0.663773 0.896803 -0.527784
C1    C     C_R   0.499712 0.500557 0.644579 0.544537
C2    C     C_R   0.559522 0.829210 0.545640 -0.114548
C3    C     C_R   0.440227 0.256127 0.451284 0.153057
C4    C     C_R   0.559772 0.743873 0.548716 0.153057
C5    C     C_R   0.561062 0.255482 0.549560 0.045272
C6    C     C_R   0.438939 0.744518 0.450439 0.045272
C7    C     C_R   0.563929 0.169519 0.551931 -0.139232
C8    C     C_R   0.436072 0.830481 0.448068 -0.139232
C9    C     C_R   0.502674 0.126246 0.503577 0.012632
C10   C     C_R   0.497326 0.873754 0.496423 0.012632
C11   C     C_1   0.501694 0.036994 0.501863 -0.016924
C12   C     C_R   0.500288 0.499443 0.355421 0.544536
C13   C     C_1   0.498306 0.963005 0.498137 -0.016924
C14   C     C_R   0.683083 0.487576 0.500265 0.548612
C15   C     C_R   0.316917 0.512424 0.499735 0.548611
C16   C     C_1   0.214182 0.519267 0.499397 -0.015348
C17   C     C_1   0.785817 0.480733 0.500602 -0.015348
C18   C     C_2   0.024423 0.533135 0.498776 -0.115921
C19   C     C_2   0.975577 0.466865 0.501224 -0.115921
C20   C     C_1   0.872334 0.474177 0.500906 -0.044771
C21   C     C_1   0.127666 0.525823 0.499094 -0.044771
C22   C     C_R   0.541654 0.430407 0.154355 0.168479
C23   C     C_R   0.461207 0.565731 0.153822 -0.134339
C24   C     C_R   0.458348 0.569593 0.845645 0.168478
C25   C     C_R   0.541904 0.431275 0.233219 -0.104384
C26   C     C_R   0.458095 0.568725 0.766781 -0.104384
C27   C     C_R   0.500892 0.498697 0.272649 -0.023055
C28   C     C_R   0.499108 0.501302 0.727351 -0.023055
C29   C     C_R   0.461232 0.566199 0.232472 -0.141587
C30   C     C_R   0.538770 0.433801 0.767528 -0.141588
C31   C     C_3   0.370969 0.295352 0.392219 -0.228130
C32   C     C_3   0.400678 0.271211 0.311722 -0.310227
C33   C     C_3   0.337296 0.317508 0.252339 -0.434716
C34   C     C_R   0.538797 0.434270 0.846178 -0.134339
C35   C     C_3   0.629030 0.704648 0.607781 -0.228131
C36   C     C_3   0.599319 0.728788 0.688279 -0.310231
C37   C     C_3   0.662699 0.682490 0.747662 -0.434721
C38   C     C_R   0.501072 0.498031 0.114636 0.046062
C39   C     C_R   0.498932 0.501970 0.885364 0.046062
C40   C     C_1   0.500346 0.499315 0.033862 0.059444
C41   C     C_1   0.499659 0.500686 0.966138 0.059444
C42   C     C_R   0.440477 0.170790 0.454361 -0.114548
Cu1   Cu    Cu3+1 0.500000 0.419580 0.500020 0.932542
Cu2   Cu    Cu3+1 0.500000 0.580420 0.499980 0.932543
H1    H     H_    0.012800 0.406858 0.503459 0.137878
H2    H     H_    0.608189 0.861384 0.582743 0.101152
H3    H     H_    0.608490 0.287403 0.587640 0.122392
H4    H     H_    0.391512 0.712597 0.412359 0.122391
H5    H     H_    0.613554 0.137336 0.591389 0.106861
H6    H     H_    0.386449 0.862664 0.408609 0.106861
H7    H     H_    0.260930 0.303040 0.256528 0.157505
H8    H     H_    0.342215 0.383882 0.260224 0.158789
H9    H     H_    0.361766 0.299789 0.195025 0.183466
H10   H     H_    0.477061 0.283801 0.304779 0.187788
H11   H     H_    0.394329 0.205294 0.301524 0.161150
H12   H     H_    0.987200 0.593142 0.496541 0.137878
H13   H     H_    0.297495 0.275547 0.400969 0.112745
H14   H     H_    0.364000 0.361266 0.396301 0.210383
H15   H     H_    0.657783 0.616117 0.739775 0.158790
H16   H     H_    0.739064 0.696961 0.743476 0.157507
H17   H     H_    0.638226 0.700207 0.804975 0.183468
H18   H     H_    0.605669 0.794704 0.698477 0.161152
H19   H     H_    0.522937 0.716198 0.695221 0.187791
H20   H     H_    0.636000 0.638734 0.603699 0.210383
H21   H     H_    0.702504 0.724454 0.599033 0.112745
H22   H     H_    0.575440 0.379920 0.263626 0.149823
H23   H     H_    0.424559 0.620079 0.736374 0.149823
H24   H     H_    0.429446 0.618976 0.261859 0.130841
H25   H     H_    0.570556 0.381025 0.738141 0.130841
H26   H     H_    0.429974 0.618169 0.123516 0.149850
H27   H     H_    0.570031 0.381832 0.876484 0.149850
H28   H     H_    0.391808 0.138616 0.417258 0.101151
N1    N     N_R   0.500030 0.298780 0.500030 -0.211569
N2    N     N_R   0.499970 0.701220 0.499970 -0.211568
O1    O     O_R   0.500010 0.432070 0.608760 -0.495938
O2    O     O_R   0.499990 0.567930 0.391240 -0.495939
O3    O     O_R   0.500000 0.567880 0.608730 -0.516536
O4    O     O_R   0.500000 0.432120 0.391270 -0.516537
O5    O     O_R   0.637850 0.422490 0.500000 -0.493288
O6    O     O_R   0.362150 0.577510 0.500000 -0.493287
O7    O     O_R   0.637840 0.558310 0.499970 -0.512962
O8    O     O_R   0.362160 0.441690 0.500030 -0.512962

loop_
_geom_bond_atom_site_label_1
_geom_bond_atom_site_label_2
_ccdc_geom_bond_type
C23   C29   A    
C32   H10   S    
C33   H7    S    
C26   H23   S    
C7    H5    S    
C22   C25   A    
C1    O3    A    
Cu2   N2    S    
Cu1   Cu2   S    
C30   C34   A    
C32   C33   S    
C23   C38   A    
C36   C37   S    
C25   C27   A    
C6    N2    A    
C15   O6    A    
C25   H22   S    
Cu2   O6    S    
C29   H24   S    
C3    C31   S    
C32   H11   S    
C36   H19   S    
C12   O4    A    
C2    C10   A    
C38   C40   S    
C8    H6    S    
C31   H13   S    
C19   C20   S    
C33   H8    S    
C39   C41   S    
C34   C39   A    
C31   C32   S    
C30   H25   S    
C36   H18   S    
C37   H15   S    
C33   H9    S    
C16   C21   T    
C17   C20   T    
C5    H3    S    
C2    C4    A    
Cu2   O2    S    
C5    N1    A    
C18   C21   S    
C14   O7    A    
C3    N1    A    
C1    C28   S    
C35   C36   S    
C10   C13   S    
C35   H20   S    
C15   C16   S    
C4    C35   S    
C9    C42   A    
Br2   C24   S    
C23   H26   S    
C42   H28   S    
C7    C9    A    
C8    C10   A    
C3    C42   A    
C31   H14   S    
C11   C13   T    
Cu1   O8    S    
C40   C41   T    
C12   C27   S    
C18   H12   S    
C1    O1    A    
C6    H4    S    
C2    H2    S    
C5    C7    A    
C37   H16   S    
Cu1   O5    S    
C4    N2    A    
C37   H17   S    
C24   C26   A    
Cu1   N1    S    
C15   O8    A    
C26   C28   A    
C27   C29   A    
C28   C30   A    
C9    C11   S    
Cu2   O3    S    
C14   C17   S    
C35   H21   S    
C14   O5    A    
C22   C38   A    
Cu1   O4    S    
C12   O2    A    
C34   H27   S    
Cu2   O7    S    
C18   C19   D    
Br1   C22   S    
C6    C8    A    
Cu1   O1    S    
C24   C39   A    
C19   H1    S    
