data_mof_unit_12117.cif
_audit_creation_date              2012-12-10T17:22:12-0500
_audit_creation_method            fapswitch 2.2
_symmetry_space_group_name_H-M    P1
_symmetry_Int_Tables_number       1
_space_group_crystal_system       triclinic
_cell_length_a                    15.872725
_cell_length_b                    10.866307
_cell_length_c                    9.57551
_cell_angle_alpha                 90.544602
_cell_angle_beta                  90.169354
_cell_angle_gamma                 92.60692
_cell_volume                      1649.77063378

loop_
_atom_site_label
_atom_site_type_symbol
_atom_type_description
_atom_site_fract_x
_atom_site_fract_y
_atom_site_fract_z
_atom_type_partial_charge
C1    C     C_R   0.506892 0.263177 0.500126 0.799339
C2    C     C_3   0.947731 0.386695 0.578345 -0.357256
C3    C     C_3   0.917018 0.500273 0.499138 0.274285
C4    C     C_3   0.954922 0.618029 0.572594 -0.489370
C5    C     C_3   0.052522 0.618191 0.571583 -0.390715
C6    C     C_1   0.824848 0.500713 0.500702 -0.072660
C7    C     C_1   0.174793 0.500077 0.498627 -0.092372
C8    C     C_1   0.250422 0.499879 0.499195 -0.189456
C9    C     C_R   0.560142 0.124727 0.752032 -0.159852
C10   C     C_R   0.552745 0.067784 0.881342 -0.159649
C11   C     C_R   0.511497 0.952843 0.890870 -0.142529
C12   C     C_R   0.340208 0.499647 0.499829 0.834950
C13   C     C_R   0.485606 0.889593 0.769695 -0.166471
C14   C     C_R   0.501366 0.940558 0.635706 0.092590
C15   C     C_R   0.526320 0.066469 0.629732 0.096375
C16   C     C_R   0.515095 0.129578 0.502356 -0.119404
C17   C     C_R   0.500159 0.062714 0.378533 -0.215432
C18   C     C_R   0.493176 0.935543 0.380528 -0.217123
C19   C     C_R   0.493358 0.872593 0.507572 -0.114546
C20   C     C_R   0.612581 0.663779 0.146222 -0.155551
C21   C     C_R   0.667623 0.743389 0.074785 -0.229560
C22   C     C_R   0.667546 0.743258 0.930956 -0.192709
C23   C     C_R   0.495892 0.737755 0.501758 0.777381
C24   C     C_R   0.612326 0.663630 0.857705 -0.154509
C25   C     C_R   0.555146 0.580630 0.926147 0.184349
C26   C     C_R   0.555211 0.580602 0.075874 0.210512
C27   C     C_R   0.447892 0.422786 0.072877 -0.071494
C28   C     C_R   0.447926 0.422797 0.924836 -0.064843
C29   C     C_R   0.659712 0.500436 0.500181 0.802761
C30   C     C_3   0.045283 0.386384 0.577206 -0.386288
C31   C     C_3   0.048003 0.495881 0.346797 -0.424120
C32   C     C_3   0.949894 0.497236 0.346129 0.359931
C33   C     C_1   0.749322 0.500698 0.500752 -0.183600
C34   C     C_3   0.082529 0.500195 0.498493 0.280942
Cu1   Cu    Cu3+1 0.499990 0.499990 0.640660 0.917476
Cu2   Cu    Cu3+1 0.500010 0.500010 0.359340 0.926858
H1    H     H_    0.921070 0.300068 0.529494 0.195776
H2    H     H_    0.069338 0.386968 0.686539 0.161633
H3    H     H_    0.925173 0.388611 0.688269 0.153776
H4    H     H_    0.933710 0.701615 0.518826 0.161844
H5    H     H_    0.493558 0.108641 0.279412 0.161783
H6    H     H_    0.593793 0.213393 0.749109 0.162329
H7    H     H_    0.576705 0.114547 0.974616 0.137413
H8    H     H_    0.501047 0.911321 0.992076 0.139760
H9    H     H_    0.450478 0.803547 0.784646 0.170343
H10   H     H_    0.485904 0.886568 0.281826 0.164588
H11   H     H_    0.405233 0.359524 0.127393 0.135827
H12   H     H_    0.065574 0.300259 0.526065 0.168582
H13   H     H_    0.618181 0.671906 0.256317 0.199960
H14   H     H_    0.710676 0.805749 0.131797 0.147887
H15   H     H_    0.710390 0.805676 0.875372 0.150895
H16   H     H_    0.617278 0.671770 0.747764 0.204171
H17   H     H_    0.405316 0.359484 0.868512 0.143258
H18   H     H_    0.074255 0.576527 0.287730 0.122545
H19   H     H_    0.069204 0.411738 0.292476 0.181635
H20   H     H_    0.930429 0.583838 0.295382 0.046912
H21   H     H_    0.076677 0.623537 0.680830 0.173629
H22   H     H_    0.078160 0.701370 0.516357 0.167101
H23   H     H_    0.932281 0.622572 0.682366 0.183067
N1    N     N_R   0.500800 0.501210 0.147910 -0.196767
N2    N     N_R   0.500820 0.501290 0.852040 -0.201684
O1    O     O_R   0.499990 0.319640 0.618810 -0.587325
O2    O     O_R   0.500000 0.319660 0.381240 -0.581201
O3    O     O_R   0.379430 0.499990 0.618840 -0.574725
O4    O     O_R   0.379440 0.500020 0.381260 -0.571552
O5    O     O_R   0.500000 0.680340 0.618760 -0.613101
O6    O     O_R   0.500010 0.680360 0.381190 -0.598905
O7    O     O_R   0.620560 0.499980 0.618740 -0.597679
O8    O     O_R   0.620570 0.500010 0.381160 -0.593378
O9    O     O_3   0.915178 0.390503 0.276362 -0.610508
C35   C     C_3   0.905215 0.410399 0.131424 0.025998
H24   H     H_    0.915637 0.321799 0.076683 0.166162
H25   H     H_    0.952573 0.478969 0.088494 0.117317
C36   C     C_3   0.815301 0.448287 0.100165 -0.326775
H26   H     H_    0.769374 0.378669 0.143857 0.234220
H27   H     H_    0.804312 0.538626 0.150685 0.212847
C37   C     C_3   0.800063 0.458164 0.943265 -0.912010
H28   H     H_    0.842866 0.530974 0.898090 0.247450
H29   H     H_    0.733881 0.482123 0.924008 0.274200
H30   H     H_    0.810699 0.368830 0.890314 0.244463

loop_
_geom_bond_atom_site_label_1
_geom_bond_atom_site_label_2
_ccdc_geom_bond_type
C24   H16   S    
Cu1   Cu2   S    
C3    C6    S    
C1    O1    A    
Cu2   O6    S    
C7    C8    T    
C37   H28   S    
C9    H6    S    
C36   H27   S    
C5    H22   S    
C23   O5    A    
C30   H12   S    
C27   N1    A    
C12   O3    A    
C15   C16   A    
C29   C33   S    
C30   H2    S    
C18   C19   A    
C23   O6    A    
C2    H3    S    
C4    H4    S    
C16   C17   A    
C36   C37   S    
Cu1   O3    S    
Cu2   O2    S    
C9    C10   A    
C28   N2    A    
C13   C14   A    
C18   H10   S    
C21   H14   S    
C29   O8    A    
C37   H29   S    
C36   H26   S    
C30   C34   S    
C24   C25   A    
C35   H25   S    
Cu2   O4    S    
C32   O9    S    
Cu1   O5    S    
C25   C26   A    
C19   C23   S    
C20   H13   S    
C29   O7    A    
C31   C32   S    
C8    C12   S    
C5    C34   S    
C17   C18   A    
C31   C34   S    
C11   H8    S    
Cu1   N2    S    
C1    C16   S    
C25   N2    A    
O9    C35   S    
C7    C34   S    
C22   C24   A    
C3    C4    S    
Cu2   O8    S    
C37   H30   S    
C27   H11   S    
C1    O2    A    
C10   H7    S    
C14   C19   A    
C4    C5    S    
Cu2   N1    S    
C35   C36   S    
C28   H17   S    
C12   O4    A    
C6    C33   T    
C5    H21   S    
C2    C30   S    
C2    C3    S    
C9    C15   A    
C35   H24   S    
C13   H9    S    
C11   C13   A    
C2    H1    S    
C20   C26   A    
Cu1   O7    S    
C4    H23   S    
Cu1   O1    S    
C31   H18   S    
C3    C32   S    
C17   H5    S    
C10   C11   A    
C20   C21   A    
C27   C28   A    
C14   C15   A    
C31   H19   S    
C21   C22   A    
C26   N1    A    
C32   H20   S    
C22   H15   S    
