data_mof_unit_51226.cif
_audit_creation_date              2013-03-05T15:49:10-0500
_audit_creation_method            fapswitch 2.2
_symmetry_space_group_name_H-M    P1
_symmetry_Int_Tables_number       1
_space_group_crystal_system       triclinic
_cell_length_a                    17.534948
_cell_length_b                    24.395426
_cell_length_c                    15.130814
_cell_angle_alpha                 89.981673
_cell_angle_beta                  126.450268
_cell_angle_gamma                 90.075536
_cell_volume                      5206.33535165

loop_
_atom_site_label
_atom_site_type_symbol
_atom_site_description
_atom_site_fract_x
_atom_site_fract_y
_atom_site_fract_z
_atom_type_partial_charge
C1    C     C_R   0.308971 0.124566 0.906533 -0.091848
C2    C     C_R   0.308759 0.875669 0.906335 -0.090920
C3    C     C_R   0.808962 0.624555 0.906532 -0.092071
C4    C     C_R   0.808764 0.375664 0.906308 -0.091593
H1    H     H_    0.253532 0.133484 0.821583 0.150719
H2    H     H_    0.253868 0.866480 0.821406 0.156031
H3    H     H_    0.753508 0.633455 0.821575 0.150761
H4    H     H_    0.753943 0.366462 0.821374 0.156428
N1    N     N_R   0.392450 0.103580 0.942190 -0.053967
N2    N     N_R   0.392450 0.896420 0.942190 -0.054149
N3    N     N_R   0.892450 0.603580 0.942190 -0.053972
N4    N     N_R   0.892450 0.396420 0.942190 -0.054257
C5    C     C_R   0.401334 0.876710 0.090895 -0.107135
C6    C     C_R   0.401887 0.123680 0.091190 -0.118126
C7    C     C_R   0.901300 0.376711 0.090865 -0.105601
C8    C     C_R   0.901880 0.623671 0.091190 -0.117291
H5    H     H_    0.430160 0.871205 0.175904 0.129564
H6    H     H_    0.430882 0.129542 0.176200 0.096480
H7    H     H_    0.930113 0.371231 0.175873 0.127486
H8    H     H_    0.930868 0.629524 0.176202 0.096324
N5    N     N_R   0.450490 0.896000 0.057360 -0.052930
N6    N     N_R   0.450490 0.104000 0.057360 -0.044938
N7    N     N_R   0.950490 0.396000 0.057360 -0.052963
N8    N     N_R   0.950490 0.604000 0.057360 -0.045125
C9    C     C_R   0.540267 0.045691 0.299333 -0.087204
C10   C     C_R   0.542480 0.954333 0.300171 -0.033328
C11   C     C_R   0.040417 0.545751 0.299343 -0.085839
C12   C     C_R   0.042498 0.454385 0.300250 -0.034342
H9    H     H_    0.555268 0.087632 0.327811 0.124073
H10   H     H_    0.558144 0.912362 0.328482 0.083139
H11   H     H_    0.055617 0.587699 0.327767 0.121789
H12   H     H_    0.057958 0.412415 0.328569 0.081787
N9    N     N_R   0.525490 0.028390 0.207550 -0.050168
N10   N     N_R   0.525490 0.971610 0.207550 -0.049124
N11   N     N_R   0.025490 0.528390 0.207550 -0.050020
N12   N     N_R   0.025490 0.471610 0.207550 -0.048621
C13   C     C_R   0.240661 0.953951 0.696755 -0.053475
C14   C     C_R   0.240779 0.045737 0.696236 -0.111486
C15   C     C_R   0.740738 0.453945 0.696693 -0.051880
C16   C     C_R   0.740859 0.545723 0.696133 -0.111891
H13   H     H_    0.226443 0.911979 0.668118 0.115002
H14   H     H_    0.226112 0.087647 0.667277 0.105607
H15   H     H_    0.726574 0.411968 0.668089 0.115159
H16   H     H_    0.726202 0.587633 0.667174 0.105997
N13   N     N_R   0.317450 0.971190 0.792000 -0.049390
N14   N     N_R   0.317450 0.028810 0.792000 -0.046462
N15   N     N_R   0.817450 0.471190 0.792000 -0.049606
N16   N     N_R   0.817450 0.528810 0.792000 -0.046483
C17   C     C_R   0.313238 0.138626 0.998595 0.030027
C18   C     C_R   0.312334 0.862025 0.998091 0.045055
C19   C     C_R   0.813230 0.638616 0.998597 0.030509
C20   C     C_R   0.812273 0.362047 0.998034 0.045092
C21   C     C_R   0.545182 0.999880 0.355222 0.137268
C22   C     C_R   0.045361 0.499995 0.355319 0.138862
C23   C     C_R   0.192611 0.999728 0.636877 0.093593
C24   C     C_R   0.692747 0.499710 0.636717 0.094242
C25   C     C_R   0.518050 0.046074 0.751294 -0.080228
C26   C     C_R   0.521757 0.954239 0.755897 -0.082542
C27   C     C_R   0.017924 0.546103 0.751197 -0.079199
C28   C     C_R   0.021493 0.454242 0.755544 -0.082132
H17   H     H_    0.523160 0.088584 0.735726 0.117432
H18   H     H_    0.532185 0.911688 0.746918 0.113276
H19   H     H_    0.023087 0.588628 0.735761 0.115546
H20   H     H_    0.031718 0.411693 0.746266 0.111850
N17   N     N_R   0.473900 0.028390 0.792280 -0.060330
N18   N     N_R   0.473900 0.971610 0.792280 -0.043497
N19   N     N_R   0.973900 0.528390 0.792280 -0.060108
N20   N     N_R   0.973900 0.471610 0.792280 -0.043332
C29   C     C_R   0.769035 0.953973 0.247810 -0.041993
C30   C     C_R   0.769390 0.046263 0.250118 -0.046079
C31   C     C_R   0.269022 0.453981 0.247694 -0.040517
C32   C     C_R   0.269401 0.546268 0.250176 -0.047540
H21   H     H_    0.792570 0.911859 0.264653 0.093132
H22   H     H_    0.792844 0.088416 0.268155 0.096344
H23   H     H_    0.292558 0.411867 0.264452 0.093300
H24   H     H_    0.292843 0.588423 0.268226 0.096619
N21   N     N_R   0.682310 0.971180 0.208170 -0.039994
N22   N     N_R   0.682310 0.028820 0.208170 -0.041177
N23   N     N_R   0.182310 0.471180 0.208170 -0.040014
N24   N     N_R   0.182310 0.528820 0.208170 -0.041626
C33   C     C_R   0.650366 0.151411 0.092790 -0.157340
C34   C     C_R   0.650224 0.848650 0.092978 -0.160101
C35   C     C_R   0.150380 0.651401 0.092815 -0.157297
C36   C     C_R   0.150225 0.348651 0.092969 -0.160377
N25   N     N_R   0.606470 0.103570 0.057210 -0.041732
N26   N     N_R   0.606470 0.896430 0.057210 -0.043138
N27   N     N_R   0.106470 0.603570 0.057210 -0.041659
N28   N     N_R   0.106470 0.396430 0.057210 -0.043196
C37   C     C_R   0.558738 0.847822 0.909970 -0.156116
C38   C     C_R   0.559142 0.151915 0.909663 -0.129091
C39   C     C_R   0.058769 0.347838 0.909955 -0.155383
C40   C     C_R   0.059142 0.651928 0.909690 -0.129676
N29   N     N_R   0.549740 0.896000 0.943240 -0.040496
N30   N     N_R   0.549740 0.104000 0.943240 -0.040216
N31   N     N_R   0.049740 0.396000 0.943240 -0.040469
N32   N     N_R   0.049740 0.604000 0.943240 -0.040136
Ni1   Ni    Ni4+2 0.433780 0.065390 0.868430 0.216897
Ni2   Ni    Ni4+2 0.433780 0.934610 0.868430 0.250238
Ni3   Ni    Ni4+2 0.933780 0.565390 0.868430 0.217327
Ni4   Ni    Ni4+2 0.933780 0.434610 0.868430 0.250443
Ni5   Ni    Ni4+2 0.565800 0.934190 0.131570 0.235112
Ni6   Ni    Ni4+2 0.565800 0.065810 0.131570 0.243527
Ni7   Ni    Ni4+2 0.065800 0.434190 0.131570 0.235427
Ni8   Ni    Ni4+2 0.065800 0.565810 0.131570 0.242956
C41   C     C_R   0.543375 0.000025 0.720487 0.112635
C42   C     C_R   0.043055 0.500075 0.720160 0.113947
C43   C     C_R   0.824156 0.000197 0.274619 0.047418
C44   C     C_R   0.324166 0.500208 0.274620 0.047949
C45   C     C_R   0.622197 0.182298 0.001954 0.036157
C46   C     C_R   0.622320 0.817694 0.002392 0.033478
C47   C     C_R   0.122251 0.682287 0.002001 0.036437
C48   C     C_R   0.122341 0.317706 0.002376 0.033581
C49   C     C_3   0.031454 0.951492 0.500313 -0.237796
C50   C     C_3   0.026258 0.041318 0.514160 -0.207084
C51   C     C_3   0.531865 0.451250 0.499513 -0.238132
C52   C     C_3   0.526205 0.540942 0.514571 -0.206580
C53   C     C_3   0.958260 0.993453 0.479501 0.398757
C54   C     C_3   0.458479 0.492884 0.479353 0.398150
H25   H     H_    0.047051 0.912179 0.545044 0.184741
H26   H     H_    0.038232 0.075007 0.570485 0.200854
H27   H     H_    0.547662 0.411735 0.543683 0.184360
H28   H     H_    0.538048 0.574341 0.571357 0.201500
C55   C     C_3   0.924236 0.999941 0.360923 0.016901
C56   C     C_3   0.424297 0.499936 0.360820 0.016143
C57   C     C_3   0.998234 0.958202 0.380361 -0.179945
C58   C     C_3   0.993312 0.047905 0.394470 -0.221309
C59   C     C_3   0.498485 0.458540 0.379601 -0.178943
C60   C     C_3   0.493122 0.548109 0.394945 -0.221400
C61   C     C_3   0.069548 0.006223 0.415996 -0.051491
C62   C     C_3   0.569549 0.506774 0.415824 -0.050189
C63   C     C_3   0.100010 0.999538 0.533661 0.087729
C64   C     C_3   0.600156 0.499507 0.533446 0.087292
H29   H     H_    0.984440 0.924500 0.323278 0.149224
H30   H     H_    0.975838 0.087128 0.349024 0.146421
H31   H     H_    0.484816 0.425127 0.322047 0.149749
H32   H     H_    0.475446 0.587526 0.350052 0.146747
H33   H     H_    0.118901 0.011411 0.393439 0.157665
H34   H     H_    0.618806 0.512420 0.393242 0.158761
C65   C     C_3   0.283122 0.808074 0.116071 -0.378869
C66   C     C_3   0.289120 0.194752 0.118514 -0.453800
C67   C     C_3   0.782390 0.308391 0.115756 -0.379497
C68   C     C_3   0.789151 0.694760 0.118532 -0.453842
H35   H     H_    0.360125 0.799849 0.176733 0.188832
H36   H     H_    0.365816 0.205277 0.174030 0.183239
H37   H     H_    0.859400 0.300475 0.177074 0.187711
H38   H     H_    0.865844 0.705299 0.174006 0.182857
H39   H     H_    0.265059 0.845058 0.143141 0.229817
H40   H     H_    0.277205 0.157975 0.152477 0.173137
H41   H     H_    0.763540 0.345385 0.141913 0.229918
H42   H     H_    0.777280 0.657986 0.152543 0.173677
C69   C     C_3   0.731638 0.258188 0.118080 -0.402021
C70   C     C_3   0.736115 0.743788 0.120041 -0.402787
C71   C     C_3   0.232107 0.757995 0.118290 -0.401754
C72   C     C_3   0.236097 0.243787 0.120021 -0.402657
H43   H     H_    0.189531 0.769978 0.147818 0.184709
H44   H     H_    0.195647 0.231060 0.151952 0.166638
H45   H     H_    0.688832 0.270080 0.147353 0.184846
H46   H     H_    0.695689 0.731057 0.152001 0.166787
H47   H     H_    0.786234 0.228195 0.177632 0.171220
H48   H     H_    0.789361 0.775045 0.177189 0.168271
H49   H     H_    0.286555 0.727877 0.177610 0.171582
H50   H     H_    0.289350 0.275036 0.177190 0.168474
H51   H     H_    0.861052 0.256436 0.028159 0.159802
H52   H     H_    0.856678 0.744398 0.015185 0.162500
H53   H     H_    0.360599 0.756407 0.026699 0.160058
H54   H     H_    0.356740 0.244406 0.015289 0.162683
C73   C     C_3   0.783763 0.264375 0.966703 -0.359677
C74   C     C_3   0.779174 0.735544 0.959648 -0.363438
C75   C     C_3   0.283252 0.764424 0.965895 -0.360000
C76   C     C_3   0.279235 0.235559 0.959703 -0.363298
C77   C     C_3   0.145854 0.827188 0.920103 0.266751
C78   C     C_3   0.147533 0.171523 0.926832 0.259972
C79   C     C_3   0.645710 0.327011 0.919300 0.266140
C80   C     C_3   0.647530 0.671498 0.926898 0.259908
C81   C     C_3   0.255805 0.817149 0.998324 0.129616
C82   C     C_3   0.256880 0.183354 0.999248 0.184290
C83   C     C_3   0.755713 0.317171 0.998229 0.129816
C84   C     C_3   0.756870 0.683343 0.999255 0.184202
H55   H     H_    0.130608 0.862923 0.953227 0.095760
H56   H     H_    0.136067 0.137062 0.966164 0.092291
H57   H     H_    0.630014 0.362910 0.951620 0.096393
H58   H     H_    0.636101 0.637049 0.966286 0.092752
C85   C     C_3   0.667397 0.232589 0.001875 0.282620
C86   C     C_3   0.668125 0.767624 0.002652 0.312596
C87   C     C_3   0.167485 0.732569 0.001952 0.282718
C88   C     C_3   0.168140 0.267636 0.002638 0.312209
C89   C     C_3   0.728470 0.215577 0.963469 -0.319361
C90   C     C_3   0.725583 0.784409 0.959274 -0.360687
C91   C     C_3   0.228184 0.715600 0.963018 -0.320048
C92   C     C_3   0.225632 0.284423 0.959305 -0.360391
C93   C     C_3   0.593721 0.276410 0.922717 -0.498433
C94   C     C_3   0.594994 0.722568 0.927515 -0.479596
C95   C     C_3   0.093837 0.776502 0.923204 -0.498847
C96   C     C_3   0.095003 0.222590 0.927468 -0.479463
H59   H     H_    0.051115 0.789104 0.952187 0.154311
H60   H     H_    0.053242 0.210819 0.958203 0.157784
H61   H     H_    0.550911 0.289146 0.951508 0.154605
H62   H     H_    0.553244 0.710804 0.958267 0.157776
H63   H     H_    0.542989 0.259064 0.839079 0.200639
H64   H     H_    0.543408 0.738586 0.842907 0.209670
H65   H     H_    0.043041 0.759286 0.839458 0.200790
H66   H     H_    0.043426 0.238619 0.842868 0.209483
H67   H     H_    0.771260 0.268306 0.885871 0.207332
H68   H     H_    0.760719 0.730240 0.876089 0.193074
H69   H     H_    0.270058 0.768503 0.884717 0.207143
H70   H     H_    0.260826 0.230266 0.876163 0.192990
H71   H     H_    0.682753 0.199217 0.878039 0.204538
H72   H     H_    0.677703 0.800533 0.873874 0.176832
H73   H     H_    0.182243 0.699241 0.877599 0.203010
H74   H     H_    0.177773 0.300550 0.873904 0.176680
C97   C     C_3   0.649937 0.998560 0.661553 0.098703
C98   C     C_3   0.495331 0.945656 0.553833 0.123149
C99   C     C_3   0.149588 0.497312 0.661357 0.098903
C100  C     C_3   0.992914 0.446503 0.552050 0.123962
H75   H     H_    0.677745 0.956485 0.693403 0.048261
H76   H     H_    0.535140 0.909282 0.605668 0.043508
H77   H     H_    0.175704 0.454872 0.692013 0.047507
H78   H     H_    0.031210 0.409574 0.602748 0.043663
C101  C     C_3   0.649238 0.006059 0.558657 0.086421
C102  C     C_3   0.504770 0.943023 0.459094 0.108280
C103  C     C_3   0.149309 0.504882 0.558787 0.086107
C104  C     C_3   0.002275 0.443782 0.457227 0.108047
H79   H     H_    0.691563 0.971567 0.559791 0.098187
H80   H     H_    0.559932 0.911613 0.482209 0.021090
H81   H     H_    0.190352 0.469882 0.559022 0.096863
H82   H     H_    0.056061 0.411590 0.479401 0.019913
H83   H     H_    0.531763 0.088808 0.591359 0.228673
H84   H     H_    0.421863 0.056221 0.533134 0.193810
H85   H     H_    0.034926 0.589116 0.593638 0.229042
H86   H     H_    0.923752 0.557918 0.534222 0.193636
C105  C     C_3   0.492312 0.050522 0.550181 -0.349112
C106  C     C_3   0.994049 0.551353 0.551316 -0.349324
C107  C     C_3   0.545531 0.999220 0.624402 -0.069181
C108  C     C_3   0.045221 0.499353 0.624116 -0.069611
C109  C     C_3   0.544689 0.999370 0.451341 -0.075700
C110  C     C_3   0.044590 0.499571 0.451236 -0.075353
C111  C     C_3   0.479962 0.045949 0.442446 -0.317690
C112  C     C_3   0.981658 0.546984 0.443543 -0.318553
H87   H     H_    0.778961 0.182463 0.017048 0.167248
H88   H     H_    0.776851 0.817636 0.011253 0.164117
H89   H     H_    0.278790 0.682498 0.016458 0.167681
H90   H     H_    0.276896 0.317648 0.011300 0.164447
N33   N     N_R   0.109287 0.839902 0.806435 0.224460
O1    O     O_R   0.105523 0.802557 0.742480 -0.430799
O2    O     O_R   0.073445 0.888030 0.765978 -0.359525
N34   N     N_R   0.107768 0.155172 0.813725 0.230089
O3    O     O_R   0.098961 0.190355 0.743475 -0.432013
O4    O     O_R   0.074235 0.105864 0.780381 -0.349673
N35   N     N_R   0.609565 0.339251 0.805603 0.224372
O5    O     O_R   0.606456 0.301641 0.742494 -0.429555
O6    O     O_R   0.573386 0.387204 0.764220 -0.359266
N36   N     N_R   0.607736 0.655115 0.813800 0.230073
O7    O     O_R   0.598886 0.690276 0.743494 -0.431209
O8    O     O_R   0.574217 0.605799 0.780520 -0.350108
N37   N     N_R   0.714503 0.036393 0.752444 0.283700
O9    O     O_R   0.793077 0.017559 0.839755 -0.357498
O10   O     O_R   0.692681 0.087454 0.751259 -0.365704
N38   N     N_R   0.396211 0.939819 0.515974 0.280668
O11   O     O_R   0.371335 0.896301 0.542955 -0.376422
O12   O     O_R   0.330610 0.974209 0.446910 -0.381099
N39   N     N_R   0.215568 0.534270 0.753322 0.283954
O13   O     O_R   0.293541 0.514439 0.839928 -0.357011
O14   O     O_R   0.195494 0.585520 0.753818 -0.365166
N40   N     N_R   0.893632 0.442023 0.514185 0.280904
O15   O     O_R   0.867263 0.399114 0.540920 -0.376992
O16   O     O_R   0.829295 0.477100 0.445612 -0.381627
N41   N     N_R   0.695280 0.057257 0.561237 0.281458
O17   O     O_R   0.775027 0.054917 0.573230 -0.270616
O18   O     O_R   0.660559 0.105171 0.556396 -0.366759
N42   N     N_R   0.416484 0.923072 0.356753 0.268939
O19   O     O_R   0.392744 0.871923 0.350831 -0.393475
O20   O     O_R   0.361127 0.954761 0.272551 -0.396595
N43   N     N_R   0.197286 0.555529 0.562889 0.281737
O21   O     O_R   0.277230 0.552248 0.575521 -0.268968
O22   O     O_R   0.164332 0.603846 0.559330 -0.366280
N44   N     N_R   0.913177 0.425151 0.354249 0.269545
O23   O     O_R   0.886453 0.374589 0.347340 -0.392310
O24   O     O_R   0.860081 0.457413 0.270367 -0.395835
H91   H     H_    0.494657 0.086503 0.422627 0.180860
H92   H     H_    0.404409 0.037989 0.375060 0.234891
H93   H     H_    0.997941 0.587370 0.424971 0.181317
H94   H     H_    0.905838 0.539986 0.375865 0.234462
H95   H     H_    0.691591 0.164467 0.177578 0.108228
H96   H     H_    0.691250 0.835693 0.177796 0.100264
H97   H     H_    0.191582 0.664450 0.177606 0.108136
H98   H     H_    0.191242 0.335687 0.177783 0.100427
H99   H     H_    0.517105 0.834151 0.825489 0.124843
H100  H     H_    0.517845 0.165220 0.825031 0.099318
H101  H     H_    0.017160 0.334180 0.825468 0.123796
H102  H     H_    0.017828 0.665264 0.825075 0.099068
N45   N     N_R   0.903179 0.986324 0.522540 0.255065
O25   O     O_R   0.946978 0.984100 0.628223 -0.272311
O26   O     O_R   0.811555 0.980984 0.457556 -0.399438
N46   N     N_R   0.403595 0.485132 0.522491 0.255450
O27   O     O_R   0.447543 0.482628 0.628177 -0.271454
O28   O     O_R   0.312023 0.479506 0.457594 -0.399206

loop_
_geom_bond_atom_site_label_1
_geom_bond_atom_site_label_2
_geom_bond_distance
_ccdc_geom_bond_type
C96   H60   1.113075 S    
N37   O10   1.300586 A    
C68   H38   1.112244 S    
N21   Ni5   1.874474 S    
N45   O25   1.300218 A    
C77   H55   1.114796 S    
C76   C82   1.552583 S    
N4    N7    1.401868 A    
C104  C110  1.577425 S    
C36   C48   1.375218 A    
C13   H13   1.081472 S    
C9    C21   1.372802 A    
C30   C43   1.379161 A    
C75   H69   1.111048 S    
N32   Ni3   1.887781 S    
C103  H81   1.116059 S    
C95   H65   1.110701 S    
C100  C104  1.539417 S    
C78   C96   1.553753 S    
N7    Ni7   1.874842 S    
C14   C23   1.369908 A    
C91   H89   1.114559 S    
C30   H22   1.080198 S    
C103  N43   1.474276 S    
C94   H62   1.113076 S    
C4    N4    1.325164 A    
C19   C84   1.477138 S    
C102  N42   1.476933 S    
C67   H37   1.110597 S    
N28   N31   1.387462 A    
C31   C44   1.379150 A    
C44   C56   1.436272 S    
N2    N5    1.401868 A    
H53   C75   1.114477 S    
C27   C42   1.386752 A    
N35   O6    1.300951 A    
C11   H11   1.080075 S    
N9    Ni6   1.902060 S    
C12   H12   1.080682 S    
N11   Ni8   1.902060 S    
C97   N37   1.474071 S    
C12   C22   1.373154 A    
C55   C58   1.536228 S    
C98   C102  1.538947 S    
N30   Ni1   1.887781 S    
C11   N11   1.321009 A    
N13   N14   1.405667 A    
C79   C93   1.552596 S    
C71   H49   1.113637 S    
C88   C92   1.548569 S    
C90   H88   1.114497 S    
C15   C24   1.368403 A    
C8    H8    1.075340 S    
C51   C54   1.522278 S    
C106  C108  1.566980 S    
C5    N5    1.319231 A    
C54   C56   1.525848 S    
H86   C106  1.110694 S    
C56   C59   1.535227 S    
C37   H99   1.081166 S    
C103  C110  1.576565 S    
C38   H100  1.080751 S    
N42   O20   1.301877 A    
C13   N13   1.326611 A    
C62   H34   1.109983 S    
C15   N15   1.326617 A    
C16   N16   1.328257 A    
C39   H101  1.081157 S    
C36   N28   1.322377 A    
C40   C47   1.373268 A    
C25   H17   1.078735 S    
C27   H19   1.078751 S    
C28   H20   1.076953 S    
C92   H74   1.113899 S    
N46   O28   1.298977 A    
C52   C54   1.521054 S    
C94   H64   1.111040 S    
C3    N3    1.326410 A    
C57   C61   1.556335 S    
C61   H33   1.109985 S    
C58   H30   1.110095 S    
C89   H71   1.114000 S    
H84   C105  1.110713 S    
N36   O7    1.301960 A    
H83   C105  1.107078 S    
C51   H27   1.110400 S    
C29   N21   1.328996 A    
C33   H95   1.080534 S    
C8    C19   1.387629 A    
C22   C110  1.459421 S    
C77   C95   1.552719 S    
C34   H96   1.080637 S    
C80   H58   1.114809 S    
C31   N23   1.329148 A    
C29   C43   1.379109 A    
C72   C88   1.548971 S    
N35   O5    1.302005 A    
C111  H91   1.107287 S    
H85   C106  1.107121 S    
N39   O13   1.301151 A    
C50   C58   1.547970 S    
C40   N32   1.323069 A    
N3    Ni3   1.897975 S    
C20   C83   1.477421 S    
C2    C18   1.392332 A    
C27   N19   1.318420 A    
C65   H35   1.110795 S    
C32   C44   1.379165 A    
N40   O15   1.301502 A    
N23   Ni7   1.874473 S    
N43   O21   1.299968 A    
C51   C64   1.532834 S    
C101  C109  1.576807 S    
C100  H78   1.113574 S    
C79   N35   1.467988 S    
C37   C46   1.373921 A    
C74   H68   1.110761 S    
C99   N39   1.474032 S    
C18   C81   1.477279 S    
C69   H47   1.113639 S    
C39   C48   1.373931 A    
N20   Ni4   1.896862 S    
N26   N29   1.387462 A    
C52   C64   1.532357 S    
C28   N20   1.318046 A    
C49   C53   1.522263 S    
C10   H10   1.080713 S    
C40   H102  1.080778 S    
C28   C42   1.385203 A    
N34   O3    1.301962 A    
C42   C108  1.476211 S    
C77   N33   1.468033 S    
C88   C96   1.552345 S    
N41   O17   1.300125 A    
C87   C91   1.548419 S    
N19   Ni3   1.898095 S    
C97   C101  1.560371 S    
C5    H5    1.074941 S    
C26   C41   1.385007 A    
N18   Ni2   1.896862 S    
N38   O11   1.301568 A    
C32   N24   1.327556 A    
C78   H56   1.114808 S    
C68   C84   1.562414 S    
C98   N38   1.478397 S    
N43   O22   1.300368 A    
C37   N29   1.324749 A    
C14   N14   1.328109 A    
C50   C53   1.521134 S    
C79   H57   1.114777 S    
C5    C18   1.389434 A    
C13   C23   1.368429 A    
C16   H16   1.081650 S    
N44   O23   1.300915 A    
C38   C45   1.373232 A    
C33   N25   1.322896 A    
N25   Ni6   1.890523 S    
C78   C82   1.569277 S    
C9    N9    1.321524 A    
C26   H18   1.076830 S    
C35   N27   1.322779 A    
C74   C90   1.516840 S    
N22   Ni6   1.876708 S    
C50   C63   1.532386 S    
C102  C109  1.577412 S    
C25   C41   1.387123 A    
N11   N12   1.385170 A    
C43   C55   1.435942 S    
N21   N22   1.406152 A    
C7    H7    1.074912 S    
C52   H28   1.110513 S    
N24   Ni8   1.876709 S    
N12   Ni7   1.903307 S    
C1    H1    1.077099 S    
C69   H45   1.113290 S    
C100  N40   1.478273 S    
C59   H31   1.110022 S    
C76   H70   1.110762 S    
C3    H3    1.077128 S    
N13   Ni2   1.869696 S    
C60   H32   1.110094 S    
N46   O27   1.300200 A    
C55   C57   1.535190 S    
C65   C71   1.525351 S    
N33   O1    1.302043 A    
C96   H66   1.111038 S    
C101  N41   1.474184 S    
C68   C70   1.524503 S    
C49   H25   1.110419 S    
C97   C107  1.563679 S    
C99   C103  1.559978 S    
C16   C24   1.370017 A    
C86   C94   1.552348 S    
C29   H21   1.080177 S    
C73   H67   1.111075 S    
C71   H43   1.113293 S    
C80   C84   1.569250 S    
C72   H44   1.113294 S    
C35   H97   1.080537 S    
C32   H24   1.080186 S    
C56   C60   1.536360 S    
C45   C85   1.460120 S    
C46   C86   1.461496 S    
C53   N45   1.460852 S    
C9    H9    1.080103 S    
C100  C108  1.581755 S    
C72   H50   1.113608 S    
C38   N30   1.322984 A    
C70   H46   1.113294 S    
N10   Ni5   1.903307 S    
N19   N20   1.385170 A    
C1    N1    1.326383 A    
C3    C19   1.392874 A    
N31   Ni4   1.890092 S    
C34   N26   1.322396 A    
C62   C64   1.533591 S    
C85   C89   1.548418 S    
H52   C74   1.114499 S    
C75   C81   1.552236 S    
C105  C107  1.566932 S    
C7    C20   1.389695 A    
C69   C85   1.547843 S    
C24   C64   1.436350 S    
C73   C83   1.552167 S    
N14   Ni1   1.867480 S    
C33   C45   1.376375 A    
C92   H90   1.114499 S    
C23   C63   1.436083 S    
C35   C47   1.376276 A    
C99   C108  1.563351 S    
N36   O8    1.301252 A    
N16   Ni3   1.867480 S    
C90   H72   1.113901 S    
N1    Ni1   1.897975 S    
N45   O26   1.299000 A    
C66   H36   1.112234 S    
C25   N17   1.318880 A    
C60   C62   1.553359 S    
C89   H87   1.114563 S    
C58   C61   1.553429 S    
C68   H42   1.113312 S    
C112  H93   1.107076 S    
C91   H73   1.114001 S    
N41   O18   1.300440 A    
C6    N6    1.318500 A    
C110  C112  1.555577 S    
N4    Ni4   1.896685 S    
C101  H79   1.116089 S    
N27   Ni8   1.890523 S    
C12   N12   1.317490 A    
N40   O16   1.301005 A    
N42   O19   1.301046 A    
C17   C82   1.477084 S    
C50   H26   1.110517 S    
C97   H75   1.115960 S    
C70   H48   1.113606 S    
C30   N22   1.327536 A    
C6    H6    1.075312 S    
C65   C81   1.561586 S    
C4    H4    1.075960 S    
C66   H40   1.113310 S    
C98   C107  1.582242 S    
C11   C22   1.372313 A    
C67   H41   1.112152 S    
C65   H39   1.112319 S    
C4    C20   1.392346 A    
C112  H94   1.107755 S    
C34   C46   1.375205 A    
C93   H63   1.110663 S    
C14   H14   1.081642 S    
C48   C88   1.461439 S    
N1    N6    1.401856 A    
C6    C17   1.387627 A    
C49   C57   1.550504 S    
C104  H82   1.115615 S    
C54   N46   1.460770 S    
N3    N8    1.401856 A    
C51   C59   1.550593 S    
N2    Ni2   1.896685 S    
C26   N18   1.317900 A    
C98   H76   1.113762 S    
C95   H59   1.113132 S    
C78   N34   1.468305 S    
C70   C86   1.548973 S    
C21   C109  1.459551 S    
C66   C82   1.562410 S    
N5    Ni5   1.874842 S    
C7    N7    1.319379 A    
C8    N8    1.318519 A    
C106  C112  1.515492 S    
C109  C111  1.555406 S    
C2    H2    1.076065 S    
C10   N10   1.316921 A    
N34   O4    1.301254 A    
C47   C87   1.460118 S    
C111  H92   1.107611 S    
N39   O14   1.300546 A    
C99   H77   1.115940 S    
C15   H15   1.081461 S    
N33   O2    1.300994 A    
C77   C81   1.570833 S    
N15   Ni4   1.869696 S    
C86   C90   1.548571 S    
N8    Ni8   1.877134 S    
H51   C73   1.114467 S    
N25   N30   1.387473 A    
N15   N16   1.405667 A    
C79   C83   1.571080 S    
C67   C83   1.561583 S    
C73   C89   1.516644 S    
N27   N32   1.387473 A    
N9    N10   1.385170 A    
N44   O24   1.301658 A    
N37   O9    1.301207 A    
C2    N2    1.325279 A    
C10   C21   1.372688 A    
N38   O12   1.301039 A    
C102  H80   1.115722 S    
N28   Ni7   1.891790 S    
C67   C69   1.525596 S    
C57   H29   1.110029 S    
C36   H98   1.080639 S    
C49   C63   1.532798 S    
C41   C107  1.476756 S    
C93   H61   1.113139 S    
C87   C95   1.552602 S    
C85   C93   1.552606 S    
C76   C92   1.516823 S    
N6    Ni6   1.877134 S    
C105  C111  1.515653 S    
C53   C55   1.525840 S    
C59   C62   1.556519 S    
N17   Ni1   1.898095 S    
C31   H23   1.080171 S    
C71   C87   1.547916 S    
C74   C84   1.552587 S    
H54   C76   1.114499 S    
C104  N44   1.476896 S    
C75   C91   1.516592 S    
N23   N24   1.406152 A    
C39   N31   1.324689 A    
N17   N18   1.385170 A    
C52   C60   1.547816 S    
C80   C94   1.553776 S    
N26   Ni5   1.891790 S    
C1    C17   1.392840 A    
N29   Ni2   1.890092 S    
C80   N36   1.468294 S    
C66   C72   1.524492 S    
C61   C63   1.533516 S    
