data_mof_unit_64286.cif
_audit_creation_date              2013-03-05T16:36:47-0500
_audit_creation_method            fapswitch 2.2
_symmetry_space_group_name_H-M    P1
_symmetry_Int_Tables_number       1
_space_group_crystal_system       triclinic
_cell_length_a                    36.242431
_cell_length_b                    25.692884
_cell_length_c                    25.680588
_cell_angle_alpha                 89.999043
_cell_angle_beta                  89.99578
_cell_angle_gamma                 89.991838
_cell_volume                      23913.0589591

loop_
_atom_site_label
_atom_site_type_symbol
_atom_site_description
_atom_site_fract_x
_atom_site_fract_y
_atom_site_fract_z
_atom_type_partial_charge
Zn1   Zn    Zn3+2 0.719300 0.249980 0.438970 0.998666
Zn2   Zn    Zn3+2 0.280700 0.249980 0.438970 0.989433
Zn3   Zn    Zn3+2 0.280700 0.249980 0.561030 0.996313
Zn4   Zn    Zn3+2 0.719300 0.249980 0.561030 0.985601
Zn5   Zn    Zn3+2 0.219300 0.749980 0.938970 0.998491
Zn6   Zn    Zn3+2 0.780700 0.749980 0.938970 0.990344
Zn7   Zn    Zn3+2 0.780700 0.749980 0.061030 0.995408
Zn8   Zn    Zn3+2 0.219300 0.749980 0.061030 0.986426
Zn9   Zn    Zn3+2 0.780720 0.311020 0.500000 0.998238
Zn10  Zn    Zn3+2 0.219280 0.311020 0.500000 0.997013
Zn11  Zn    Zn3+2 0.280720 0.811020 0.000000 0.998114
Zn12  Zn    Zn3+2 0.719280 0.811020 0.000000 0.996975
Zn13  Zn    Zn3+2 0.780730 0.188950 0.500000 0.985203
Zn14  Zn    Zn3+2 0.219270 0.188950 0.500000 0.987722
Zn15  Zn    Zn3+2 0.280730 0.688950 0.000000 0.985721
Zn16  Zn    Zn3+2 0.719270 0.688950 0.000000 0.986928
O1    O     O_3   0.750020 0.249980 0.500000 -0.487114
O2    O     O_3   0.249980 0.249980 0.500000 -0.487652
O3    O     O_3   0.250020 0.749980 0.000000 -0.487256
O4    O     O_3   0.749980 0.749980 0.000000 -0.487491
O5    O     O_R   0.728520 0.310110 0.602800 -0.630326
O6    O     O_R   0.271480 0.310110 0.602800 -0.628055
O7    O     O_R   0.271480 0.310110 0.397200 -0.630248
O8    O     O_R   0.728520 0.310110 0.397200 -0.628646
O9    O     O_R   0.228520 0.810110 0.102800 -0.629309
O10   O     O_R   0.771480 0.810110 0.102800 -0.628086
O11   O     O_R   0.771480 0.810110 0.897200 -0.629879
O12   O     O_R   0.228520 0.810110 0.897200 -0.628162
O13   O     O_R   0.728520 0.189860 0.397190 -0.631634
O14   O     O_R   0.271480 0.189860 0.397190 -0.631560
O15   O     O_R   0.271480 0.189860 0.602810 -0.631208
O16   O     O_R   0.728520 0.189860 0.602810 -0.635603
O17   O     O_R   0.228520 0.689860 0.897190 -0.630911
O18   O     O_R   0.771480 0.689860 0.897190 -0.630598
O19   O     O_R   0.771480 0.689860 0.102810 -0.630818
O20   O     O_R   0.228520 0.689860 0.102810 -0.633292
O21   O     O_R   0.771490 0.352810 0.439870 -0.634635
O22   O     O_R   0.228510 0.352810 0.439870 -0.634795
O23   O     O_R   0.228510 0.352810 0.560130 -0.634511
O24   O     O_R   0.771490 0.352810 0.560130 -0.633467
O25   O     O_R   0.271490 0.852810 0.939870 -0.635726
O26   O     O_R   0.728510 0.852810 0.939870 -0.635468
O27   O     O_R   0.728510 0.852810 0.060130 -0.634661
O28   O     O_R   0.271490 0.852810 0.060130 -0.633780
O29   O     O_R   0.771530 0.147160 0.560090 -0.635651
O30   O     O_R   0.228470 0.147160 0.560090 -0.636569
O31   O     O_R   0.228470 0.147160 0.439910 -0.633117
O32   O     O_R   0.771530 0.147160 0.439910 -0.633006
O33   O     O_R   0.271530 0.647160 0.060090 -0.636193
O34   O     O_R   0.728470 0.647160 0.060090 -0.637570
O35   O     O_R   0.728470 0.647160 0.939910 -0.634049
O36   O     O_R   0.271530 0.647160 0.939910 -0.633707
O37   O     O_R   0.832000 0.292700 0.500000 -0.618069
O38   O     O_R   0.168000 0.292700 0.500000 -0.619437
O39   O     O_R   0.332000 0.792700 0.000000 -0.617635
O40   O     O_R   0.668000 0.792700 0.000000 -0.619521
O41   O     O_R   0.668030 0.249990 0.542720 -0.640724
O42   O     O_R   0.331970 0.249990 0.542720 -0.626251
O43   O     O_R   0.331970 0.249990 0.457280 -0.640337
O44   O     O_R   0.668030 0.249990 0.457280 -0.624815
O45   O     O_R   0.168030 0.749990 0.042720 -0.642860
O46   O     O_R   0.831970 0.749990 0.042720 -0.627330
O47   O     O_R   0.831970 0.749990 0.957280 -0.639345
O48   O     O_R   0.168030 0.749990 0.957280 -0.623839
O49   O     O_R   0.832010 0.207260 0.500000 -0.643261
O50   O     O_R   0.167990 0.207260 0.500000 -0.639561
O51   O     O_R   0.332010 0.707260 0.000000 -0.643795
O52   O     O_R   0.667990 0.707260 0.000000 -0.639637
C1    C     C_R   0.749988 0.349065 0.599073 0.819179
C2    C     C_R   0.249997 0.349057 0.599083 0.817976
C3    C     C_R   0.250000 0.349057 0.400917 0.818634
C4    C     C_R   0.749999 0.349055 0.400918 0.819572
C5    C     C_R   0.250000 0.849053 0.099085 0.819364
C6    C     C_R   0.749997 0.849057 0.099082 0.818211
C7    C     C_R   0.749999 0.849056 0.900917 0.818563
C8    C     C_R   0.250000 0.849055 0.900918 0.818407
C9    C     C_R   0.750022 0.150907 0.400952 0.830726
C10   C     C_R   0.249980 0.150910 0.400950 0.831528
C11   C     C_R   0.249978 0.150910 0.599048 0.827558
C12   C     C_R   0.750024 0.150909 0.599051 0.826940
C13   C     C_R   0.250022 0.650907 0.900952 0.830718
C14   C     C_R   0.749976 0.650913 0.900947 0.831632
C15   C     C_R   0.749979 0.650909 0.099048 0.827247
C16   C     C_R   0.250022 0.650907 0.099049 0.828591
C17   C     C_R   0.849532 0.249965 0.499943 0.815541
C18   C     C_R   0.150467 0.249979 0.499940 0.815223
C19   C     C_R   0.349531 0.749963 0.999948 0.817806
C20   C     C_R   0.650468 0.749978 0.999946 0.817187
C21   C     C_R   0.650310 0.250028 0.500004 0.820380
C22   C     C_R   0.349690 0.250025 0.499993 0.818344
C23   C     C_R   0.150310 0.750033 0.000003 0.817718
C24   C     C_R   0.849690 0.750024 0.999993 0.817091
C25   C     C_3   0.521462 0.213749 0.546072 0.860340
C26   C     C_3   0.478076 0.209735 0.541951 0.878582
C27   C     C_3   0.478536 0.231948 0.444313 0.862124
C28   C     C_3   0.521921 0.226730 0.446784 0.879153
C29   C     C_3   0.021461 0.710072 0.042920 0.861259
C30   C     C_3   0.978076 0.706409 0.038468 0.878409
C31   C     C_3   0.978537 0.736705 0.943030 0.862281
C32   C     C_3   0.021921 0.731289 0.945061 0.879415
C33   C     C_1   0.389355 0.249718 0.499923 -0.145057
C34   C     C_1   0.610644 0.249667 0.500037 -0.143697
C35   C     C_1   0.889355 0.749748 0.999918 -0.145528
C36   C     C_1   0.110645 0.749682 0.000030 -0.145480
C37   C     C_3   0.536461 0.248198 0.500147 -0.159292
C38   C     C_3   0.463537 0.248363 0.499338 -0.158481
C39   C     C_3   0.036462 0.748229 0.000031 -0.157173
C40   C     C_3   0.963538 0.748464 0.999235 -0.157266
C41   C     C_3   0.478693 0.303573 0.512006 -0.558484
C42   C     C_3   0.521307 0.304384 0.507403 -0.556283
C43   C     C_3   0.978694 0.802422 0.016479 -0.559220
C44   C     C_3   0.021309 0.803615 0.011953 -0.560003
C45   C     C_1   0.422678 0.249253 0.499612 0.163105
C46   C     C_1   0.577321 0.249112 0.500193 0.164172
C47   C     C_1   0.922678 0.749324 0.999579 0.162529
C48   C     C_1   0.077322 0.749129 0.000150 0.162799
H1    H     H_    0.533312 0.322798 0.542767 0.251878
H2    H     H_    0.470494 0.315210 0.552103 0.257021
H3    H     H_    0.466689 0.333101 0.485216 0.248431
H4    H     H_    0.529506 0.329182 0.473822 0.254979
H5    H     H_    0.033317 0.819017 0.048729 0.249556
H6    H     H_    0.970498 0.810664 0.057410 0.256230
H7    H     H_    0.966688 0.834087 0.992256 0.247722
H8    H     H_    0.029505 0.831127 0.980557 0.254285
H9    H     H_    0.702366 0.068743 0.248791 0.161428
H10   H     H_    0.298558 0.067422 0.250067 0.162402
H11   H     H_    0.295489 0.071455 0.753954 0.159999
H12   H     H_    0.701240 0.067124 0.749600 0.157996
H13   H     H_    0.200849 0.566573 0.750963 0.162361
H14   H     H_    0.789144 0.577991 0.739490 0.162138
H15   H     H_    0.793297 0.573954 0.256456 0.160183
H16   H     H_    0.202557 0.568976 0.251458 0.159307
C49   C     C_R   0.222706 0.499106 0.712321 -0.254957
C50   C     C_R   0.771900 0.505261 0.706136 -0.254724
C51   C     C_R   0.774019 0.503203 0.291798 -0.258189
C52   C     C_R   0.223671 0.500446 0.289029 -0.258037
C53   C     C_R   0.723551 0.000311 0.211115 -0.255600
C54   C     C_R   0.276959 0.999574 0.211827 -0.254598
C55   C     C_R   0.275239 0.001817 0.790410 -0.258510
C56   C     C_R   0.722939 0.999424 0.788005 -0.259021
H17   H     H_    0.200872 0.498504 0.683508 0.175392
H18   H     H_    0.788827 0.510242 0.671715 0.174471
H19   H     H_    0.793318 0.505881 0.323908 0.173329
H20   H     H_    0.202566 0.500906 0.318911 0.173312
H21   H     H_    0.702375 0.000673 0.181336 0.174844
H22   H     H_    0.298535 0.999347 0.182620 0.175555
H23   H     H_    0.295493 0.003380 0.821404 0.173104
H24   H     H_    0.701257 0.999054 0.817055 0.172646
C57   C     C_R   0.250686 0.461480 0.711327 0.033390
C58   C     C_R   0.749968 0.460747 0.712060 0.033753
C59   C     C_R   0.749324 0.461374 0.288568 0.034716
C60   C     C_R   0.250703 0.461455 0.288650 0.034399
C61   C     C_R   0.750678 0.961450 0.211357 0.033510
C62   C     C_R   0.249311 0.961465 0.211342 0.033216
C63   C     C_R   0.249308 0.961415 0.788609 0.034470
C64   C     C_R   0.750717 0.961495 0.788692 0.034552
C65   C     C_R   0.279128 0.462957 0.748596 0.547484
C66   C     C_R   0.728393 0.454410 0.757178 0.548132
C67   C     C_R   0.724107 0.458572 0.246999 0.549123
C68   C     C_R   0.278220 0.461544 0.249988 0.550590
C69   C     C_R   0.778285 0.961670 0.249886 0.548118
C70   C     C_R   0.221196 0.962454 0.249126 0.548490
C71   C     C_R   0.222875 0.960068 0.748498 0.550031
C72   C     C_R   0.778965 0.962669 0.751111 0.551427
C73   C     C_R   0.777663 0.000061 0.288864 -0.274902
C74   C     C_R   0.221814 0.000832 0.288117 -0.275096
C75   C     C_R   0.223518 0.998499 0.709555 -0.278583
C76   C     C_R   0.778360 0.001045 0.712120 -0.278448
C77   C     C_R   0.278519 0.501320 0.787605 -0.274959
C78   C     C_R   0.728160 0.493743 0.795214 -0.274947
C79   C     C_R   0.724763 0.497039 0.208093 -0.279743
C80   C     C_R   0.277596 0.499941 0.211011 -0.278343
H25   H     H_    0.798320 0.999503 0.319369 0.164018
H26   H     H_    0.200746 0.000849 0.318067 0.163804
H27   H     H_    0.203818 0.996768 0.677856 0.161220
H28   H     H_    0.799545 0.001204 0.682335 0.161062
H29   H     H_    0.299852 0.501702 0.817171 0.163857
H30   H     H_    0.710820 0.489583 0.829343 0.163095
H31   H     H_    0.706038 0.494226 0.175315 0.160573
H32   H     H_    0.298173 0.499284 0.180397 0.160992
C81   C     C_R   0.750496 0.038825 0.288437 0.086507
C82   C     C_R   0.249503 0.038843 0.288419 0.086058
C83   C     C_R   0.249488 0.038805 0.711544 0.088109
C84   C     C_R   0.750535 0.038869 0.711611 0.088641
C85   C     C_R   0.250497 0.538846 0.788416 0.086225
C86   C     C_R   0.750141 0.538149 0.789114 0.086619
C87   C     C_R   0.749494 0.538774 0.211512 0.088332
C88   C     C_R   0.250521 0.538833 0.211573 0.088402
C89   C     C_R   0.723515 0.038941 0.249435 -0.163687
C90   C     C_R   0.277003 0.038207 0.250144 -0.162528
C91   C     C_R   0.275270 0.040452 0.752094 -0.165970
C92   C     C_R   0.722899 0.038053 0.749685 -0.168827
C93   C     C_R   0.222662 0.537734 0.750643 -0.162454
C94   C     C_R   0.772063 0.543762 0.744585 -0.162181
C95   C     C_R   0.774041 0.541839 0.253482 -0.166343
C96   C     C_R   0.223635 0.539076 0.250709 -0.166378
C97   C     C_1   0.250276 0.421796 0.671680 0.010296
C98   C     C_1   0.750006 0.421478 0.671998 0.009777
C99   C     C_1   0.749727 0.421753 0.328279 0.008698
C100  C     C_1   0.250290 0.421788 0.328313 0.008370
C101  C     C_1   0.750270 0.921784 0.171692 0.010024
C102  C     C_1   0.249717 0.921784 0.171691 0.010371
C103  C     C_1   0.249717 0.921770 0.828295 0.008735
C104  C     C_1   0.750297 0.921804 0.828331 0.007661
C105  C     C_1   0.750251 0.078366 0.328139 -0.027251
C106  C     C_1   0.249752 0.078380 0.328126 -0.026688
C107  C     C_1   0.249744 0.078361 0.671856 -0.031609
C108  C     C_1   0.750281 0.078394 0.671891 -0.033879
C109  C     C_1   0.250253 0.578376 0.828129 -0.026670
C110  C     C_1   0.750092 0.578019 0.828486 -0.026571
C111  C     C_1   0.749750 0.578346 0.171841 -0.032614
C112  C     C_1   0.250267 0.578372 0.171869 -0.031858
C113  C     C_1   0.750110 0.111489 0.361391 -0.132296
C114  C     C_1   0.249894 0.111498 0.361382 -0.132239
C115  C     C_1   0.249891 0.111492 0.638611 -0.136832
C116  C     C_1   0.750126 0.111504 0.638627 -0.140414
C117  C     C_1   0.250112 0.611492 0.861388 -0.131689
C118  C     C_1   0.750043 0.611345 0.861535 -0.132072
C119  C     C_1   0.749895 0.611486 0.138605 -0.137889
C120  C     C_1   0.250116 0.611494 0.138615 -0.138303
C121  C     C_1   0.250092 0.388586 0.638523 -0.121258
C122  C     C_1   0.750009 0.388466 0.638641 -0.122793
C123  C     C_1   0.749907 0.388570 0.361464 -0.122472
C124  C     C_1   0.250100 0.388584 0.361476 -0.124257
C125  C     C_1   0.750089 0.888582 0.138526 -0.121563
C126  C     C_1   0.249901 0.888577 0.138530 -0.122283
C127  C     C_1   0.249902 0.888576 0.861469 -0.122671
C128  C     C_1   0.750104 0.888589 0.861482 -0.124654
C129  C     C_R   0.019136 0.292974 0.518063 0.514996
C130  C     C_R   0.980696 0.292747 0.518321 0.517056
C131  C     C_R   0.519137 0.791434 0.021502 0.515329
C132  C     C_R   0.480697 0.791190 0.021734 0.517891
C133  C     C_R   0.038550 0.247683 0.505209 -0.315121
C134  C     C_R   0.961422 0.247161 0.505976 -0.313397
C135  C     C_R   0.538550 0.747405 0.004825 -0.315099
C136  C     C_R   0.461423 0.746826 0.005533 -0.313233
C137  C     C_R   0.019514 0.201157 0.494302 0.384250
C138  C     C_R   0.980728 0.200719 0.494954 0.386813
C139  C     C_R   0.519513 0.701987 0.989963 0.384748
C140  C     C_R   0.480728 0.701499 0.990569 0.387016
C141  C     C_1   0.078060 0.249180 0.502766 0.180727
C142  C     C_1   0.921929 0.248820 0.503259 0.173374
C143  C     C_1   0.578060 0.749077 0.002571 0.181516
C144  C     C_1   0.421929 0.748689 0.003016 0.174161
C145  C     C_1   0.888841 0.249750 0.501405 -0.131461
C146  C     C_1   0.111153 0.249851 0.501176 -0.122784
C147  C     C_1   0.388841 0.749723 0.001304 -0.130915
C148  C     C_1   0.611154 0.749831 0.001096 -0.122103
F1    F     F_    0.468136 0.159468 0.526745 -0.597661
F2    F     F_    0.536019 0.163541 0.541958 -0.617776
F3    F     F_    0.531856 0.174304 0.443623 -0.596935
F4    F     F_    0.463974 0.183435 0.430767 -0.616275
F5    F     F_    0.968143 0.657589 0.019104 -0.598471
F6    F     F_    0.036024 0.660384 0.034638 -0.618197
F7    F     F_    0.031850 0.679307 0.937537 -0.597243
F8    F     F_    0.963970 0.689499 0.925468 -0.616593
O53   O     O_3   0.538722 0.255931 0.405885 -0.638830
C149  C     C_3   0.541840 0.226769 0.359465 -0.110219
H33   H     H_    0.516025 0.205471 0.349869 0.180624
H34   H     H_    0.565335 0.199119 0.362294 0.193910
H35   H     H_    0.547690 0.253882 0.326888 0.151934
O54   O     O_3   0.469127 0.271446 0.407341 -0.644785
C150  C     C_3   0.440804 0.256351 0.372726 -0.189118
H36   H     H_    0.415579 0.243739 0.393764 0.185120
H37   H     H_    0.450497 0.225144 0.346087 0.189370
H38   H     H_    0.433231 0.290403 0.348429 0.162910
O55   O     O_3   0.461277 0.222971 0.590441 -0.636556
C151  C     C_3   0.458166 0.179543 0.623882 -0.106985
H39   H     H_    0.483982 0.156230 0.625491 0.179439
H40   H     H_    0.434669 0.154595 0.611659 0.191198
H41   H     H_    0.452326 0.193701 0.663841 0.155602
O56   O     O_3   0.530874 0.237987 0.594445 -0.641855
C152  C     C_3   0.559196 0.211821 0.621675 -0.180419
H42   H     H_    0.584421 0.207270 0.597564 0.180913
H43   H     H_    0.549504 0.173323 0.635842 0.185986
H44   H     H_    0.566769 0.235339 0.656273 0.169200
O57   O     O_3   0.038726 0.763795 0.906743 -0.639299
C153  C     C_3   0.041844 0.738605 0.858051 -0.111021
H45   H     H_    0.016026 0.718190 0.846708 0.180648
H46   H     H_    0.065335 0.710808 0.858566 0.194494
H47   H     H_    0.047701 0.768338 0.827852 0.151542
O58   O     O_3   0.969134 0.779160 0.909494 -0.645050
C154  C     C_3   0.940812 0.767021 0.873733 -0.190552
H48   H     H_    0.915585 0.752696 0.893638 0.185526
H49   H     H_    0.950503 0.738151 0.844575 0.189843
H50   H     H_    0.933242 0.802988 0.852374 0.161910
O59   O     O_3   0.961272 0.715540 0.087892 -0.636670
C155  C     C_3   0.958171 0.669467 0.117583 -0.108829
H51   H     H_    0.983992 0.646115 0.117241 0.179768
H52   H     H_    0.934681 0.645616 0.103311 0.190618
H53   H     H_    0.952323 0.680233 0.158585 0.155545
O60   O     O_3   0.030864 0.730199 0.093148 -0.642697
C156  C     C_3   0.059194 0.701870 0.118103 -0.184315
H54   H     H_    0.084419 0.699356 0.093699 0.180620
H55   H     H_    0.049511 0.662322 0.129011 0.187139
H56   H     H_    0.066761 0.722430 0.154541 0.167634
O61   O     O_3   0.306083 0.424882 0.748881 -0.596839
C157  C     C_3   0.338772 0.446117 0.728060 -0.296559
H57   H     H_    0.349956 0.477472 0.753433 0.161349
H58   H     H_    0.334373 0.460938 0.687770 0.155294
H59   H     H_    0.359867 0.414902 0.725954 0.206540
O62   O     O_3   0.705742 0.411438 0.762395 -0.597815
C158  C     C_3   0.722299 0.376516 0.797702 -0.301729
H60   H     H_    0.723827 0.393406 0.837539 0.160247
H61   H     H_    0.750240 0.364452 0.784236 0.158344
H62   H     H_    0.705021 0.340955 0.799981 0.203141
O63   O     O_3   0.700565 0.416462 0.242663 -0.597577
C159  C     C_3   0.664925 0.432245 0.257971 -0.304924
H63   H     H_    0.653412 0.461761 0.230745 0.156617
H64   H     H_    0.664842 0.447445 0.298596 0.158304
H65   H     H_    0.646432 0.397861 0.256920 0.204623
O64   O     O_3   0.304177 0.422143 0.248378 -0.596284
C160  C     C_3   0.337892 0.441723 0.267487 -0.312191
H66   H     H_    0.334897 0.456809 0.307936 0.156892
H67   H     H_    0.349222 0.472455 0.241485 0.158379
H68   H     H_    0.358215 0.409455 0.268611 0.201827
O65   O     O_3   0.804350 0.922409 0.251365 -0.595829
C161  C     C_3   0.837934 0.942137 0.231944 -0.299611
H69   H     H_    0.849249 0.973054 0.257737 0.160698
H70   H     H_    0.834748 0.957035 0.191456 0.154561
H71   H     H_    0.858362 0.910002 0.230813 0.206258
O66   O     O_3   0.194588 0.923914 0.249904 -0.596572
C162  C     C_3   0.161537 0.944562 0.229631 -0.303196
H72   H     H_    0.165457 0.959411 0.189252 0.155363
H73   H     H_    0.150297 0.975753 0.255164 0.161626
H74   H     H_    0.140703 0.912985 0.227922 0.204434
O67   O     O_3   0.198059 0.919315 0.745530 -0.595849
C163  C     C_3   0.163333 0.937099 0.762711 -0.306277
H75   H     H_    0.151917 0.967181 0.736030 0.156468
H76   H     H_    0.164786 0.952367 0.803258 0.156761
H77   H     H_    0.143879 0.903771 0.762783 0.204714
O68   O     O_3   0.805711 0.924307 0.750506 -0.595119
C164  C     C_3   0.838529 0.945061 0.771396 -0.315808
H78   H     H_    0.834269 0.959524 0.811845 0.155983
H79   H     H_    0.849796 0.976572 0.746284 0.157771
H80   H     H_    0.859496 0.913649 0.773114 0.201665
F9    F     F_    0.962199 0.337344 0.529546 -0.592446
F10   F     F_    0.037470 0.337712 0.529206 -0.592704
F11   F     F_    0.462200 0.834660 0.036745 -0.592158
F12   F     F_    0.537473 0.835049 0.036447 -0.592737
O69   O     O_3   0.038491 0.157276 0.478200 -0.541369
C165  C     C_3   0.049582 0.128850 0.522494 -0.241387
H81   H     H_    0.025389 0.113478 0.544114 0.152480
H82   H     H_    0.067290 0.152401 0.548902 0.138780
H83   H     H_    0.066150 0.094973 0.509444 0.192803
O70   O     O_3   0.962399 0.155699 0.480434 -0.541796
C166  C     C_3   0.946393 0.132224 0.524788 -0.256108
H84   H     H_    0.918231 0.147743 0.531504 0.169052
H85   H     H_    0.963210 0.136782 0.560856 0.116803
H86   H     H_    0.943656 0.089882 0.517300 0.192209
O71   O     O_3   0.538491 0.659642 0.970170 -0.539982
C167  C     C_3   0.549556 0.627515 0.011869 -0.238811
H87   H     H_    0.525350 0.610341 0.032054 0.152204
H88   H     H_    0.567245 0.648709 0.040230 0.138703
H89   H     H_    0.566136 0.594886 0.995975 0.193362
O72   O     O_3   0.462398 0.657887 0.972247 -0.541414
C168  C     C_3   0.446397 0.630696 0.014427 -0.254802
H90   H     H_    0.418213 0.645529 0.022398 0.169813
H91   H     H_    0.463186 0.632211 0.050778 0.117090
H92   H     H_    0.443712 0.589137 0.003365 0.192498

loop_
_geom_bond_atom_site_label_1
_geom_bond_atom_site_label_2
_geom_bond_distance
_ccdc_geom_bond_type
C37   C42   1.555638 S    
C168  H90   1.109199 S    
C140  O72   1.385117 S    
C33   C45   1.207779 T    
C39   C44   1.555649 S    
C10   C114  1.434550 S    
C103  C127  1.205466 T    
C158  H61   1.114004 S    
C164  H78   1.113964 S    
C101  C125  1.205475 T    
O26   C7    1.271372 A    
C78   H30   1.083736 S    
C44   H8    1.112627 S    
C6    C125  1.434364 S    
C137  O69   1.383782 S    
O30   C11   1.272013 A    
C152  H44   1.109044 S    
C30   C40   1.568477 S    
C60   C100  1.440959 S    
C133  C137  1.408440 A    
Zn12  O26   1.910289 S    
C65   C77   1.405537 A    
C36   C48   1.207789 T    
C28   O53   1.427167 S    
C130  F9    1.358371 S    
C159  H65   1.109285 S    
C106  C114  1.205608 T    
O11   C7    1.271323 A    
C52   C60   1.401146 A    
C41   H2    1.112623 S    
C61   C101  1.440997 S    
C74   H26   1.083733 S    
C142  C145  1.200354 T    
C162  H72   1.113984 S    
C155  H53   1.109103 S    
C72   C76   1.405440 A    
C102  C126  1.205477 T    
Zn1   O44   1.916688 S    
Zn2   O43   1.916755 S    
C112  C120  1.205594 T    
Zn5   O48   1.916688 S    
C61   C69   1.407211 A    
Zn6   O47   1.916755 S    
Zn7   O46   1.916688 S    
C129  C130  1.393173 A    
C34   C46   1.207795 T    
O16   C12   1.272014 A    
C158  H60   1.112660 S    
Zn16  O4    1.923023 S    
C167  H87   1.110418 S    
Zn12  O4    1.922762 S    
Zn1   O13   1.910147 S    
C68   C80   1.405561 A    
C53   C61   1.401158 A    
Zn3   O15   1.910195 S    
C135  C143  1.433754 S    
Zn4   O16   1.910146 S    
C67   C79   1.405543 A    
C56   C64   1.401143 A    
C162  H73   1.112667 S    
C87   C111  1.439348 S    
C168  H92   1.109224 S    
C85   C109  1.439355 S    
C157  H57   1.112663 S    
C164  H80   1.109302 S    
C150  H37   1.110936 S    
C161  H71   1.109277 S    
H15   C95   1.083479 S    
C165  H83   1.109206 S    
C27   F4    1.397642 S    
C40   C43   1.555636 S    
C19   C147  1.425105 S    
C129  F10   1.358273 S    
C144  C147  1.200318 T    
Zn10  O22   1.910289 S    
C109  C117  1.205605 T    
O25   C8    1.271493 A    
Zn13  O29   1.909266 S    
C88   C112  1.439343 S    
Zn10  O2    1.922762 S    
C130  C134  1.400204 A    
O29   C12   1.271904 A    
Zn15  O33   1.909266 S    
C138  O70   1.385113 S    
C29   C39   1.571570 S    
C50   C94   1.397698 A    
C143  C148  1.200161 T    
O37   C17   1.268516 A    
C82   C90   1.399834 A    
O48   C23   1.271257 A    
H12   C92   1.083479 S    
C66   O62   1.382432 S    
C69   C73   1.405509 A    
C155  H52   1.111235 S    
C32   O57   1.427166 S    
C83   C107  1.439349 S    
C71   C75   1.405577 A    
O71   C167  1.410255 S    
C74   C82   1.400419 A    
Zn16  O35   1.909244 S    
C29   C30   1.579353 S    
C139  O71   1.383788 S    
C31   C40   1.571600 S    
C31   F8    1.397641 S    
Zn7   O10   1.910210 S    
C40   C47   1.481039 S    
C97   C121  1.205475 T    
C134  C138  1.411804 A    
C160  H67   1.112647 S    
C167  H89   1.109207 S    
C132  C136  1.400195 A    
C2    C121  1.434366 S    
O64   C160  1.409686 S    
C69   O65   1.382436 S    
O53   C149  1.412528 S    
H10   C90   1.083475 S    
C161  H70   1.113978 S    
C16   C120  1.434524 S    
Zn6   O11   1.910209 S    
Zn5   O17   1.910147 S    
C70   O66   1.382444 S    
C51   H19   1.083526 S    
Zn15  O51   1.917195 S    
O57   C153  1.412525 S    
C43   H6    1.112620 S    
C17   C145  1.425158 S    
C79   H31   1.083731 S    
C63   C103  1.440982 S    
C77   H29   1.083731 S    
C159  H64   1.113986 S    
Zn8   O3    1.922425 S    
C38   C45   1.481034 S    
O68   C164  1.409659 S    
O38   C18   1.268368 A    
C66   C78   1.405514 A    
C63   C71   1.407200 A    
H11   C91   1.083479 S    
O5    C1    1.271417 A    
C82   C106  1.439366 S    
C59   C67   1.407203 A    
O32   C9    1.271954 A    
C31   O58   1.430930 S    
C156  H54   1.110264 S    
C27   C38   1.571608 S    
C20   C148  1.425159 S    
C15   C119  1.434529 S    
C55   C63   1.401153 A    
C13   C117  1.434538 S    
Zn11  O28   1.910262 S    
C134  C142  1.433669 S    
C25   F2    1.397638 S    
O8    C4    1.271449 A    
C75   H27   1.083728 S    
Zn9   O1    1.923020 S    
C76   H28   1.083742 S    
C3    C124  1.434322 S    
C62   C70   1.407208 A    
C163  H75   1.112636 S    
O50   C18   1.267977 A    
O55   C151  1.412530 S    
O54   C150  1.412291 S    
C111  C119  1.205598 T    
Zn1   O1    1.922560 S    
C28   F3    1.396570 S    
Zn13  O1    1.922764 S    
Zn2   O14   1.910252 S    
C65   O61   1.382452 S    
C149  H33   1.111625 S    
C44   H5    1.112692 S    
C166  H86   1.109226 S    
C54   C62   1.401157 A    
C54   H22   1.083529 S    
C56   C92   1.397670 A    
C152  H43   1.110929 S    
O9    C5    1.271420 A    
O39   C19   1.268540 A    
O36   C13   1.271956 A    
C39   C48   1.481049 S    
O13   C9    1.272033 A    
Zn1   O8    1.910258 S    
C49   C93   1.397686 A    
Zn2   O7    1.910209 S    
C153  H45   1.111625 S    
Zn3   O6    1.910210 S    
C131  C135  1.399239 A    
O18   C14   1.272088 A    
O31   C10   1.271982 A    
O6    C2    1.271378 A    
C30   F5    1.396564 S    
O22   C3    1.271378 A    
C67   O63   1.382465 S    
C38   C41   1.555618 S    
C28   C37   1.568478 S    
C139  C140  1.405812 A    
C9    C113  1.434542 S    
C150  H36   1.110266 S    
Zn14  O30   1.909252 S    
C30   O59   1.427158 S    
Zn15  O3    1.922764 S    
Zn11  O3    1.923020 S    
O41   C21   1.271181 A    
C53   H21   1.083524 S    
Zn16  O34   1.909252 S    
C52   C96   1.397659 A    
C156  H56   1.109042 S    
C55   C91   1.397670 A    
C5    C126  1.434365 S    
C165  H82   1.112729 S    
Zn2   O2    1.922427 S    
Zn8   O20   1.910146 S    
C70   C74   1.405530 A    
C81   C89   1.399840 A    
C43   C44   1.549141 S    
C153  H47   1.109108 S    
C167  H88   1.112734 S    
C131  F12   1.358282 S    
O34   C15   1.272011 A    
C84   C92   1.399839 A    
C80   H32   1.083730 S    
O66   C162  1.409678 S    
C105  C113  1.205603 T    
C168  H91   1.115034 S    
C8    C127  1.434347 S    
Zn8   O9    1.910315 S    
C157  H58   1.113985 S    
C163  H77   1.109286 S    
C42   H1    1.112692 S    
C62   C102  1.441003 S    
C86   C94   1.399840 A    
C158  H62   1.109273 S    
C164  H79   1.112709 S    
C43   H7    1.112692 S    
C141  C146  1.200196 T    
O7    C3    1.271322 A    
C166  H84   1.109200 S    
O19   C15   1.272135 A    
C72   O68   1.382396 S    
O69   C165  1.410253 S    
C4    C123  1.434348 S    
Zn9   O24   1.910262 S    
O63   C159  1.409687 S    
Zn10  O23   1.910355 S    
C157  H59   1.109279 S    
C35   C47   1.207778 T    
C26   O55   1.427164 S    
C50   H18   1.083528 S    
O59   C155  1.412529 S    
C78   C86   1.400412 A    
C107  C115  1.205597 T    
Zn15  O36   1.909337 S    
O15   C11   1.272135 A    
O42   C22   1.271324 A    
Zn4   O1    1.922425 S    
C86   C110  1.439361 S    
C99   C123  1.205463 T    
O12   C8    1.271449 A    
Zn11  O39   1.917128 S    
C41   H3    1.112693 S    
C12   C116  1.434531 S    
C7    C128  1.434312 S    
C58   C66   1.407207 A    
C165  H81   1.110428 S    
C135  C139  1.408420 A    
H14   C94   1.083473 S    
Zn5   O3    1.922560 S    
Zn6   O4    1.922427 S    
C49   H17   1.083527 S    
C84   C108  1.439346 S    
C162  H74   1.109279 S    
O67   C163  1.409696 S    
C52   H20   1.083527 S    
C41   C42   1.549116 S    
C160  H66   1.113992 S    
C51   C59   1.401157 A    
O28   C5    1.271442 A    
O40   C20   1.268379 A    
C51   C95   1.397681 A    
Zn3   O42   1.916688 S    
Zn6   O18   1.910252 S    
C151  H39   1.111618 S    
Zn7   O4    1.922558 S    
O21   C4    1.271491 A    
C57   C65   1.407207 A    
C58   C98   1.441002 S    
C150  H38   1.109065 S    
C60   C68   1.407202 A    
C25   C26   1.579364 S    
C21   C34   1.437617 S    
C154  H49   1.110931 S    
O61   C157  1.409681 S    
Zn14  O2    1.923023 S    
C27   C28   1.579366 S    
C23   C36   1.437607 S    
C56   H24   1.083527 S    
Zn13  O49   1.917195 S    
O44   C21   1.271265 A    
C55   H23   1.083527 S    
O60   C156  1.412276 S    
C98   C122  1.205478 T    
C80   C88   1.400440 A    
Zn12  O27   1.910355 S    
C73   H25   1.083733 S    
C50   C58   1.401159 A    
Zn3   O2    1.922558 S    
C1    C122  1.434367 S    
C24   C35   1.437595 S    
C25   C37   1.571581 S    
C68   O64   1.382483 S    
C27   O54   1.430924 S    
C75   C83   1.400423 A    
C76   C84   1.400456 A    
O46   C24   1.271331 A    
O47   C24   1.271104 A    
Zn16  O52   1.917065 S    
C104  C128  1.205444 T    
C32   F7    1.396571 S    
Zn8   O45   1.916755 S    
O27   C6    1.271411 A    
C11   C115  1.434531 S    
C108  C116  1.205599 T    
C129  C133  1.399246 A    
C54   C90   1.397687 A    
O24   C1    1.271445 A    
C100  C124  1.205448 T    
C59   C99   1.440981 S    
C37   C46   1.481056 S    
C49   C57   1.401155 A    
C163  H76   1.113993 S    
C42   H4    1.112627 S    
O58   C154  1.412295 S    
C160  H68   1.109297 S    
C136  C140  1.411795 A    
O43   C22   1.271111 A    
Zn4   O41   1.916755 S    
C81   C105  1.439357 S    
C22   C33   1.437588 S    
C161  H69   1.112673 S    
C166  H85   1.115021 S    
Zn5   O12   1.910258 S    
C31   C32   1.579359 S    
C14   C118  1.434542 S    
C151  H41   1.109105 S    
Zn9   O21   1.910275 S    
C152  H42   1.110270 S    
Zn14  O50   1.917065 S    
C71   O67   1.382488 S    
O35   C14   1.271975 A    
C88   C96   1.399823 A    
Zn12  O40   1.917255 S    
C53   C89   1.397691 A    
C133  C141  1.433803 S    
O52   C20   1.267934 A    
C153  H46   1.111241 S    
C149  H35   1.109108 S    
O56   C152  1.412277 S    
C64   C104  1.440951 S    
C26   F1    1.396566 S    
C149  H34   1.111242 S    
C154  H48   1.110266 S    
C159  H63   1.112653 S    
O33   C16   1.271899 A    
O62   C158  1.409673 S    
C26   C38   1.568473 S    
C32   C39   1.568481 S    
C87   C95   1.399828 A    
C151  H40   1.111236 S    
Zn7   O19   1.910195 S    
C85   C93   1.399833 A    
C83   C91   1.399822 A    
Zn13  O32   1.909337 S    
H13   C93   1.083475 S    
O49   C17   1.267817 A    
Zn14  O31   1.909244 S    
O51   C19   1.267756 A    
C110  C118  1.205607 T    
C79   C87   1.400418 A    
C29   O60   1.430911 S    
C73   C81   1.400411 A    
C155  H51   1.111617 S    
C136  C144  1.433618 S    
C77   C85   1.400412 A    
C156  H55   1.110931 S    
Zn4   O5    1.910315 S    
O70   C166  1.413396 S    
C25   O56   1.430909 S    
O20   C16   1.272016 A    
O72   C168  1.413411 S    
O10   C6    1.271378 A    
O23   C2    1.271413 A    
Zn11  O25   1.910275 S    
O65   C161  1.409675 S    
Zn10  O38   1.917255 S    
O14   C10   1.272083 A    
Zn9   O37   1.917128 S    
C64   C72   1.407236 A    
C18   C146  1.425212 S    
C131  C132  1.393168 A    
H16   C96   1.083476 S    
H9    C89   1.083475 S    
C132  F11   1.358386 S    
C137  C138  1.405851 A    
O17   C13   1.272033 A    
O45   C23   1.271185 A    
C57   C97   1.440999 S    
C29   F6    1.397639 S    
C154  H50   1.109067 S    
