data_mof_unit_65092.cif
_audit_creation_date              2012-12-10T17:01:01-0500
_audit_creation_method            fapswitch 2.2
_symmetry_space_group_name_H-M    P1
_symmetry_Int_Tables_number       1
_space_group_crystal_system       triclinic
_cell_length_a                    21.729644
_cell_length_b                    21.731154
_cell_length_c                    55.692752
_cell_angle_alpha                 90.927402
_cell_angle_beta                  89.638376
_cell_angle_gamma                 90.087887
_cell_volume                      26294.6921272

loop_
_atom_site_label
_atom_site_type_symbol
_atom_type_description
_atom_site_fract_x
_atom_site_fract_y
_atom_site_fract_z
_atom_type_partial_charge
C1    C     C_R   0.502299 0.619003 0.000293 0.929016
C2    C     C_R   0.460135 0.962974 0.762454 -0.030393
C3    C     C_R   0.499993 0.004073 0.699403 -0.057756
C4    C     C_R   0.528462 0.044875 0.161892 0.507359
C5    C     C_R   0.970268 0.548626 0.161878 0.507154
C6    C     C_R   0.469196 0.952273 0.161207 0.508111
C7    C     C_R   0.034732 0.459754 0.161141 0.506695
C8    C     C_R   0.018890 0.549837 0.661849 0.504508
C9    C     C_R   0.450992 0.978649 0.661556 0.507266
C10   C     C_R   0.977694 0.447917 0.661101 0.505271
C11   C     C_R   0.548218 0.029988 0.661537 0.507315
C12   C     C_R   0.982973 0.550279 0.889038 -0.099904
C13   C     C_R   0.965707 0.451428 0.762375 -0.057021
C14   C     C_R   0.555962 0.989986 0.888769 -0.100118
C15   C     C_R   0.017431 0.444170 0.888845 -0.097808
C16   C     C_R   0.446471 0.011395 0.888959 -0.100489
C17   C     C_R   0.493695 0.052265 0.388851 -0.102488
C18   C     C_R   0.950117 0.479391 0.388782 -0.098506
C19   C     C_R   0.507748 0.941589 0.388807 -0.100669
C20   C     C_R   0.052637 0.523690 0.389280 -0.098597
C21   C     C_R   0.983211 0.551293 0.914030 -0.216474
C22   C     C_R   0.555669 0.989921 0.913773 -0.216772
C23   C     C_R   0.016819 0.444821 0.913852 -0.214407
C24   C     C_R   0.542043 0.042419 0.762845 -0.030916
C25   C     C_R   0.445967 0.010818 0.913953 -0.212262
C26   C     C_R   0.493529 0.053345 0.413852 -0.216432
C27   C     C_R   0.949391 0.479236 0.413781 -0.216088
C28   C     C_R   0.507238 0.942505 0.413814 -0.213021
C29   C     C_R   0.052449 0.522434 0.414261 -0.218178
C30   C     C_R   0.999982 0.498507 0.926605 -0.041945
C31   C     C_R   0.500611 0.000205 0.926552 -0.043486
C32   C     C_R   0.500234 0.998438 0.426532 -0.044322
C33   C     C_R   0.000686 0.500495 0.426659 -0.039599
C34   C     C_R   0.000371 0.496842 0.876333 0.296860
C35   C     C_R   0.544417 0.032529 0.262796 -0.030743
C36   C     C_R   0.501409 0.000841 0.876274 0.301958
C37   C     C_R   0.500923 0.996436 0.376251 0.304706
C38   C     C_R   0.001607 0.501911 0.376410 0.296066
C39   C     C_R   0.554371 0.992309 0.111133 -0.100035
C40   C     C_R   0.023177 0.554079 0.110996 -0.096388
C41   C     C_R   0.443702 0.006474 0.111342 -0.099225
C42   C     C_R   0.978610 0.451679 0.111133 -0.096291
C43   C     C_R   0.054600 0.499185 0.611233 -0.102421
C44   C     C_R   0.496076 0.058584 0.611309 -0.099672
C45   C     C_R   0.943007 0.499702 0.611260 -0.101960
C46   C     C_R   0.960186 0.541809 0.263053 -0.030269
C47   C     C_R   0.503617 0.947264 0.611208 -0.101859
C48   C     C_R   0.554733 0.992788 0.086142 -0.211914
C49   C     C_R   0.022089 0.553487 0.086001 -0.215061
C50   C     C_R   0.443900 0.006623 0.086336 -0.216656
C51   C     C_R   0.978611 0.450549 0.086136 -0.217757
C52   C     C_R   0.055053 0.499475 0.586239 -0.211458
C53   C     C_R   0.496257 0.057725 0.586300 -0.212705
C54   C     C_R   0.943324 0.499987 0.586260 -0.215821
C55   C     C_R   0.503609 0.946264 0.586211 -0.216002
C56   C     C_2   0.783050 0.457735 0.013989 -0.151209
C57   C     C_R   0.457448 0.958585 0.262527 -0.031812
C58   C     C_2   0.542845 0.782794 0.986208 -0.152366
C59   C     C_2   0.216952 0.542292 0.986108 -0.150821
C60   C     C_2   0.457162 0.217207 0.013876 -0.151930
C61   C     C_2   0.283048 0.957720 0.513980 -0.149095
C62   C     C_2   0.042847 0.282793 0.486210 -0.151434
C63   C     C_2   0.716952 0.042290 0.486106 -0.149507
C64   C     C_2   0.957168 0.717206 0.513876 -0.149200
C65   C     C_R   0.499463 0.999848 0.073542 -0.044883
C66   C     C_R   0.000158 0.501545 0.073428 -0.039774
C67   C     C_R   0.999387 0.499863 0.573548 -0.044852
C68   C     C_R   0.046587 0.467477 0.262342 -0.029801
C69   C     C_R   0.499959 0.001514 0.573553 -0.044928
C70   C     C_2   0.815029 0.502564 0.003479 -0.332336
C71   C     C_2   0.497452 0.814925 0.996725 -0.331342
C72   C     C_2   0.184971 0.497437 0.996599 -0.336097
C73   C     C_2   0.502549 0.185075 0.003355 -0.332440
C74   C     C_2   0.315029 0.002565 0.503481 -0.334928
C75   C     C_2   0.997450 0.314925 0.496723 -0.334844
C76   C     C_2   0.684971 0.997436 0.496598 -0.334307
C77   C     C_2   0.002550 0.685075 0.503352 -0.333360
C78   C     C_2   0.716169 0.463167 0.016128 -0.147124
C79   C     C_R   0.000173 0.496715 0.775208 -0.039488
C80   C     C_2   0.537538 0.715880 0.984099 -0.151192
C81   C     C_2   0.283832 0.536863 0.983966 -0.148429
C82   C     C_2   0.462473 0.284120 0.015985 -0.150354
C83   C     C_2   0.216168 0.963152 0.516121 -0.147299
C84   C     C_2   0.037539 0.215879 0.484100 -0.152914
C85   C     C_2   0.783832 0.036861 0.483964 -0.148669
C86   C     C_2   0.962479 0.784120 0.515985 -0.150152
C87   C     C_2   0.684724 0.490864 0.998820 -0.331104
C88   C     C_2   0.509167 0.684750 0.001474 -0.328787
C89   C     C_2   0.315276 0.509124 0.001263 -0.332418
C90   C     C_R   0.501250 0.002418 0.775255 -0.050932
C91   C     C_2   0.490833 0.315250 0.998608 -0.330321
C92   C     C_2   0.184724 0.990874 0.498819 -0.332924
C93   C     C_2   0.009161 0.184750 0.501474 -0.329277
C94   C     C_2   0.815276 0.009125 0.501262 -0.331244
C95   C     C_2   0.990836 0.815251 0.498607 -0.330275
C96   C     C_R   0.999995 0.499538 0.952913 0.877081
C97   C     C_R   0.500184 0.999988 0.952894 0.878310
C98   C     C_R   0.500038 0.999532 0.452888 0.878609
C99   C     C_R   0.000190 0.500011 0.452930 0.876284
C100  C     C_R   0.880822 0.500295 0.000933 0.940355
C101  C     C_R   0.501108 0.995357 0.275264 -0.057015
C102  C     C_R   0.499678 0.880796 0.999180 0.942319
C103  C     C_R   0.119178 0.499705 0.999148 0.940859
C104  C     C_R   0.500322 0.119203 0.000900 0.942283
C105  C     C_R   0.380822 0.000295 0.500933 0.942997
C106  C     C_R   0.999677 0.380796 0.499179 0.942213
C107  C     C_R   0.619178 0.999705 0.499147 0.943060
C108  C     C_R   0.000323 0.619203 0.500899 0.941493
C109  C     C_R   0.999971 0.500466 0.047150 0.876881
C110  C     C_R   0.499823 0.000026 0.047191 0.879527
C111  C     C_R   0.499987 0.000463 0.547194 0.879743
C112  C     C_R   0.381004 0.502312 0.000211 0.929531
C113  C     C_R   0.003267 0.504461 0.275306 -0.051859
C114  C     C_R   0.999815 0.500023 0.547193 0.880021
C115  C     C_3   0.171685 0.583053 0.759825 0.071782
C116  C     C_3   0.217081 0.623256 0.746065 -0.318349
C117  C     C_3   0.276420 0.588597 0.740165 -0.948165
C118  C     C_3   0.340990 0.853028 0.770952 0.043067
C119  C     C_3   0.339592 0.787176 0.780296 -0.316707
C120  C     C_3   0.275744 0.770144 0.789649 -0.939866
C121  C     C_3   0.827916 0.410414 0.760398 0.071333
C122  C     C_3   0.782201 0.370806 0.746256 -0.318688
C123  C     C_3   0.722241 0.405243 0.741962 -0.948620
C124  C     C_R   0.075736 0.580307 0.776153 0.437551
C125  C     C_3   0.662548 0.150487 0.772493 0.042761
C126  C     C_3   0.665384 0.215997 0.782951 -0.318844
C127  C     C_3   0.729578 0.231323 0.792286 -0.937521
C128  C     C_3   0.676849 0.132067 0.273822 0.076438
C129  C     C_3   0.636329 0.189234 0.278392 -0.414742
C130  C     C_3   0.673903 0.242162 0.289125 -0.902819
C131  C     C_3   0.840317 0.650753 0.273096 0.042494
C132  C     C_3   0.775370 0.646090 0.283722 -0.313399
C133  C     C_3   0.752438 0.708603 0.292844 -0.937398
C134  C     C_3   0.327590 0.856248 0.273035 0.074849
C135  C     C_R   0.427360 0.916651 0.775129 0.456943
C136  C     C_3   0.370093 0.800247 0.276076 -0.415490
C137  C     C_3   0.334501 0.745483 0.285920 -0.901346
C138  C     C_3   0.167244 0.359182 0.270247 0.042749
C139  C     C_3   0.231845 0.364319 0.280905 -0.313182
C140  C     C_3   0.255261 0.301851 0.288973 -0.939403
C141  C     C_R   0.924732 0.413017 0.775480 0.438046
C142  C     C_R   0.575428 0.087925 0.776157 0.457152
C143  C     C_R   0.594128 0.060236 0.275684 0.479767
C144  C     C_R   0.911823 0.570938 0.276402 0.457017
C145  C     C_R   0.408378 0.930068 0.275428 0.480376
C146  C     C_R   0.094854 0.438193 0.275073 0.456901
C147  C     C_R   0.076132 0.578525 0.801147 -0.223746
C148  C     C_R   0.497701 0.380997 0.999788 0.929314
C149  C     C_R   0.432232 0.914465 0.800234 -0.254945
C150  C     C_R   0.925186 0.414081 0.800509 -0.224844
C151  C     C_R   0.571021 0.089085 0.801336 -0.254331
C152  C     C_R   0.595251 0.055438 0.300884 -0.274315
C153  C     C_R   0.911258 0.567117 0.301547 -0.255552
C154  C     C_R   0.407673 0.934568 0.300700 -0.272218
C155  C     C_R   0.094793 0.441030 0.300279 -0.256424
C156  C     C_R   0.038290 0.537698 0.813525 -0.077412
C157  C     C_R   0.466595 0.958071 0.813048 -0.064817
C158  C     C_R   0.963255 0.454725 0.813205 -0.076863
C159  C     C_R   0.618996 0.497684 0.999870 0.929276
C160  C     C_R   0.536719 0.045109 0.813599 -0.065204
C161  C     C_R   0.548167 0.025743 0.313348 -0.063397
C162  C     C_R   0.957417 0.536140 0.313734 -0.063794
C163  C     C_R   0.454751 0.964414 0.313251 -0.064237
C164  C     C_R   0.048146 0.471274 0.313081 -0.063210
C165  C     C_R   0.000596 0.496352 0.800623 -0.058685
C166  C     C_R   0.501539 0.001858 0.800608 -0.056979
C167  C     C_R   0.501377 0.995112 0.300590 -0.055844
C168  C     C_R   0.002960 0.503987 0.300676 -0.057292
C169  C     C_R   0.038347 0.536323 0.838678 0.529710
C170  C     C_R   0.002297 0.119003 0.500293 0.928954
C171  C     C_R   0.468062 0.957826 0.838221 0.528547
C172  C     C_R   0.963498 0.455921 0.838386 0.529872
C173  C     C_R   0.535454 0.044508 0.838785 0.529239
C174  C     C_R   0.547725 0.024748 0.338541 0.529156
C175  C     C_R   0.958042 0.535306 0.338913 0.527957
C176  C     C_R   0.455168 0.965790 0.338460 0.529411
C177  C     C_R   0.046635 0.470755 0.338261 0.527477
C178  C     C_R   0.536901 0.039486 0.237666 0.069576
C179  C     C_R   0.966532 0.547554 0.237791 0.067566
C180  C     C_R   0.463900 0.953050 0.237163 0.069130
C181  C     C_R   0.881004 0.002312 0.500211 0.929283
C182  C     C_R   0.040387 0.461965 0.237035 0.068077
C183  C     C_R   0.026212 0.547345 0.737660 0.049658
C184  C     C_R   0.454296 0.970844 0.737326 0.068625
C185  C     C_R   0.972526 0.447575 0.737025 0.050159
C186  C     C_R   0.546952 0.035821 0.737494 0.068488
C187  C     C_R   0.500096 0.996671 0.224826 0.055364
C188  C     C_R   0.003396 0.504735 0.224821 0.056759
C189  C     C_R   0.999118 0.497717 0.724752 0.066426
C190  C     C_R   0.500395 0.003622 0.724821 0.057740
C191  C     C_R   0.436803 0.904715 0.223650 -0.149429
C192  C     C_R   0.997702 0.880997 0.499788 0.928985
C193  C     C_R   0.068210 0.413965 0.223503 -0.152044
C194  C     C_R   0.563391 0.088666 0.224935 -0.149403
C195  C     C_R   0.938741 0.595599 0.225016 -0.151338
C196  C     C_R   0.955102 0.394944 0.723481 -0.183089
C197  C     C_R   0.597588 0.058590 0.724341 -0.151701
C198  C     C_R   0.043034 0.600552 0.724940 -0.183319
C199  C     C_R   0.403151 0.948705 0.724285 -0.151409
C200  C     C_R   0.498906 0.999231 0.123813 0.307958
C201  C     C_R   0.001253 0.503273 0.123688 0.300861
C202  C     C_R   0.998615 0.499294 0.623794 0.314122
C203  C     C_R   0.118996 0.997687 0.499870 0.929558
C204  C     C_R   0.499772 0.003379 0.623825 0.310350
C205  C     C_R   0.438808 0.903905 0.198692 -0.164890
C206  C     C_R   0.066432 0.412911 0.198564 -0.162040
C207  C     C_R   0.560241 0.091063 0.200049 -0.164998
C208  C     C_R   0.940049 0.596402 0.200072 -0.161254
C209  C     C_R   0.956923 0.394720 0.698526 -0.176090
C210  C     C_R   0.598470 0.056515 0.699375 -0.162780
C211  C     C_R   0.040364 0.601761 0.700028 -0.176281
C212  C     C_R   0.401470 0.951680 0.699384 -0.162169
C213  C     C_R   0.468517 0.951058 0.186362 -0.017282
C214  C     C_R   0.034145 0.542446 0.762828 -0.057620
C215  C     C_R   0.035359 0.458929 0.186290 -0.016709
C216  C     C_R   0.529983 0.044682 0.187041 -0.017179
C217  C     C_R   0.970644 0.550095 0.187043 -0.017091
C218  C     C_R   0.977152 0.446669 0.686253 -0.015192
C219  C     C_R   0.549094 0.030875 0.686702 -0.017682
C220  C     C_R   0.019847 0.550252 0.687004 -0.014989
C221  C     C_R   0.450549 0.977590 0.686704 -0.017935
C222  C     C_R   0.499517 0.997477 0.199403 -0.057326
C223  C     C_R   0.003164 0.504609 0.199381 -0.058202
C224  C     C_R   0.998681 0.498219 0.699335 -0.059825
H1    H     H_    0.806002 0.418506 0.021791 0.167003
H2    H     H_    0.598358 0.981394 0.923074 0.162633
H3    H     H_    0.262611 0.800761 0.804998 0.273868
H4    H     H_    0.275962 0.721844 0.795860 0.269290
H5    H     H_    0.241096 0.774366 0.775190 0.261896
H6    H     H_    0.838366 0.452353 0.749813 0.147905
H7    H     H_    0.806465 0.424308 0.777890 0.148278
H8    H     H_    0.802979 0.357293 0.728658 0.228951
H9    H     H_    0.771960 0.328307 0.756357 0.233268
H10   H     H_    0.700102 0.418162 0.759353 0.265740
H11   H     H_    0.690173 0.375185 0.731659 0.270166
H12   H     H_    0.731206 0.447451 0.731500 0.268110
H13   H     H_    0.030236 0.403669 0.923192 0.162918
H14   H     H_    0.693923 0.148103 0.756682 0.155274
H15   H     H_    0.680963 0.116897 0.785581 0.129402
H16   H     H_    0.653065 0.249204 0.768789 0.233209
H17   H     H_    0.631662 0.221230 0.797907 0.227689
H18   H     H_    0.741686 0.200421 0.807226 0.273915
H19   H     H_    0.730633 0.279653 0.799063 0.270206
H20   H     H_    0.764275 0.226050 0.777668 0.262174
H21   H     H_    0.713900 0.145555 0.261110 0.179241
H22   H     H_    0.701607 0.117697 0.290155 0.142631
H23   H     H_    0.616122 0.204382 0.261213 0.221027
H24   H     H_    0.402978 0.019128 0.923392 0.164450
H25   H     H_    0.598124 0.178646 0.290992 0.225314
H26   H     H_    0.693824 0.228617 0.306581 0.267262
H27   H     H_    0.643705 0.282741 0.292203 0.267401
H28   H     H_    0.711646 0.255269 0.276662 0.262484
H29   H     H_    0.838411 0.681762 0.257456 0.158099
H30   H     H_    0.872198 0.673313 0.286191 0.128621
H31   H     H_    0.743450 0.628328 0.269704 0.235387
H32   H     H_    0.774896 0.613315 0.298808 0.222868
H33   H     H_    0.782923 0.726625 0.307277 0.270200
H34   H     H_    0.705157 0.703730 0.300257 0.268265
H35   H     H_    0.487880 0.097043 0.423224 0.163720
H36   H     H_    0.751327 0.741927 0.277936 0.265292
H37   H     H_    0.290551 0.842163 0.260424 0.179555
H38   H     H_    0.303009 0.868949 0.289907 0.143258
H39   H     H_    0.390529 0.786784 0.258448 0.221091
H40   H     H_    0.408104 0.811401 0.288643 0.225345
H41   H     H_    0.314388 0.757333 0.303788 0.267170
H42   H     H_    0.366108 0.705817 0.287925 0.267378
H43   H     H_    0.297042 0.731800 0.273436 0.262782
H44   H     H_    0.169976 0.328697 0.254071 0.158174
H45   H     H_    0.135266 0.335824 0.282955 0.128356
H46   H     H_    0.909152 0.461769 0.423024 0.160837
H47   H     H_    0.263935 0.382809 0.267163 0.235180
H48   H     H_    0.231536 0.396698 0.296530 0.222633
H49   H     H_    0.224600 0.283111 0.303128 0.269967
H50   H     H_    0.302284 0.307071 0.296431 0.268114
H51   H     H_    0.257158 0.268937 0.273516 0.265252
H52   H     H_    0.512672 0.899561 0.423162 0.164458
H53   H     H_    0.092332 0.539444 0.423881 0.160740
H54   H     H_    0.597162 0.986406 0.120683 0.146751
H55   H     H_    0.041212 0.593950 0.120525 0.151177
H56   H     H_    0.400705 0.012112 0.121060 0.146507
H57   H     H_    0.582448 0.805640 0.978333 0.166749
H58   H     H_    0.961079 0.412421 0.120777 0.150063
H59   H     H_    0.097707 0.498707 0.620880 0.142171
H60   H     H_    0.492878 0.102087 0.620994 0.145455
H61   H     H_    0.899611 0.499968 0.620928 0.142172
H62   H     H_    0.506728 0.904463 0.620815 0.144500
H63   H     H_    0.598162 0.987293 0.076711 0.165844
H64   H     H_    0.039274 0.593156 0.076511 0.162345
H65   H     H_    0.400693 0.012313 0.077051 0.164142
H66   H     H_    0.961096 0.410198 0.076757 0.159911
H67   H     H_    0.098895 0.499329 0.576884 0.165274
H68   H     H_    0.194004 0.581547 0.978323 0.170549
H69   H     H_    0.493291 0.100955 0.576977 0.165233
H70   H     H_    0.899773 0.500321 0.576917 0.164201
H71   H     H_    0.506628 0.902325 0.576828 0.164534
H72   H     H_    0.792804 0.545004 0.998214 0.158598
H73   H     H_    0.454775 0.792711 0.002080 0.160024
H74   H     H_    0.207195 0.454983 0.001848 0.159857
H75   H     H_    0.545224 0.207288 0.997997 0.160296
H76   H     H_    0.292805 0.045014 0.498225 0.158842
H77   H     H_    0.954769 0.292712 0.502074 0.159673
H78   H     H_    0.707195 0.954983 0.501849 0.158781
H79   H     H_    0.417563 0.194361 0.021753 0.167751
H80   H     H_    0.045224 0.707287 0.497992 0.158547
H81   H     H_    0.692783 0.442721 0.031349 0.170361
H82   H     H_    0.558544 0.692213 0.968801 0.168436
H83   H     H_    0.307218 0.557347 0.968753 0.171492
H84   H     H_    0.441477 0.307787 0.031285 0.169707
H85   H     H_    0.192782 0.942685 0.531337 0.171848
H86   H     H_    0.058551 0.192212 0.468804 0.169120
H87   H     H_    0.807219 0.057342 0.468751 0.170561
H88   H     H_    0.941486 0.807786 0.531287 0.169367
H89   H     H_    0.707307 0.504832 0.982306 0.159160
H90   H     H_    0.305997 0.918475 0.521770 0.169471
H91   H     H_    0.494574 0.707625 0.018049 0.161459
H92   H     H_    0.292694 0.495116 0.017772 0.160082
H93   H     H_    0.505414 0.292376 0.982031 0.161237
H94   H     H_    0.207306 0.004864 0.482308 0.159728
H95   H     H_    0.994562 0.207625 0.518048 0.162126
H96   H     H_    0.792694 0.995120 0.517772 0.160295
H97   H     H_    0.005414 0.792377 0.482030 0.160167
H98   H     H_    0.107308 0.608946 0.810762 0.207269
H99   H     H_    0.409553 0.877809 0.809781 0.194754
H100  H     H_    0.894338 0.383380 0.809917 0.206941
H101  H     H_    0.082456 0.305637 0.478339 0.169342
H102  H     H_    0.594033 0.125274 0.811384 0.195175
H103  H     H_    0.633031 0.074273 0.311081 0.192888
H104  H     H_    0.873466 0.587236 0.311638 0.193471
H105  H     H_    0.370022 0.915571 0.310875 0.193082
H106  H     H_    0.132388 0.420659 0.309962 0.193177
H107  H     H_    0.416038 0.865455 0.232015 0.179164
H108  H     H_    0.089252 0.375056 0.231880 0.167145
H109  H     H_    0.584593 0.127334 0.233950 0.178141
H110  H     H_    0.917947 0.634625 0.233997 0.167546
H111  H     H_    0.942455 0.352250 0.731794 0.207414
H112  H     H_    0.694004 0.081542 0.478320 0.169033
H113  H     H_    0.638496 0.075505 0.733029 0.167573
H114  H     H_    0.055956 0.642901 0.733929 0.207154
H115  H     H_    0.362565 0.931421 0.733092 0.166669
H116  H     H_    0.416798 0.866165 0.189117 0.190880
H117  H     H_    0.089210 0.375560 0.188962 0.189431
H118  H     H_    0.581874 0.129363 0.191061 0.190673
H119  H     H_    0.917135 0.633678 0.191058 0.189686
H120  H     H_    0.942486 0.353510 0.688899 0.192708
H121  H     H_    0.638114 0.075065 0.690063 0.189756
H122  H     H_    0.054487 0.643337 0.691027 0.192481
H123  H     H_    0.917571 0.694361 0.521755 0.167596
H124  H     H_    0.361559 0.933408 0.690126 0.189640
H125  H     H_    0.969288 0.591038 0.879507 0.147881
H126  H     H_    0.598530 0.981456 0.879070 0.145180
H127  H     H_    0.031329 0.402812 0.879167 0.149122
H128  H     H_    0.404193 0.020135 0.879412 0.145383
H129  H     H_    0.488112 0.094783 0.379230 0.143331
H130  H     H_    0.910676 0.461993 0.378997 0.149351
H131  H     H_    0.513614 0.898316 0.379154 0.144257
H132  H     H_    0.092421 0.541651 0.379898 0.149498
H133  H     H_    0.160350 0.541985 0.748405 0.148261
H134  H     H_    0.969693 0.593098 0.923499 0.162240
H135  H     H_    0.193824 0.567757 0.776711 0.148236
H136  H     H_    0.195553 0.638300 0.729083 0.228927
H137  H     H_    0.228282 0.664843 0.757053 0.232986
H138  H     H_    0.299300 0.574129 0.756934 0.265875
H139  H     H_    0.308274 0.619107 0.730190 0.269848
H140  H     H_    0.266463 0.547325 0.728807 0.268058
H141  H     H_    0.309242 0.855307 0.755437 0.156393
H142  H     H_    0.322275 0.885903 0.784756 0.128727
H143  H     H_    0.352664 0.754671 0.765515 0.233431
H144  H     H_    0.373399 0.782231 0.795004 0.226561
N1    N     N_R   0.000863 0.496210 0.850581 -0.352467
N2    N     N_R   0.501726 0.001021 0.850541 -0.353827
N3    N     N_R   0.501353 0.995503 0.350525 -0.354113
N4    N     N_R   0.002094 0.502664 0.350652 -0.352516
N5    N     N_R   0.498710 0.998862 0.149531 -0.356090
N6    N     N_R   0.002154 0.503954 0.149449 -0.354687
N7    N     N_R   0.998282 0.499044 0.649482 -0.357023
N8    N     N_R   0.499574 0.004212 0.649536 -0.356325
O1    O     O_R   0.499960 0.590510 0.020150 -0.618853
O2    O     O_R   0.409490 0.499990 0.979930 -0.613937
O3    O     O_R   0.500010 0.409490 0.979930 -0.619491
O4    O     O_R   0.590510 0.500010 0.979930 -0.624586
O5    O     O_R   0.999990 0.090510 0.479930 -0.618914
O6    O     O_R   0.909490 0.999990 0.479930 -0.614022
O7    O     O_R   0.000010 0.909490 0.479930 -0.620010
O8    O     O_R   0.090510 0.000010 0.479930 -0.624748
O9    O     O_R   0.999980 0.448970 0.964420 -0.622081
O10   O     O_R   0.551030 0.999980 0.964420 -0.626934
O11   O     O_R   0.000020 0.551030 0.964420 -0.626045
O12   O     O_R   0.409490 0.499960 0.020150 -0.623937
O13   O     O_R   0.448970 0.000020 0.964420 -0.622863
O14   O     O_R   0.499980 0.948970 0.464420 -0.623559
O15   O     O_R   0.051030 0.499980 0.464420 -0.625842
O16   O     O_R   0.500020 0.051030 0.464420 -0.627414
O17   O     O_R   0.948970 0.500020 0.464420 -0.620850
O18   O     O_R   0.909490 0.448990 0.000040 -0.615113
O19   O     O_R   0.551010 0.909490 0.000040 -0.616802
O20   O     O_R   0.090510 0.551010 0.000040 -0.615588
O21   O     O_R   0.448990 0.090510 0.000040 -0.616990
O22   O     O_R   0.409490 0.948990 0.500040 -0.614104
O23   O     O_R   0.500040 0.409490 0.020150 -0.617746
O24   O     O_R   0.051010 0.409490 0.500040 -0.614106
O25   O     O_R   0.590510 0.051010 0.500040 -0.613978
O26   O     O_R   0.948990 0.590510 0.500040 -0.614033
O27   O     O_R   0.909510 0.551130 0.000040 -0.621575
O28   O     O_R   0.448870 0.909510 0.000040 -0.619348
O29   O     O_R   0.090490 0.448870 0.000040 -0.621301
O30   O     O_R   0.551130 0.090490 0.000040 -0.619259
O31   O     O_R   0.409510 0.051130 0.500040 -0.622579
O32   O     O_R   0.948870 0.409510 0.500040 -0.622726
O33   O     O_R   0.590490 0.948870 0.500040 -0.622663
O34   O     O_R   0.590510 0.500040 0.020150 -0.613234
O35   O     O_R   0.051130 0.590490 0.500040 -0.622857
O36   O     O_R   0.999930 0.448970 0.035660 -0.624630
O37   O     O_R   0.551030 0.999930 0.035660 -0.623087
O38   O     O_R   0.000070 0.551030 0.035660 -0.621209
O39   O     O_R   0.448970 0.000070 0.035660 -0.627093
O40   O     O_R   0.499930 0.948970 0.535660 -0.627479
O41   O     O_R   0.051030 0.499930 0.535660 -0.623458
O42   O     O_R   0.500070 0.051030 0.535660 -0.623521
O43   O     O_R   0.948970 0.500070 0.535660 -0.627775
O44   O     O_2   0.075891 0.574468 0.851162 -0.566680
O45   O     O_R   0.999960 0.090510 0.520150 -0.618380
O46   O     O_2   0.436248 0.914697 0.850314 -0.567247
O47   O     O_2   0.926175 0.417632 0.850602 -0.566477
O48   O     O_2   0.567416 0.087178 0.851445 -0.566929
O49   O     O_2   0.593287 0.052675 0.350995 -0.568471
O50   O     O_2   0.915457 0.567551 0.351579 -0.569798
O51   O     O_2   0.409633 0.937990 0.350843 -0.568048
O52   O     O_2   0.088815 0.437880 0.350265 -0.571412
O53   O     O_2   0.556234 0.090766 0.149867 -0.561394
O54   O     O_2   0.937624 0.590995 0.149924 -0.562688
O55   O     O_2   0.441014 0.907077 0.148498 -0.561040
O56   O     O_R   0.909490 0.999960 0.520150 -0.623523
O57   O     O_2   0.066965 0.417121 0.148463 -0.563698
O58   O     O_2   0.038129 0.599810 0.649815 -0.561044
O59   O     O_2   0.403228 0.954536 0.649188 -0.561123
O60   O     O_2   0.958233 0.398366 0.648330 -0.560279
O61   O     O_2   0.595750 0.054209 0.649138 -0.560901
O62   O     O_3   0.118432 0.617920 0.765191 -0.663258
O63   O     O_3   0.401145 0.867321 0.762607 -0.643016
O64   O     O_3   0.881693 0.375691 0.764310 -0.663562
O65   O     O_3   0.601940 0.137555 0.764424 -0.643029
O66   O     O_3   0.644711 0.082331 0.262770 -0.653652
O67   O     O_R   0.000040 0.909490 0.520150 -0.617472
O68   O     O_3   0.859756 0.591905 0.264622 -0.643461
O69   O     O_3   0.357649 0.907603 0.262692 -0.653855
O70   O     O_3   0.147285 0.418018 0.262801 -0.643417
O71   O     O_R   0.090510 0.000040 0.520150 -0.612905
O72   O     O_R   0.499990 0.590510 0.979930 -0.618318
Zn1   Zn    Zn3+2 0.500000 0.500000 0.026890 0.971500
Zn2   Zn    Zn3+2 0.068160 0.499950 0.500040 0.963098
Zn3   Zn    Zn3+2 0.500050 0.068160 0.500040 0.962410
Zn4   Zn    Zn3+2 0.931840 0.500050 0.500040 0.963382
Zn5   Zn    Zn3+2 1.000000 0.000000 0.526890 0.972979
Zn6   Zn    Zn3+2 0.500000 0.500000 0.973180 0.968614
Zn7   Zn    Zn3+2 1.000000 0.000000 0.473180 0.967137
Zn8   Zn    Zn3+2 0.999950 0.431840 0.000040 0.965990
Zn9   Zn    Zn3+2 0.568160 0.999950 0.000040 0.964197
Zn10  Zn    Zn3+2 0.000050 0.568160 0.000040 0.965551
Zn11  Zn    Zn3+2 0.431840 0.000050 0.000040 0.964143
Zn12  Zn    Zn3+2 0.499950 0.931840 0.500040 0.962285

loop_
_geom_bond_atom_site_label_1
_geom_bond_atom_site_label_2
_ccdc_geom_bond_type
C206  C215  A    
C39   C200  A    
C13   C79   A    
C126  C127  S    
C57   C145  A    
C64   C77   D    
C53   C69   A    
C76   H78   S    
C95   H97   S    
C179  C195  A    
C211  C220  A    
C68   C182  A    
C107  O33   A    
C100  O18   A    
O67   Zn5   S    
C121  O64   S    
C21   H134  S    
C198  H114  S    
C4    N5    A    
C209  H120  S    
C63   C76   D    
C29   H53   S    
O23   Zn1   S    
C29   C33   A    
C16   C25   A    
C115  O62   S    
C53   H69   S    
C2    C90   A    
C142  O65   S    
C30   C96   S    
C19   C37   A    
C44   C53   A    
C5    C217  A    
C26   H35   S    
C152  H103  S    
C172  O47   S    
C160  C166  A    
C48   C65   A    
C176  O51   S    
C5    N6    A    
C20   C29   A    
O33   Zn12  S    
C10   O60   S    
C35   C178  A    
C126  H16   S    
C63   C85   S    
C127  H18   S    
C174  N3    A    
C41   C200  A    
C183  C189  A    
C124  C147  A    
C129  H25   S    
C93   C170  S    
C13   C185  A    
C103  O29   A    
C28   C32   A    
C159  O34   A    
C147  H98   S    
C203  O8    A    
C99   O17   A    
C179  C188  A    
C173  N2    A    
C82   C91   D    
C51   C66   A    
C142  C151  A    
C186  C190  A    
C177  O52   S    
C180  C187  A    
O45   Zn5   S    
C213  C222  A    
O39   Zn11  S    
C174  O49   S    
C118  H142  S    
C120  H3    S    
O10   Zn9   S    
C43   H59   S    
C117  H138  S    
C134  O69   S    
C133  H34   S    
C187  C222  A    
C71   C102  S    
C92   H94   S    
C97   O10   A    
C76   C107  S    
C199  H115  S    
C96   O11   A    
C15   H127  S    
C175  N4    A    
C94   H96   S    
C62   C75   D    
C6    O55   S    
O26   Zn4   S    
C68   C146  A    
C129  H23   S    
C208  C217  A    
C205  H116  S    
C102  O28   A    
C46   C179  A    
C24   C90   A    
C57   C180  A    
C139  C140  S    
C131  H29   S    
C72   C103  S    
C61   C74   D    
C6    N5    A    
C170  O5    A    
C131  O68   S    
C18   C38   A    
C80   C88   D    
C41   H56   S    
C157  C171  A    
C161  C174  A    
C158  C172  A    
C138  O70   S    
C6    C213  A    
C17   H129  S    
C109  O38   A    
C206  H117  S    
C207  C216  A    
C32   C98   S    
C47   C204  A    
C84   C93   D    
C119  H144  S    
O9    Zn8   S    
C86   C95   D    
C132  H32   S    
O29   Zn8   S    
C123  H12   S    
C197  H113  S    
C194  H109  S    
C125  H14   S    
C158  C165  A    
C169  N1    A    
O18   Zn8   S    
C78   C87   D    
C217  C223  A    
C26   C32   A    
C4    C216  A    
C73   H75   S    
C160  C173  A    
O3    Zn6   S    
C115  H135  S    
C20   H132  S    
O56   Zn5   S    
C128  C129  S    
C113  C168  A    
C99   O15   A    
C130  H27   S    
C112  O12   A    
C194  C207  A    
C191  H107  S    
C128  H21   S    
O43   Zn4   S    
C14   C36   A    
C48   H63   S    
C43   C52   A    
C40   C49   A    
C56   C78   S    
C145  O69   S    
C133  H36   S    
C195  C208  A    
C40   H55   S    
C87   C159  S    
O41   Zn2   S    
C186  C197  A    
C37   N3    S    
C94   C181  S    
O72   Zn6   S    
C75   H77   S    
C152  C161  A    
C55   H71   S    
C141  O64   S    
C87   H89   S    
C136  H39   S    
C204  N8    S    
C210  H121  S    
C141  C150  A    
C79   C214  A    
C65   C110  S    
C49   C66   A    
C8    O58   S    
C127  H19   S    
O16   Zn3   S    
O19   Zn9   S    
C46   C144  A    
C162  C175  A    
C18   H130  S    
C14   H126  S    
C88   H91   S    
C210  C219  A    
C33   C99   S    
C140  H49   S    
C71   H73   S    
C123  H10   S    
C137  H42   S    
C11   O61   S    
C196  H111  S    
C161  C167  A    
C79   C165  A    
C50   H65   S    
C19   C28   A    
C151  H102  S    
C55   C69   A    
C52   C67   A    
C95   C192  S    
C54   H70   S    
C162  C168  A    
C145  C154  A    
C134  H37   S    
C107  O25   A    
C184  C190  A    
C115  H133  S    
C52   H67   S    
C11   C219  A    
C81   H83   S    
C129  C130  S    
C82   H84   S    
C120  H4    S    
C46   C113  A    
O27   Zn10  S    
O21   Zn11  S    
C181  O56   A    
C136  C137  S    
C47   H62   S    
C80   H82   S    
C185  C189  A    
C22   H2    S    
C78   H81   S    
C57   C101  A    
C139  H48   S    
C59   C72   D    
C2    C135  A    
C192  O7    A    
C14   C22   A    
C16   C36   A    
C74   C105  S    
C7    N6    A    
O38   Zn10  S    
C172  N1    A    
C50   C65   A    
C188  C223  A    
C62   H101  S    
C44   C204  A    
C19   H131  S    
C201  N6    S    
O30   Zn9   S    
O28   Zn11  S    
C116  H137  S    
O6    Zn7   S    
C111  O40   A    
C49   H64   S    
C112  O2    A    
C121  H7    S    
C98   O16   A    
C38   N4    S    
O36   Zn8   S    
C189  C224  A    
C178  C194  A    
C89   C112  S    
C110  O37   A    
C56   H1    S    
C140  H51   S    
C67   C114  S    
C58   C71   D    
O24   Zn2   S    
C44   H60   S    
C60   C73   D    
C45   H61   S    
C24   C186  A    
C199  C212  A    
C144  O68   S    
C62   C84   S    
C197  C210  A    
C212  H124  S    
C74   H76   S    
C207  H118  S    
C146  C155  A    
C24   C142  A    
C45   C202  A    
O42   Zn3   S    
C106  O24   A    
C121  H6    S    
C13   C141  A    
C77   H80   S    
C98   O14   A    
C15   C34   A    
C58   C80   S    
C68   C113  A    
C81   C89   D    
C1    C88   S    
C133  H33   S    
C205  C213  A    
C3    C221  A    
C90   C166  A    
C114  O43   A    
C193  H108  S    
C64   C86   S    
C159  O4    A    
C208  H119  S    
C102  O19   A    
C77   C108  S    
C171  N2    A    
C183  C198  A    
O32   Zn4   S    
C1    O72   A    
O71   Zn5   S    
C154  H105  S    
C61   C83   S    
C3    C190  A    
C117  H139  S    
C146  O70   S    
C59   H68   S    
C135  O63   S    
C180  C191  A    
C27   C33   A    
C215  C223  A    
O22   Zn12  S    
C200  N5    S    
O20   Zn10  S    
C155  H106  S    
C5    O54   S    
C164  C168  A    
C36   N2    S    
C175  O50   S    
C43   C202  A    
C182  C193  A    
C2    C184  A    
O2    Zn6   S    
C147  C156  A    
C119  H143  S    
C121  C122  S    
C123  H11   S    
C196  C209  A    
C143  C152  A    
C125  C126  S    
C171  O46   S    
C192  O67   A    
C17   C26   A    
C185  C196  A    
C12   C34   A    
C131  C132  S    
C41   C50   A    
C7    O57   S    
C125  O65   S    
C104  O30   A    
C109  O36   A    
C10   N7    A    
C150  C158  A    
C117  H140  S    
C59   C81   S    
C35   C101  A    
C72   H74   S    
C120  H5    S    
C119  C120  S    
C218  C224  A    
C58   H57   S    
C130  H28   S    
C122  H8    S    
C21   C30   A    
C9    O59   S    
C153  C162  A    
C128  H22   S    
O8    Zn7   S    
O15   Zn2   S    
C91   H93   S    
C150  H100  S    
C138  H44   S    
C156  C165  A    
C11   N8    A    
C118  H141  S    
C143  O66   S    
C108  O26   A    
C31   C97   S    
C66   C109  S    
C105  O31   A    
C16   H128  S    
C106  O32   A    
C138  C139  S    
C9    C221  A    
C122  H9    S    
C40   C201  A    
C83   H85   S    
C75   C106  S    
C3    C219  A    
O35   Zn2   S    
C114  O41   A    
C182  C188  A    
C149  C157  A    
C7    C215  A    
C115  C116  S    
C35   C143  A    
C39   C48   A    
C138  H45   S    
O13   Zn11  S    
C124  O62   S    
C136  H40   S    
C69   C111  S    
C39   H54   S    
C170  O45   A    
C84   H86   S    
C131  H30   S    
C85   H87   S    
C124  C214  A    
C116  H136  S    
C86   H88   S    
C83   C92   D    
C148  O23   A    
C209  C218  A    
C4    O53   S    
C23   H13   S    
C12   H125  S    
C28   H52   S    
C181  O6    A    
C140  H50   S    
O4    Zn6   S    
C156  C169  A    
C177  N4    A    
C116  C117  S    
O31   Zn3   S    
C144  C153  A    
C101  C167  A    
O11   Zn10  S    
C118  C119  S    
C132  H31   S    
C110  O39   A    
O34   Zn1   S    
C60   C82   S    
C73   C104  S    
C132  C133  S    
C203  O71   A    
C191  C205  A    
C70   H72   S    
C125  H15   S    
C42   C51   A    
C183  C214  A    
C15   C23   A    
O17   Zn4   S    
C134  H38   S    
C103  O20   A    
C202  N7    S    
C108  O35   A    
C137  H41   S    
C163  C176  A    
O1    Zn1   S    
C91   C148  S    
C42   H58   S    
C70   C100  S    
C212  C221  A    
C130  H26   S    
C1    O1    A    
C22   C31   A    
C23   C30   A    
C154  C163  A    
C51   H66   S    
C9    N8    A    
C104  O21   A    
C148  O3    A    
C134  C136  S    
C54   C67   A    
C64   H123  S    
C135  C149  A    
C139  H47   S    
C12   C21   A    
C149  H99   S    
C8    N7    A    
C96   O9    A    
C163  C167  A    
C25   H24   S    
C8    C220  A    
C20   C38   A    
C85   C94   D    
C97   O13   A    
C184  C199  A    
C126  H17   S    
C17   C37   A    
C118  O63   S    
C34   N1    S    
C198  C211  A    
C92   C203  S    
O5    Zn7   S    
C195  H110  S    
C128  O66   S    
C45   C54   A    
C56   C70   D    
O12   Zn1   S    
C173  O48   S    
O37   Zn9   S    
C178  C187  A    
C100  O27   A    
C220  C224  A    
C10   C218  A    
C47   C55   A    
C169  O44   S    
C60   H79   S    
C61   H90   S    
C193  C206  A    
C25   C31   A    
C18   C27   A    
O7    Zn7   S    
C157  C166  A    
O40   Zn12  S    
O14   Zn12  S    
C155  C164  A    
C127  H20   S    
C151  C160  A    
C93   H95   S    
C153  H104  S    
C137  H43   S    
C111  O42   A    
C176  N3    A    
C63   H112  S    
C89   H92   S    
C216  C222  A    
O25   Zn3   S    
C27   H46   S    
C105  O22   A    
C211  H122  S    
C42   C201  A    
C122  C123  S    
C164  C177  A    
