data_mof_unit_34245.cif
_audit_creation_date              2012-12-11T16:33:30-0500
_audit_creation_method            fapswitch 2.2
_symmetry_space_group_name_H-M    P1
_symmetry_Int_Tables_number       1
_space_group_crystal_system       triclinic
_cell_length_a                    6.955101
_cell_length_b                    18.248006
_cell_length_c                    20.216711
_cell_angle_alpha                 68.562223
_cell_angle_beta                  90.962088
_cell_angle_gamma                 90.628877
_cell_volume                      2387.95231849

loop_
_atom_site_label
_atom_site_type_symbol
_atom_type_description
_atom_site_fract_x
_atom_site_fract_y
_atom_site_fract_z
_atom_type_partial_charge
O1    O     O_R   0.488960 0.443750 0.941980 -0.506695
O2    O     O_R   0.823890 0.406510 0.087590 -0.544517
O3    O     O_R   0.999680 0.556250 0.058020 -0.547917
C1    C     C_R   0.655789 0.383325 0.114872 0.805146
O4    O     O_R   0.818360 0.434410 0.944340 -0.514542
O5    O     O_R   0.994110 0.584350 0.913750 -0.522125
C2    C     C_R   0.648773 0.421219 0.923134 0.851414
O6    O     O_R   0.494530 0.415650 0.086250 -0.530061
O7    O     O_3   0.662590 0.549160 0.990130 -0.402827
V1    V     V_3+5 0.935320 0.490880 0.001830 1.546090
O8    O     O_R   0.324180 0.593490 0.912410 -0.548492
C3    C     C_R   0.153800 0.617643 0.885824 0.902412
O9    O     O_R   0.329720 0.565590 0.055660 -0.550457
C4    C     C_R   0.162781 0.577104 0.078161 0.711285
V2    V     V_3+5 0.435990 0.509120 0.998170 1.509415
O10   O     O_3   0.158850 0.450840 0.009870 -0.349711
C5    C     C_3   0.011753 0.712863 0.305899 0.220007
C6    C     C_3   0.195763 0.678012 0.288424 0.154770
C7    C     C_1   0.156540 0.621720 0.124436 -0.211614
C8    C     C_1   0.108547 0.875172 0.377908 -0.161937
C9    C     C_3   0.950084 0.741295 0.227235 0.322963
C10   C     C_3   0.134011 0.705870 0.209237 -0.057556
C11   C     C_3   0.054192 0.821083 0.213123 -0.294471
C12   C     C_3   0.118014 0.791445 0.292492 -0.069971
C13   C     C_3   0.240760 0.785308 0.195116 -0.244407
C14   C     C_3   0.302012 0.756373 0.274687 0.651479
C15   C     C_1   0.147927 0.659408 0.162833 0.009661
C16   C     C_1   0.112724 0.837605 0.339313 0.060435
H1    H     H_    0.335099 0.814528 0.149134 0.163336
H2    H     H_    0.994979 0.880135 0.182022 0.152357
H3    H     H_    0.066183 0.523864 0.688025 0.239918
C17   C     C_R   0.148750 0.780524 0.880818 0.125574
C18   C     C_R   0.208325 0.853879 0.880633 0.590492
C19   C     C_R   0.243504 0.914680 0.817476 -0.273265
C20   C     C_R   0.207996 0.905947 0.752552 0.152041
C21   C     C_R   0.160629 0.830016 0.750237 -0.014958
C22   C     C_R   0.148582 0.764762 0.816515 -0.085081
C23   C     C_R   0.124255 0.817135 0.685194 -0.122331
C24   C     C_R   0.103093 0.738681 0.686390 -0.116475
C25   C     C_R   0.115180 0.673149 0.752386 -0.129764
C26   C     C_R   0.137798 0.686277 0.817308 -0.115509
C27   C     C_R   0.076148 0.723054 0.622609 0.584941
C28   C     C_R   0.061799 0.646410 0.624151 -0.258539
C29   C     C_R   0.075740 0.583224 0.687809 -0.217798
C30   C     C_R   0.102918 0.595422 0.751259 0.570214
H4    H     H_    0.287024 0.971362 0.818747 0.168636
H5    H     H_    0.041649 0.635908 0.575104 0.188621
C31   C     C_R   0.521271 0.096920 0.244527 0.206307
C32   C     C_R   0.485492 0.089568 0.178379 0.202760
C33   C     C_R   0.502820 0.154404 0.116011 -0.263153
C34   C     C_R   0.558116 0.226777 0.117279 0.546905
C35   C     C_R   0.594270 0.237891 0.182421 -0.086002
C36   C     C_R   0.577425 0.171702 0.248139 -0.097985
C37   C     C_R   0.646789 0.313435 0.182571 -0.088958
C38   C     C_R   0.685113 0.323566 0.247640 -0.001616
C39   C     C_R   0.668567 0.258939 0.313594 -0.133094
C40   C     C_R   0.616615 0.182657 0.314216 -0.108864
C41   C     C_R   0.738159 0.398653 0.247957 -0.275347
C42   C     C_R   0.773359 0.410448 0.311090 -0.305071
C43   C     C_R   0.754980 0.348475 0.375515 0.651387
C44   C     C_R   0.702656 0.273682 0.377509 0.492408
H6    H     H_    0.474505 0.148497 0.065324 0.174111
H7    H     H_    0.752920 0.449516 0.199413 0.135506
H8    H     H_    0.813855 0.468292 0.309855 0.150740
O11   O     O_R   0.770540 0.084530 0.414050 -0.535298
O12   O     O_R   0.445710 0.065660 0.555720 -0.533465
O13   O     O_R   0.270420 0.915650 0.586190 -0.529708
C45   C     C_R   0.615267 0.079877 0.576194 0.800182
O14   O     O_R   0.441140 0.093540 0.412470 -0.531214
O15   O     O_R   0.265820 0.943740 0.441930 -0.536034
C46   C     C_R   0.608735 0.115030 0.383818 0.895790
O16   O     O_R   0.775150 0.056440 0.558310 -0.535385
O17   O     O_3   0.602370 0.950960 0.510050 -0.380027
V3    V     V_3+5 0.329450 0.009140 0.498150 1.525223
O18   O     O_R   0.935790 0.934280 0.444060 -0.539723
C47   C     C_R   0.103177 0.920652 0.423456 0.795174
O19   O     O_R   0.940370 0.906390 0.587310 -0.533854
C48   C     C_R   0.110176 0.884944 0.615978 0.901289
V4    V     V_3+5 0.828810 0.990710 0.501460 1.513332
O20   O     O_3   0.105780 0.049100 0.489960 -0.371416
C49   C     C_3   0.755560 0.309600 0.725930 0.605803
C50   C     C_3   0.578982 0.298331 0.682918 -0.335307
H9    H     H_    0.535982 0.337829 0.628531 0.205236
C51   C     C_1   0.624929 0.126013 0.621217 -0.150013
C52   C     C_1   0.638517 0.375412 0.877804 -0.074995
C53   C     C_3   0.804787 0.221907 0.748530 0.688311
C54   C     C_3   0.628873 0.209851 0.706645 -0.138604
C55   C     C_3   0.682309 0.202752 0.816044 -0.372821
C56   C     C_3   0.632601 0.291218 0.792593 -0.183233
C57   C     C_3   0.503634 0.190386 0.773567 -0.234431
C58   C     C_3   0.457074 0.279008 0.750602 0.723998
C59   C     C_1   0.628269 0.163999 0.659522 0.130270
C60   C     C_1   0.634346 0.337366 0.839521 0.154362
H10   H     H_    0.397333 0.141579 0.792712 0.196847
H11   H     H_    0.726398 0.163585 0.870413 0.193226
N1    N     N_2   0.275928 0.601262 0.328088 -0.523219
H12   H     H_    0.207895 0.555890 0.318030 0.259541
C61   C     C_3   0.312808 0.584584 0.402809 -0.459996
H13   H     H_    0.397484 0.529582 0.425446 0.206154
H14   H     H_    0.176208 0.576100 0.432215 0.223946
H15   H     H_    0.395907 0.633273 0.410433 0.230727
N2    N     N_2   0.229440 0.974314 0.690553 -0.532355
H16   H     H_    0.364142 0.999057 0.688275 0.242244
C62   C     C_3   0.079914 0.032120 0.680045 -0.449726
H17   H     H_    0.094849 0.079099 0.626809 0.221611
H18   H     H_    0.091847 0.059623 0.720735 0.224387
H19   H     H_    0.936115 0.003994 0.683537 0.171532
F1    F     F_    0.066440 0.780718 0.557435 -0.714514
F2    F     F_    0.117810 0.529678 0.810781 -0.684322
F3    F     F_    0.786917 0.361037 0.436923 -0.640194
N3    N     N_2   0.486999 0.029695 0.306715 -0.530814
H20   H     H_    0.351224 0.006423 0.307095 0.256787
C63   C     C_3   0.634238 0.969939 0.324770 -0.436843
H21   H     H_    0.615840 0.929674 0.380636 0.213869
H22   H     H_    0.779607 0.997263 0.318506 0.156865
H23   H     H_    0.620652 0.933887 0.291153 0.232115
N4    N     N_2   0.429828 0.015767 0.174975 -0.506253
H24   H     H_    0.295591 0.017021 0.152122 0.259574
C64   C     C_3   0.572464 0.980559 0.144581 -0.502432
H25   H     H_    0.532743 0.918413 0.155117 0.209709
H26   H     H_    0.716547 0.981510 0.168895 0.192235
H27   H     H_    0.580018 0.012517 0.086196 0.193204
F4    F     F_    0.577699 0.285116 0.053014 -0.717658
N5    N     N_2   0.891315 0.676769 0.367197 -0.500633
H28   H     H_    0.801489 0.715954 0.377185 0.312932
C65   C     C_3   0.797009 0.604024 0.372540 -0.451384
H29   H     H_    0.743677 0.574391 0.427387 0.207687
H30   H     H_    0.897698 0.563597 0.361357 0.191759
H31   H     H_    0.673586 0.616167 0.334877 0.254668
F5    F     F_    0.682804 0.217251 0.442872 -0.684433
F6    F     F_    0.887158 0.370605 0.701728 -0.599544
F7    F     F_    0.276326 0.308945 0.752241 -0.569585
F8    F     F_    0.986433 0.192758 0.746774 -0.644750
F9    F     F_    0.483876 0.764938 0.299515 -0.696515
N6    N     N_2   0.755523 0.736555 0.202110 -0.452261
H32   H     H_    0.706810 0.788384 0.164387 0.260621
C66   C     C_3   0.705926 0.667746 0.185898 -0.498226
H33   H     H_    0.547887 0.659447 0.188320 0.213929
H34   H     H_    0.773226 0.613941 0.224619 0.181673
H35   H     H_    0.752804 0.675919 0.131417 0.182326
N7    N     N_2   0.067005 0.726961 0.944199 -0.534205
H36   H     H_    0.131608 0.729374 0.989567 0.286712
C67   C     C_3   0.859879 0.733170 0.946036 -0.454976
H37   H     H_    0.804781 0.689514 0.996352 0.190715
H38   H     H_    0.791306 0.721325 0.900878 0.189778
H39   H     H_    0.818971 0.792923 0.943378 0.203395
F10   F     F_    0.220192 0.868015 0.942034 -0.689591

loop_
_geom_bond_atom_site_label_1
_geom_bond_atom_site_label_2
_ccdc_geom_bond_type
C67   H39   S    
O12   C45   A    
C38   C39   A    
C65   H29   S    
O11   V4    S    
C34   F4    S    
O17   V3    S    
C20   C21   A    
C6    C14   S    
C1    O6    A    
C20   N2    S    
N4    C64   S    
C62   H18   S    
C49   C50   S    
N6    H32   S    
O19   C48   A    
C35   C36   A    
C66   H34   S    
C42   H8    S    
C21   C22   A    
C12   C14   S    
O16   V4    S    
N7    C67   S    
O5    C3    A    
C23   C24   A    
C61   H13   S    
C53   C55   S    
C49   F6    S    
V2    O10   S    
O12   V3    S    
O8    C3    A    
C67   H38   S    
C6    N1    S    
C39   C40   A    
C8    C47   S    
C5    C6    S    
C19   C20   A    
O14   C46   A    
C18   F10   S    
O1    C2    A    
O8    V2    S    
C32   N4    S    
N3    H20   S    
C10   C13   S    
N1    C61   S    
O15   V3    S    
C11   C12   S    
C19   H4    S    
C56   C58   S    
C7    C15   T    
O7    V1    S    
C49   C53   S    
C63   H23   S    
C49   C56   S    
O19   V4    S    
C55   H11   S    
C42   C43   A    
V3    O20   S    
O9    C4    A    
C22   C26   A    
C25   C30   A    
O13   C48   A    
C52   C60   T    
C62   H17   S    
C35   C37   A    
C57   H10   S    
C24   C27   A    
C64   H26   S    
C13   H1    S    
C31   C36   A    
C66   H35   S    
C5    C12   S    
H3    C29   S    
C34   C35   A    
C45   C51   S    
C11   H2    S    
C24   C25   A    
O4    C2    A    
C36   C40   A    
C53   C54   S    
C58   F7    S    
C8    C16   T    
C65   H31   S    
C41   C42   A    
O11   C46   A    
C5    C9    S    
C50   C58   S    
C43   C44   A    
O2    C1    A    
O18   C47   A    
C3    C26   S    
C14   F9    S    
C53   F8    S    
C5    N5    S    
C45   O16   A    
N1    H12   S    
C33   C34   A    
O17   V4    S    
O14   V3    S    
N3    C63   S    
O13   V3    S    
C17   C22   A    
C40   C46   S    
N2    C62   S    
C17   N7    S    
O3    C4    A    
C44   F5    S    
O1    V2    S    
C31   C32   A    
C55   C57   S    
C50   H9    S    
O6    V2    S    
C61   H14   S    
C10   C15   S    
O9    V2    S    
C28   C29   A    
O15   C47   A    
C33   H6    S    
C50   C54   S    
C54   C57   S    
C27   C28   A    
O2    V1    S    
C54   C59   S    
C29   C30   A    
N5    C65   S    
C63   H21   S    
C64   H27   S    
C41   H7    S    
N6    C66   S    
C37   C38   A    
C25   C26   A    
C65   H30   S    
C1    C37   S    
C6    C10   S    
C4    C7    S    
C12   C16   S    
C28   H5    S    
O5    V1    S    
C64   H25   S    
C61   H15   S    
C23   C48   S    
C66   H33   S    
N4    H24   S    
C17   C18   A    
C9    C11   S    
C13   C14   S    
O4    V1    S    
O3    V1    S    
V1    O10   S    
N7    H36   S    
C57   C58   S    
C2    C52   S    
C27   F1    S    
C21   C23   A    
C18   C19   A    
C30   F2    S    
C11   C13   S    
C56   C60   S    
N2    H16   S    
C43   F3    S    
V4    O20   S    
C31   N3    S    
C55   C56   S    
C32   C33   A    
C38   C41   A    
C39   C44   A    
C51   C59   T    
C9    C10   S    
O18   V4    S    
C9    N6    S    
C62   H19   S    
C67   H37   S    
O7    V2    S    
N5    H28   S    
C63   H22   S    
