data_mof_unit_25501.cif
_audit_creation_date              2012-12-11T15:06:55-0500
_audit_creation_method            fapswitch 2.2
_symmetry_space_group_name_H-M    P1
_symmetry_Int_Tables_number       1
_space_group_crystal_system       triclinic
_cell_length_a                    19.617796
_cell_length_b                    11.296232
_cell_length_c                    18.714112
_cell_angle_alpha                 90.09318
_cell_angle_beta                  90.176917
_cell_angle_gamma                 89.996626
_cell_volume                      4147.15623115

loop_
_atom_site_label
_atom_site_type_symbol
_atom_type_description
_atom_site_fract_x
_atom_site_fract_y
_atom_site_fract_z
_atom_type_partial_charge
C1    C     C_R   0.761307 0.523553 0.639126 0.537046
C2    C     C_3   0.252935 0.056591 0.563194 0.066757
C3    C     C_R   0.739096 0.032691 0.150693 0.536015
C4    C     C_R   0.773995 0.131887 0.858611 0.533037
C5    C     C_R   0.225559 0.133384 0.140761 0.533798
C6    C     C_R   0.273995 0.631888 0.858611 0.533037
C7    C     C_R   0.725559 0.633385 0.140761 0.533799
C8    C     C_R   0.969686 0.353313 0.853304 0.532951
C9    C     C_R   0.032312 0.353258 0.145466 0.535996
C10   C     C_R   0.469686 0.853313 0.853304 0.532950
C11   C     C_R   0.532312 0.853258 0.145466 0.535995
C12   C     C_3   0.687231 0.132538 0.465255 -0.234632
C13   C     C_3   0.247056 0.556798 0.436777 0.066540
C14   C     C_3   0.312735 0.132387 0.534839 -0.234261
C15   C     C_3   0.187233 0.632533 0.465256 -0.234634
C16   C     C_3   0.812735 0.632384 0.534841 -0.234256
C17   C     C_3   0.692370 0.145225 0.546460 -0.231388
C18   C     C_3   0.307620 0.145101 0.453648 -0.231446
C19   C     C_3   0.192370 0.645218 0.546460 -0.231395
C20   C     C_3   0.807614 0.645113 0.453651 -0.231460
C21   C     C_3   0.756581 0.939010 0.480460 -0.216778
C22   C     C_3   0.243406 0.938861 0.519215 -0.217092
C23   C     C_3   0.256581 0.439000 0.480462 -0.216773
C24   C     C_3   0.752934 0.556590 0.563195 0.066761
C25   C     C_3   0.743407 0.438861 0.519216 -0.217090
C26   C     C_3   0.760050 0.090463 0.574218 0.066718
C27   C     C_3   0.239933 0.090497 0.425782 0.066435
C28   C     C_3   0.260050 0.590460 0.574219 0.066713
C29   C     C_3   0.739931 0.590498 0.425783 0.066419
C30   C     C_3   0.753448 0.957823 0.561765 -0.262955
C31   C     C_3   0.246493 0.957813 0.437939 -0.262572
C32   C     C_3   0.253451 0.457820 0.561767 -0.262955
C33   C     C_R   0.238718 0.523757 0.360829 0.538011
C34   C     C_3   0.746499 0.457815 0.437939 -0.262566
C35   C     C_3   0.823198 0.133460 0.530269 -0.215172
C36   C     C_3   0.176802 0.133454 0.469884 -0.215211
C37   C     C_3   0.323197 0.633457 0.530269 -0.215173
C38   C     C_3   0.676799 0.633449 0.469885 -0.215221
C39   C     C_3   0.003797 0.204640 0.458861 -0.232334
C40   C     C_3   0.996255 0.204562 0.540843 -0.232657
C41   C     C_3   0.503796 0.704640 0.458860 -0.232337
C42   C     C_3   0.496256 0.704563 0.540843 -0.232656
C43   C     C_3   0.064658 0.406220 0.474565 -0.212627
C44   C     C_R   0.261307 0.023553 0.639125 0.537046
C45   C     C_3   0.935348 0.406094 0.525564 -0.212291
C46   C     C_3   0.564658 0.906221 0.474565 -0.212625
C47   C     C_3   0.435347 0.906095 0.525565 -0.212286
C48   C     C_3   0.941510 0.390543 0.444489 -0.262806
C49   C     C_3   0.058510 0.390477 0.555604 -0.262665
C50   C     C_3   0.441509 0.890544 0.444489 -0.262808
C51   C     C_3   0.558510 0.890478 0.555604 -0.262665
C52   C     C_3   0.010525 0.333203 0.430950 0.064840
C53   C     C_3   0.989499 0.333055 0.569032 0.065111
C54   C     C_3   0.510525 0.833203 0.430950 0.064839
C55   C     C_R   0.738719 0.023762 0.360828 0.538007
C56   C     C_3   0.489499 0.833055 0.569032 0.065115
C57   C     C_3   0.813284 0.010388 0.043979 -0.225959
C58   C     C_3   0.179727 0.031006 0.951817 -0.231331
C59   C     C_3   0.313283 0.510387 0.043979 -0.225962
C60   C     C_3   0.679726 0.531007 0.951817 -0.231331
C61   C     C_R   0.774044 0.120851 0.649499 0.536736
C62   C     C_R   0.225936 0.120963 0.350527 0.537267
C63   C     C_R   0.274044 0.620852 0.649499 0.536737
C64   C     C_R   0.725936 0.620964 0.350529 0.537261
C65   C     C_3   0.815591 0.016404 0.963834 -0.234105
C66   C     C_3   0.810933 0.130837 0.449294 -0.261353
C67   C     C_3   0.177583 0.036157 0.032065 -0.225969
C68   C     C_3   0.315591 0.516404 0.963834 -0.234106
C69   C     C_3   0.677583 0.536158 0.032065 -0.225969
C70   C     C_3   0.681900 0.033972 0.030800 -0.213123
C71   C     C_3   0.307157 0.013008 0.968064 -0.220686
C72   C     C_3   0.181900 0.533974 0.030801 -0.213123
C73   C     C_3   0.807157 0.513008 0.968064 -0.220685
C74   C     C_3   0.755316 0.200285 0.062386 -0.260292
C75   C     C_3   0.255338 0.205067 0.938782 -0.254790
C76   C     C_3   0.255317 0.700285 0.062386 -0.260294
C77   C     C_3   0.189060 0.130636 0.550860 -0.261090
C78   C     C_3   0.755338 0.705068 0.938782 -0.254789
C79   C     C_3   0.747106 0.068248 0.074249 0.063611
C80   C     C_3   0.250352 0.073254 0.924193 0.059304
C81   C     C_3   0.247106 0.568249 0.074250 0.063608
C82   C     C_3   0.750352 0.573255 0.924193 0.059305
C83   C     C_3   0.759896 0.102243 0.935528 0.058105
C84   C     C_3   0.239310 0.106076 0.063423 0.062264
C85   C     C_3   0.259896 0.602243 0.935529 0.058105
C86   C     C_3   0.739310 0.606078 0.063423 0.062263
C87   C     C_3   0.691306 0.044288 0.948886 -0.252311
C88   C     C_3   0.310935 0.630824 0.449294 -0.261345
C89   C     C_3   0.300860 0.027238 0.050293 -0.260430
C90   C     C_3   0.191305 0.544289 0.948886 -0.252310
C91   C     C_3   0.800860 0.527240 0.050293 -0.260429
C92   C     C_3   0.761336 0.217677 0.980490 -0.228580
C93   C     C_3   0.254723 0.222496 0.021017 -0.215651
C94   C     C_3   0.261336 0.717677 0.980491 -0.228579
C95   C     C_3   0.754722 0.722498 0.021017 -0.215653
C96   C     C_3   0.008141 0.479617 0.038592 -0.226708
C97   C     C_3   0.005294 0.479559 0.957711 -0.233836
C98   C     C_3   0.508141 0.979617 0.038592 -0.226707
C99   C     C_3   0.689059 0.630635 0.550861 -0.261088
C100  C     C_3   0.505294 0.979559 0.957711 -0.233835
C101  C     C_3   0.062692 0.270168 0.026616 -0.211012
C102  C     C_3   0.932793 0.296360 0.972890 -0.222844
C103  C     C_3   0.562692 0.770167 0.026616 -0.211012
C104  C     C_3   0.432793 0.796360 0.972890 -0.222845
C105  C     C_3   0.942190 0.297790 0.054932 -0.263518
C106  C     C_3   0.054672 0.278817 0.944712 -0.256062
C107  C     C_3   0.442190 0.797791 0.054932 -0.263520
C108  C     C_3   0.554673 0.778817 0.944712 -0.256062
C109  C     C_R   0.969131 0.342088 0.644971 0.534883
C110  C     C_3   0.747055 0.056807 0.436775 0.066536
C111  C     C_R   0.030888 0.342184 0.355032 0.535948
C112  C     C_R   0.469132 0.842088 0.644971 0.534883
C113  C     C_R   0.530887 0.842184 0.355032 0.535947
C114  C     C_3   0.011982 0.351150 0.068692 0.064488
C115  C     C_3   0.991581 0.352163 0.929798 0.059599
C116  C     C_3   0.511982 0.851150 0.068692 0.064488
C117  C     C_3   0.491581 0.852163 0.929798 0.059598
C118  C     C_R   0.759593 0.536547 0.847751 0.531215
C119  C     C_R   0.239096 0.532692 0.150693 0.536015
C120  C     C_R   0.259593 0.036547 0.847751 0.531215
Cr1   Cr    Cr6+3 0.885690 0.492860 0.745310 0.992177
Cr2   Cr    Cr6+3 0.111880 0.178590 0.246990 0.992947
Cr3   Cr    Cr6+3 0.388120 0.678590 0.753010 0.992191
Cr4   Cr    Cr6+3 0.611880 0.678590 0.246990 0.992947
Cr5   Cr    Cr6+3 0.114310 0.492860 0.254690 0.992976
Cr6   Cr    Cr6+3 0.385690 0.992860 0.745310 0.992177
Cr7   Cr    Cr6+3 0.614310 0.992860 0.254690 0.992975
Cr8   Cr    Cr6+3 0.729880 0.332270 0.748190 0.991623
Cr9   Cr    Cr6+3 0.270120 0.332270 0.251810 0.992341
Cr10  Cr    Cr6+3 0.229880 0.832270 0.748190 0.991624
Cr11  Cr    Cr6+3 0.770120 0.832270 0.251810 0.992343
Cr12  Cr    Cr6+3 0.888120 0.178590 0.753010 0.992191
H1    H     H_    0.638113 0.096498 0.449858 0.131356
H2    H     H_    0.190763 0.908770 0.529921 0.124874
H3    H     H_    0.466261 0.044614 0.941108 0.133043
H4    H     H_    0.961981 0.524566 0.059688 0.113178
H5    H     H_    0.053570 0.512359 0.935268 0.116364
H6    H     H_    0.461981 0.024566 0.059688 0.113177
H7    H     H_    0.553571 0.012358 0.935268 0.116364
H8    H     H_    0.615434 0.781408 0.043671 0.111070
H9    H     H_    0.391933 0.853492 0.959811 0.110781
H10   H     H_    0.115435 0.281411 0.043670 0.111069
H11   H     H_    0.891933 0.353493 0.959811 0.110780
H12   H     H_    0.600247 0.819501 0.920069 0.102267
H13   H     H_    0.309247 0.409007 0.469707 0.125131
H14   H     H_    0.401868 0.850792 0.081346 0.104930
H15   H     H_    0.100246 0.319500 0.920068 0.102267
H16   H     H_    0.901868 0.350790 0.081347 0.104930
H17   H     H_    0.938853 0.206656 0.076887 0.110413
H18   H     H_    0.047239 0.189491 0.921123 0.115326
H19   H     H_    0.438852 0.706657 0.076888 0.110413
H20   H     H_    0.547240 0.689492 0.921122 0.115325
H21   H     H_    0.923149 0.204968 0.954602 0.132619
H22   H     H_    0.047995 0.178823 0.040796 0.122828
H23   H     H_    0.423150 0.704967 0.954602 0.132620
H24   H     H_    0.690764 0.408773 0.529919 0.124874
H25   H     H_    0.547993 0.678822 0.040795 0.122827
H26   H     H_    0.648366 0.101105 0.571944 0.106333
H27   H     H_    0.351591 0.100876 0.428082 0.106508
H28   H     H_    0.148368 0.601096 0.571943 0.106336
H29   H     H_    0.851589 0.600927 0.428073 0.106518
H30   H     H_    0.722392 0.868433 0.463240 0.109720
H31   H     H_    0.277649 0.868302 0.536195 0.109582
H32   H     H_    0.222391 0.368425 0.463243 0.109724
H33   H     H_    0.777649 0.368297 0.536197 0.109582
H34   H     H_    0.705083 0.923801 0.584113 0.103964
H35   H     H_    0.795701 0.909873 0.588766 0.120023
H36   H     H_    0.294827 0.923746 0.415462 0.104098
H37   H     H_    0.205087 0.423797 0.584118 0.103964
H38   H     H_    0.794838 0.423760 0.415466 0.104104
H39   H     H_    0.855230 0.090366 0.421756 0.122850
H40   H     H_    0.144765 0.090101 0.578288 0.122712
H41   H     H_    0.355231 0.590346 0.421760 0.122854
H42   H     H_    0.644765 0.590102 0.578290 0.122713
H43   H     H_    0.804414 0.221329 0.427809 0.104352
H44   H     H_    0.195572 0.221083 0.572605 0.104137
H45   H     H_    0.304418 0.721315 0.427805 0.104348
H46   H     H_    0.204214 0.909913 0.410853 0.120376
H47   H     H_    0.695572 0.721084 0.572604 0.104138
H48   H     H_    0.842187 0.219391 0.548308 0.113307
H49   H     H_    0.157822 0.219438 0.452121 0.113027
H50   H     H_    0.342180 0.719392 0.548305 0.113305
H51   H     H_    0.657817 0.719432 0.452122 0.113032
H52   H     H_    0.295704 0.409877 0.588768 0.120027
H53   H     H_    0.704225 0.409908 0.410850 0.120373
H54   H     H_    0.046176 0.149957 0.441871 0.130503
H55   H     H_    0.953889 0.149857 0.557700 0.130216
H56   H     H_    0.546173 0.649956 0.441869 0.130505
H57   H     H_    0.361864 0.096433 0.550165 0.131207
H58   H     H_    0.453891 0.649855 0.557700 0.130214
H59   H     H_    0.959061 0.161127 0.434180 0.106833
H60   H     H_    0.041004 0.161045 0.565416 0.106655
H61   H     H_    0.459059 0.661129 0.434180 0.106832
H62   H     H_    0.541005 0.661048 0.565413 0.106655
H63   H     H_    0.616637 0.891606 0.456040 0.112333
H64   H     H_    0.383365 0.891458 0.544042 0.112430
H65   H     H_    0.116637 0.391604 0.456041 0.112331
H66   H     H_    0.883365 0.391458 0.544041 0.112428
H67   H     H_    0.600360 0.835013 0.576854 0.103812
H68   H     H_    0.138114 0.596498 0.449858 0.131355
H69   H     H_    0.399673 0.835112 0.423067 0.104059
H70   H     H_    0.100359 0.335012 0.576857 0.103815
H71   H     H_    0.899673 0.335110 0.423068 0.104059
H72   H     H_    0.938369 0.477856 0.417559 0.121536
H73   H     H_    0.061671 0.477736 0.582769 0.121548
H74   H     H_    0.438371 0.977856 0.417559 0.121534
H75   H     H_    0.561672 0.977737 0.582768 0.121548
H76   H     H_    0.947709 0.500185 0.535950 0.129615
H77   H     H_    0.052291 0.500329 0.464419 0.129238
H78   H     H_    0.447706 0.000187 0.535951 0.129613
H79   H     H_    0.861863 0.596414 0.550158 0.131209
H80   H     H_    0.552290 0.000330 0.464418 0.129238
H81   H     H_    0.820499 0.918983 0.060396 0.138402
H82   H     H_    0.166385 0.939196 0.936426 0.138040
H83   H     H_    0.320496 0.418982 0.060395 0.138403
H84   H     H_    0.666385 0.439196 0.936426 0.138040
H85   H     H_    0.687847 0.221200 0.440251 0.106733
H86   H     H_    0.312088 0.221037 0.560015 0.106753
H87   H     H_    0.187851 0.721196 0.440253 0.106736
H88   H     H_    0.812098 0.721031 0.560027 0.106748
H89   H     H_    0.858676 0.056376 0.066493 0.114447
H90   H     H_    0.863751 0.067431 0.540549 0.126197
H91   H     H_    0.139450 0.086752 0.928250 0.115197
H92   H     H_    0.358675 0.556372 0.066494 0.114448
H93   H     H_    0.639450 0.586752 0.928249 0.115197
H94   H     H_    0.868137 0.041729 0.949107 0.133708
H95   H     H_    0.128478 0.070421 0.048287 0.134766
H96   H     H_    0.368137 0.541731 0.949108 0.133708
H97   H     H_    0.628477 0.570423 0.048287 0.134766
H98   H     H_    0.807778 0.927859 0.940356 0.118200
H99   H     H_    0.177638 0.944459 0.053708 0.114124
H100  H     H_    0.307778 0.427860 0.940356 0.118200
H101  H     H_    0.136221 0.067501 0.459447 0.126212
H102  H     H_    0.677638 0.444460 0.053708 0.114125
H103  H     H_    0.661359 0.948391 0.046494 0.110515
H104  H     H_    0.299563 0.922626 0.953926 0.110554
H105  H     H_    0.161360 0.448392 0.046495 0.110516
H106  H     H_    0.799563 0.422626 0.953927 0.110553
H107  H     H_    0.688753 0.956108 0.923029 0.102593
H108  H     H_    0.294191 0.940244 0.076635 0.106334
H109  H     H_    0.188752 0.456110 0.923029 0.102593
H110  H     H_    0.794191 0.440246 0.076635 0.106334
H111  H     H_    0.711027 0.250216 0.083853 0.112378
H112  H     H_    0.363752 0.567437 0.540554 0.126201
H113  H     H_    0.303638 0.238765 0.915556 0.114991
H114  H     H_    0.211029 0.750216 0.083854 0.112379
H115  H     H_    0.803639 0.738766 0.915557 0.114991
H116  H     H_    0.801275 0.233558 0.090814 0.103731
H117  H     H_    0.212463 0.252932 0.913169 0.102128
H118  H     H_    0.301276 0.733555 0.090814 0.103732
H119  H     H_    0.712463 0.752933 0.913168 0.102128
H120  H     H_    0.811156 0.249582 0.971599 0.111450
H121  H     H_    0.221936 0.295738 0.036589 0.109247
H122  H     H_    0.311156 0.749583 0.971599 0.111450
H123  H     H_    0.636220 0.567491 0.459448 0.126215
H124  H     H_    0.721934 0.795739 0.036589 0.109247
H125  H     H_    0.721644 0.279363 0.961568 0.125017
H126  H     H_    0.307381 0.247043 0.035701 0.118247
H127  H     H_    0.221644 0.779363 0.961569 0.125017
H128  H     H_    0.807380 0.747046 0.035702 0.118249
H129  H     H_    0.643469 0.101098 0.045246 0.120038
H130  H     H_    0.357478 0.045081 0.950422 0.128677
H131  H     H_    0.143469 0.601096 0.045247 0.120039
H132  H     H_    0.857479 0.545080 0.950422 0.128676
H133  H     H_    0.686925 0.237422 0.562348 0.138255
H134  H     H_    0.809249 0.909028 0.469704 0.125138
H135  H     H_    0.313151 0.237247 0.437915 0.137718
H136  H     H_    0.186923 0.737414 0.562349 0.138256
H137  H     H_    0.813117 0.737261 0.437933 0.137726
H138  H     H_    0.650943 0.101167 0.925309 0.115543
H139  H     H_    0.347742 0.067779 0.073015 0.110418
H140  H     H_    0.150943 0.601169 0.925309 0.115543
H141  H     H_    0.847741 0.567782 0.073015 0.110419
H142  H     H_    0.049274 0.536156 0.056826 0.133949
H143  H     H_    0.966261 0.544614 0.941108 0.133043
H144  H     H_    0.549274 0.036156 0.056826 0.133949
O1    O     O_R   0.957210 0.449410 0.665480 -0.533726
O2    O     O_R   0.167480 0.095300 0.164000 -0.533743
O3    O     O_R   0.332520 0.595300 0.836000 -0.533928
O4    O     O_R   0.667480 0.595300 0.164000 -0.533742
O5    O     O_R   0.946380 0.253940 0.826940 -0.513049
O6    O     O_R   0.053620 0.253940 0.173060 -0.512928
O7    O     O_R   0.446380 0.753940 0.826940 -0.513049
O8    O     O_R   0.553620 0.753940 0.173060 -0.512928
O9    O     O_3   0.834560 0.334570 0.748840 -0.269442
O10   O     O_3   0.165440 0.334570 0.251160 -0.272426
O11   O     O_3   0.334560 0.834570 0.748840 -0.269442
O12   O     O_R   0.042790 0.449410 0.334520 -0.533117
O13   O     O_3   0.665440 0.834570 0.251160 -0.272425
O14   O     O_R   0.820730 0.541240 0.668250 -0.515404
O15   O     O_R   0.179270 0.541240 0.331750 -0.514848
O16   O     O_R   0.320730 0.041240 0.668250 -0.515404
O17   O     O_R   0.679270 0.041240 0.331750 -0.514847
O18   O     O_R   0.714240 0.455060 0.663710 -0.533198
O19   O     O_R   0.285760 0.455060 0.336290 -0.532577
O20   O     O_R   0.214240 0.955060 0.663710 -0.533197
O21   O     O_R   0.785760 0.955060 0.336290 -0.532576
O22   O     O_R   0.736780 0.204870 0.675910 -0.515511
O23   O     O_R   0.457210 0.949410 0.665480 -0.533726
O24   O     O_R   0.263220 0.204870 0.324090 -0.515107
O25   O     O_R   0.236780 0.704870 0.675910 -0.515511
O26   O     O_R   0.763220 0.704870 0.324090 -0.515104
O27   O     O_R   0.833070 0.087590 0.673490 -0.530198
O28   O     O_R   0.166930 0.087590 0.326510 -0.529964
O29   O     O_R   0.333070 0.587590 0.673490 -0.530200
O30   O     O_R   0.666930 0.587590 0.326510 -0.529960
O31   O     O_R   0.946890 0.246800 0.676300 -0.512776
O32   O     O_R   0.053110 0.246800 0.323700 -0.512371
O33   O     O_R   0.446890 0.746800 0.676300 -0.512775
O34   O     O_R   0.542790 0.949410 0.334520 -0.533118
O35   O     O_R   0.553110 0.746800 0.323700 -0.512372
O36   O     O_R   0.956650 0.457120 0.827980 -0.531636
O37   O     O_R   0.043350 0.457120 0.172020 -0.532002
O38   O     O_R   0.456650 0.957120 0.827980 -0.531636
O39   O     O_R   0.543350 0.957120 0.172020 -0.532002
O40   O     O_R   0.820220 0.548390 0.818890 -0.509641
O41   O     O_R   0.179780 0.548390 0.181110 -0.510145
O42   O     O_R   0.320220 0.048390 0.818890 -0.509641
O43   O     O_R   0.679780 0.048390 0.181110 -0.510146
O44   O     O_R   0.713680 0.462770 0.826210 -0.532715
O45   O     O_R   0.736260 0.212010 0.826560 -0.510070
O46   O     O_R   0.286320 0.462770 0.173790 -0.533165
O47   O     O_R   0.213680 0.962770 0.826210 -0.532715
O48   O     O_R   0.786320 0.962770 0.173790 -0.533165
O49   O     O_R   0.263740 0.212010 0.173440 -0.510434
O50   O     O_R   0.236260 0.712010 0.826560 -0.510070
O51   O     O_R   0.763740 0.712010 0.173440 -0.510433
O52   O     O_R   0.832520 0.095300 0.836000 -0.533929

loop_
_geom_bond_atom_site_label_1
_geom_bond_atom_site_label_2
_ccdc_geom_bond_type
C70   H129  S    
C73   C82   S    
Cr11  O26   S    
Cr6   O38   S    
C76   H118  S    
C21   C110  S    
C88   H45   S    
Cr7   O13   S    
C40   H55   S    
C57   H89   S    
Cr8   O18   S    
C48   H71   S    
C6    C85   S    
C1    O18   A    
C98   H6    S    
Cr2   O28   S    
C9    C114  S    
Cr1   O1    S    
C94   H122  S    
C59   H83   S    
C45   C48   S    
Cr10  O20   S    
C74   C92   S    
C41   H61   S    
C18   H27   S    
C76   C94   S    
C14   H57   S    
C2    C22   S    
C3    O43   A    
C97   C115  S    
C64   O30   A    
C73   H132  S    
C25   C34   S    
Cr4   O8    S    
Cr12  O5    S    
C29   C64   S    
C67   H99   S    
C37   H112  S    
C96   C114  S    
C11   O8    A    
C84   C93   S    
C112  O23   A    
C27   C31   S    
C28   C32   S    
C103  H25   S    
C35   C66   S    
C118  O44   A    
C119  O41   A    
C13   C33   S    
C39   H59   S    
C78   C82   S    
C40   H60   S    
C85   C90   S    
C119  O46   A    
C43   H65   S    
C66   C110  S    
C97   H143  S    
C102  H21   S    
C73   C91   S    
C33   O19   A    
C98   H144  S    
C65   H98   S    
C74   C79   S    
Cr10  O25   S    
C82   C118  S    
Cr12  O31   S    
C108  H12   S    
C75   C93   S    
C104  C117  S    
C53   C109  S    
C107  H14   S    
C72   H131  S    
C5    O49   A    
C70   C79   S    
C58   H91   S    
C68   H96   S    
C81   C119  S    
C61   O27   A    
C106  C115  S    
C86   C91   S    
C103  C116  S    
C36   H101  S    
C99   H42   S    
Cr1   O36   S    
C49   C53   S    
Cr3   O3    S    
C70   H103  S    
C2    C14   S    
C86   C95   S    
C88   H41   S    
C28   C63   S    
C58   C67   S    
C48   C52   S    
C44   O20   A    
C104  H9    S    
C14   H86   S    
C100  C117  S    
C20   H137  S    
C104  C107  S    
Cr7   O39   S    
C112  O33   A    
C106  H18   S    
C96   H142  S    
Cr4   O30   S    
C12   C110  S    
C92   H125  S    
Cr4   O4    S    
C113  O35   A    
C19   H28   S    
C38   C99   S    
C27   C62   S    
C30   H35   S    
C51   H75   S    
C43   C52   S    
C7    C86   S    
Cr9   O19   S    
C4    O52   A    
C72   C90   S    
C13   C23   S    
Cr4   O35   S    
C6    O50   A    
C3    O48   A    
C2    C44   S    
Cr12  O27   S    
C29   C38   S    
C1    O14   A    
C111  O12   A    
Cr11  O48   S    
Cr7   O17   S    
C107  H19   S    
C71   H130  S    
C45   C53   S    
C108  H20   S    
C25   H24   S    
Cr2   O32   S    
C68   C85   S    
C89   H108  S    
C43   H77   S    
C70   C87   S    
Cr2   O2    S    
C97   H5    S    
C47   C50   S    
C9    O37   A    
C92   H120  S    
C95   H128  S    
C87   H107  S    
Cr11  O13   S    
C31   H46   S    
C66   H39   S    
C59   H92   S    
C39   C40   S    
C5    C84   S    
Cr6   O23   S    
C105  H16   S    
C46   C51   S    
C106  H15   S    
C100  H7    S    
C69   H97   S    
C74   H116  S    
C101  H10   S    
C26   C35   S    
Cr12  O9    S    
C67   H95   S    
C8    O36   A    
C19   C28   S    
Cr5   O15   S    
C21   H134  S    
Cr6   O16   S    
C50   H74   S    
C57   H81   S    
C26   C30   S    
C45   H76   S    
C7    O51   A    
C4    O45   A    
C15   H87   S    
C23   H32   S    
C101  C106  S    
C118  O40   A    
C21   H30   S    
C72   H105  S    
C108  C117  S    
C16   H79   S    
C5    O2    A    
C109  O1    A    
C100  H3    S    
C36   H49   S    
C77   H44   S    
C109  O31   A    
C62   O28   A    
C60   H84   S    
C73   H106  S    
C10   C117  S    
C103  H8    S    
C15   H68   S    
C101  H22   S    
C9    O6    A    
C16   H88   S    
C104  H23   S    
C107  C116  S    
C55   O17   A    
Cr12  O52   S    
C1    C24   S    
C102  H11   S    
C95   H124  S    
C68   H100  S    
C47   C56   S    
C83   C87   S    
C32   H37   S    
C78   H119  S    
C41   C42   S    
C37   C88   S    
C96   H4    S    
Cr1   O40   S    
C15   C19   S    
C50   C54   S    
Cr1   O14   S    
C26   C61   S    
Cr8   O9    S    
C36   C77   S    
C87   H138  S    
C18   H135  S    
C93   H121  S    
Cr8   O45   S    
C102  C105  S    
C14   C18   S    
Cr5   O41   S    
C102  C115  S    
C42   C56   S    
Cr10  O50   S    
C39   H54   S    
C55   O21   A    
Cr7   O43   S    
Cr8   O44   S    
C12   C17   S    
C72   C81   S    
C58   C80   S    
C38   H123  S    
C101  C114  S    
C6    O3    A    
C90   H140  S    
C64   O26   A    
C47   H64   S    
Cr4   O13   S    
C35   H90   S    
C25   H33   S    
C29   C34   S    
C41   H56   S    
C10   O7    A    
C34   H53   S    
C99   H47   S    
Cr11  O51   S    
C91   H110  S    
C78   C95   S    
C46   C54   S    
Cr3   O33   S    
Cr1   O9    S    
C11   C116  S    
Cr2   O6    S    
C3    C79   S    
Cr3   O11   S    
C74   H111  S    
C60   C69   S    
C10   O38   A    
C49   H73   S    
C98   C100  S    
C66   H43   S    
C7    O4    A    
C12   H85   S    
Cr10  O47   S    
C50   H69   S    
Cr7   O34   S    
C48   H72   S    
Cr5   O10   S    
Cr9   O49   S    
C59   C81   S    
C57   C65   S    
Cr10  O11   S    
C27   C36   S    
C21   C30   S    
C113  O34   A    
C23   C32   S    
C2    C77   S    
C4    C83   S    
C77   H40   S    
C37   H50   S    
C65   H94   S    
C93   H126  S    
C31   H36   S    
Cr11  O21   S    
C75   H117  S    
C80   C120  S    
C22   H31   S    
C24   C99   S    
C62   O24   A    
C57   C79   S    
C63   O29   A    
C46   H63   S    
C83   C92   S    
C23   H13   S    
C22   H2    S    
C17   C26   S    
C28   C37   S    
Cr9   O10   S    
C51   C56   S    
C46   H80   S    
C65   C83   S    
C120  O47   A    
C54   C113  S    
C60   H93   S    
C42   H62   S    
C42   H58   S    
C17   H133  S    
C8    C115  S    
C60   C82   S    
C103  C108  S    
C120  O42   A    
C75   C80   S    
C75   H113  S    
C16   C20   S    
C39   C52   S    
Cr5   O12   S    
C67   C84   S    
C16   C24   S    
Cr6   O11   S    
C71   C80   S    
C33   O15   A    
C20   C29   S    
C111  O32   A    
C22   C31   S    
C105  C114  S    
C91   H141  S    
C24   C25   S    
C30   H34   S    
Cr5   O37   S    
Cr6   O42   S    
C43   C49   S    
C52   C111  S    
C45   H66   S    
C38   H51   S    
C69   H102  S    
C59   C68   S    
C85   C94   S    
C98   C116  S    
C94   H127  S    
C71   C89   S    
C96   C97   S    
C78   H115  S    
C71   H104  S    
C17   H26   S    
C51   H67   S    
C63   O25   A    
C12   H1    S    
C13   C15   S    
C55   C110  S    
C47   H78   S    
C84   C89   S    
C58   H82   S    
C35   H48   S    
C49   H70   S    
C61   O22   A    
C44   O16   A    
C89   H139  S    
C32   H52   S    
C76   H114  S    
C18   C27   S    
C34   H38   S    
C76   C81   S    
Cr8   O22   S    
C105  H17   S    
Cr9   O24   S    
Cr3   O29   S    
Cr9   O46   S    
Cr2   O10   S    
Cr3   O7    S    
C8    O5    A    
C11   O39   A    
C20   H29   S    
C13   C88   S    
C41   C54   S    
C40   C53   S    
C90   H109  S    
C56   C112  S    
C69   C86   S    
C19   H136  S    
