data_mof_unit_60910.cif
_audit_creation_date              2012-10-26T19:12:47-0400
_audit_creation_method            fapswitch 2.2
_symmetry_space_group_name_H-M    P1
_symmetry_Int_Tables_number       1
_space_group_crystal_system       triclinic
_cell_length_a                    16.120726
_cell_length_b                    17.342518
_cell_length_c                    23.500977
_cell_angle_alpha                 91.148992
_cell_angle_beta                  93.971592
_cell_angle_gamma                 96.838611
_cell_volume                      6505.1946513

loop_
_atom_site_label
_atom_site_type_symbol
_atom_type_description
_atom_site_fract_x
_atom_site_fract_y
_atom_site_fract_z
_atom_type_partial_charge
C1    C     C_R   0.489314 0.350035 0.501064 0.518757
C2    C     C_R   0.467240 0.557321 0.701605 0.198623
C3    C     C_R   0.532275 0.445261 0.239242 -0.040031
C4    C     C_R   0.467725 0.554739 0.760758 -0.040031
C5    C     C_R   0.495225 0.502446 0.209337 0.176792
C6    C     C_R   0.504775 0.497553 0.790663 0.176792
C7    C     C_R   0.486439 0.265865 0.504547 -0.010254
C8    C     C_R   0.513561 0.734135 0.495453 -0.010254
C9    C     C_R   0.545890 0.230766 0.475482 -0.135262
C10   C     C_R   0.454108 0.769234 0.524517 -0.135264
C11   C     C_R   0.553829 0.151979 0.481378 0.277698
C12   C     C_R   0.510686 0.649965 0.498936 0.518759
C13   C     C_R   0.446171 0.848022 0.518620 0.277697
C14   C     C_R   0.499486 0.107607 0.515559 0.034519
C15   C     C_R   0.500516 0.892393 0.484441 0.034521
C16   C     C_R   0.499244 0.499951 0.391306 0.512297
C17   C     C_R   0.500755 0.500049 0.608694 0.512297
C18   C     C_R   0.438970 0.141752 0.543868 -0.082034
C19   C     C_R   0.561033 0.858248 0.456134 -0.082035
C20   C     C_R   0.432683 0.220952 0.539853 0.246975
C21   C     C_R   0.567319 0.779048 0.460149 0.246976
C22   C     C_2   0.506349 0.024512 0.522868 0.349324
C23   C     C_R   0.458489 0.559512 0.238373 0.349728
C24   C     C_2   0.493654 0.975489 0.477132 0.349326
C25   C     C_R   0.746320 0.454855 0.478070 0.020738
C26   C     C_R   0.253680 0.545144 0.521930 0.020738
C27   C     C_R   0.833218 0.459078 0.475752 -0.161987
C28   C     C_R   0.166782 0.540922 0.524248 -0.161987
C29   C     C_R   0.885745 0.521434 0.502891 -0.025044
C30   C     C_R   0.114255 0.478566 0.497109 -0.025044
C31   C     C_R   0.849166 0.578139 0.533242 0.309226
C32   C     C_R   0.150834 0.421861 0.466757 0.309226
C33   C     C_R   0.762011 0.570814 0.535341 0.460054
C34   C     C_R   0.541511 0.440487 0.761627 0.349728
C35   C     C_R   0.237989 0.429185 0.464659 0.460053
C36   C     C_2   0.977445 0.529892 0.496931 -0.135882
C37   C     C_2   0.022555 0.470108 0.503069 -0.135882
C38   C     C_R   0.557921 0.551358 0.883462 0.456369
C39   C     C_R   0.442079 0.448641 0.116538 0.456370
C40   C     C_R   0.450054 0.444214 0.876438 0.454227
C41   C     C_R   0.549946 0.555786 0.123562 0.454227
C42   C     C_R   0.450231 0.440864 0.936413 0.002799
C43   C     C_R   0.549769 0.559136 0.063587 0.002798
C44   C     C_R   0.501564 0.499062 0.969989 -0.127314
C45   C     C_R   0.461009 0.560326 0.298634 0.197375
C46   C     C_R   0.498436 0.500938 0.030011 -0.127314
C47   C     C_R   0.556450 0.555024 0.943481 0.035067
C48   C     C_R   0.443550 0.444976 0.056519 0.035067
C49   C     C_R   0.399097 0.382369 0.963473 0.240632
C50   C     C_R   0.600903 0.617630 0.036527 0.240632
C51   C     C_R   0.392765 0.386426 0.022969 0.304901
C52   C     C_R   0.607235 0.613573 0.977030 0.304901
C53   C     C_R   0.538991 0.439674 0.701365 0.197376
C54   C     C_R   0.497579 0.500914 0.328830 -0.026738
C55   C     C_R   0.502421 0.499086 0.671170 -0.026739
C56   C     C_R   0.532760 0.442679 0.298395 0.198623
Cu1   Cu    Cu3+1 0.415410 0.495980 0.497100 0.982390
Cu2   Cu    Cu3+1 0.584590 0.504020 0.502900 0.982391
H1    H     H_    0.141009 0.584709 0.548798 0.134316
H2    H     H_    0.647804 0.156929 0.433209 0.338537
H3    H     H_    0.706340 0.408095 0.455313 0.154645
H4    H     H_    0.293660 0.591905 0.544687 0.154645
H5    H     H_    0.322488 0.396532 0.418991 0.361712
H6    H     H_    0.677512 0.603468 0.581009 0.361712
H7    H     H_    0.991035 0.412842 0.511106 0.152830
H8    H     H_    0.008965 0.587158 0.488894 0.152830
H9    H     H_    0.954761 0.631270 0.568445 0.323777
H10   H     H_    0.045239 0.368730 0.431555 0.323777
H11   H     H_    0.303070 0.298827 0.020944 0.386793
H12   H     H_    0.858991 0.415291 0.451202 0.134316
H13   H     H_    0.696931 0.701172 0.979056 0.386793
H14   H     H_    0.396947 0.649967 0.231426 0.385939
H15   H     H_    0.603053 0.350033 0.768573 0.385940
H16   H     H_    0.451287 0.625518 0.366365 0.337983
H17   H     H_    0.548713 0.374482 0.633635 0.337984
H18   H     H_    0.550383 0.376655 0.363646 0.333750
H19   H     H_    0.449617 0.623345 0.636354 0.333751
H20   H     H_    0.559885 0.401394 0.215954 0.181525
H21   H     H_    0.440115 0.598606 0.784046 0.181525
H22   H     H_    0.606160 0.692291 0.420079 0.345703
H23   H     H_    0.587627 0.265382 0.449035 0.121831
H24   H     H_    0.393842 0.307710 0.579922 0.345702
H25   H     H_    0.464564 0.958568 0.396007 0.334161
H26   H     H_    0.535439 0.041432 0.603992 0.334161
H27   H     H_    0.412370 0.734618 0.550962 0.121832
H28   H     H_    0.398383 0.296983 0.910174 0.371950
H29   H     H_    0.601617 0.703017 0.089826 0.371949
H30   H     H_    0.397972 0.106922 0.570635 0.183811
H31   H     H_    0.602033 0.893078 0.429367 0.183810
H32   H     H_    0.352193 0.843071 0.566786 0.338537
N1    N     N_R   0.504617 0.497419 0.851753 -0.389876
N2    N     N_R   0.495383 0.502580 0.148247 -0.389876
N3    N     N_R   0.711660 0.510070 0.507250 -0.274776
N4    N     N_R   0.288340 0.489930 0.492750 -0.274776
O1    O     O_R   0.420280 0.382610 0.497280 -0.481150
O2    O     O_2   0.388445 0.398619 0.143492 -0.377539
O3    O     O_2   0.394358 0.396486 0.842623 -0.416369
O4    O     O_2   0.605642 0.603514 0.157377 -0.416369
O5    O     O_3   0.357090 0.318863 0.933264 -0.639267
O6    O     O_3   0.642910 0.681137 0.066736 -0.639266
O7    O     O_3   0.384939 0.882407 0.544563 -0.640742
O8    O     O_3   0.615060 0.117594 0.455434 -0.640741
O9    O     O_3   0.270109 0.373010 0.433704 -0.595374
O10   O     O_3   0.729891 0.626989 0.566296 -0.595372
O11   O     O_3   0.895469 0.640542 0.562734 -0.616887
O12   O     O_R   0.579720 0.617390 0.502720 -0.481147
O13   O     O_3   0.104531 0.359458 0.437266 -0.616887
O14   O     O_3   0.340053 0.331648 0.049525 -0.593107
O15   O     O_3   0.659948 0.668352 0.950475 -0.593107
O16   O     O_3   0.422111 0.614181 0.206232 -0.631267
O17   O     O_3   0.577889 0.385819 0.793768 -0.631266
O18   O     O_3   0.428631 0.620207 0.326119 -0.684651
O19   O     O_3   0.571369 0.379793 0.673881 -0.684649
O20   O     O_3   0.567271 0.381715 0.324127 -0.665436
O21   O     O_3   0.432729 0.618285 0.675873 -0.665436
O22   O     O_3   0.623760 0.748395 0.427202 -0.634492
O23   O     O_R   0.563150 0.389410 0.502170 -0.524700
O24   O     O_3   0.376244 0.251605 0.572801 -0.634491
O25   O     O_3   0.474143 0.003248 0.423645 -0.659475
O26   O     O_3   0.525859 0.996752 0.576355 -0.659478
O27   O     O_R   0.436850 0.610590 0.497830 -0.524701
O28   O     O_R   0.428550 0.496580 0.415430 -0.513472
O29   O     O_R   0.571450 0.503420 0.584570 -0.513473
O30   O     O_R   0.571420 0.503370 0.420330 -0.494631
O31   O     O_R   0.428580 0.496630 0.579670 -0.494631
O32   O     O_2   0.611555 0.601381 0.856507 -0.377538

loop_
_geom_bond_atom_site_label_1
_geom_bond_atom_site_label_2
_ccdc_geom_bond_type
C26   N4    A    
C12   O12   A    
C10   H27   S    
C25   N3    A    
C23   C45   A    
C27   C29   A    
C33   O10   S    
C31   O11   S    
C14   C18   A    
C20   O24   S    
C45   O18   S    
C22   O26   S    
C29   C36   S    
Cu2   O29   S    
C36   C37   D    
C19   C21   A    
Cu2   N3    S    
C35   O9    S    
C2    C55   A    
H16   O18   S    
C11   C14   A    
C36   H8    S    
C35   N4    A    
C6    N1    S    
H6    O10   S    
C3    C56   A    
H25   O25   S    
C16   O28   A    
Cu1   O28   S    
C15   C19   A    
C17   O29   A    
C48   C51   A    
C12   O27   A    
H22   O22   S    
C44   C46   A    
C51   O14   S    
C49   C51   A    
C32   O13   S    
C37   H7    S    
H18   O20   S    
C31   C33   A    
H17   O19   S    
H10   O13   S    
C8    C12   S    
C17   C55   S    
C44   C47   A    
H26   O26   S    
C40   C42   A    
C34   O17   S    
C41   C43   A    
C42   C44   A    
C21   O22   S    
H2    O8    S    
C26   C28   A    
C38   O32   S    
H11   O14   S    
C53   O19   S    
H15   O17   S    
H14   O16   S    
C53   C55   A    
C54   C56   A    
C32   C35   A    
C4    H21   S    
H5    O9    S    
C40   O3    S    
H9    O11   S    
C1    O23   A    
C38   N1    A    
Cu2   O23   S    
C18   H30   S    
C6    C34   A    
C30   C37   S    
Cu2   O12   S    
C2    C4    A    
H32   O7    S    
C19   H31   S    
C49   O5    S    
C2    O21   S    
C50   C52   A    
C5    C23   A    
C1    O1    A    
C8    C21   A    
C25   H3    S    
H28   O5    S    
C9    C11   A    
C38   C47   A    
C27   H12   S    
C4    C6    A    
C15   C24   S    
C45   C54   A    
Cu1   N4    S    
C13   C15   A    
C22   C24   D    
H24   O24   S    
C13   O7    S    
C39   N2    A    
H29   O6    S    
C28   H1    S    
C7    C9    A    
C23   O16   S    
C24   O25   S    
C1    C7    S    
Cu2   O30   S    
C3    C5    A    
C10   C13   A    
C33   N3    A    
C43   C50   A    
C47   C52   A    
C25   C27   A    
C50   O6    S    
C14   C22   S    
C28   C30   A    
C16   O30   A    
C29   C31   A    
Cu1   O31   S    
C30   C32   A    
C17   O31   A    
Cu1   Cu2   S    
C52   O15   S    
H13   O15   S    
C11   O8    S    
C18   C20   A    
C40   N1    A    
C26   H4    S    
C43   C46   A    
C16   C54   S    
C39   O2    S    
C5    N2    S    
C42   C49   A    
Cu1   O27   S    
C46   C48   A    
C41   N2    A    
C34   C53   A    
C8    C10   A    
C7    C20   A    
Cu1   O1    S    
C56   O20   S    
C41   O4    S    
H19   O21   S    
C3    H20   S    
C9    H23   S    
C39   C48   A    
