data_mof_unit_23166.cif
_audit_creation_date              2012-12-10T17:26:23-0500
_audit_creation_method            fapswitch 2.2
_symmetry_space_group_name_H-M    P1
_symmetry_Int_Tables_number       1
_space_group_crystal_system       triclinic
_cell_length_a                    10.194166
_cell_length_b                    10.620156
_cell_length_c                    27.457912
_cell_angle_alpha                 91.865002
_cell_angle_beta                  80.269991
_cell_angle_gamma                 94.067545
_cell_volume                      2921.91229588

loop_
_atom_site_label
_atom_site_type_symbol
_atom_type_description
_atom_site_fract_x
_atom_site_fract_y
_atom_site_fract_z
_atom_type_partial_charge
C1    C     C_R   0.554000 0.733228 0.492474 0.813977
C2    C     C_R   0.533458 0.643452 0.124214 -0.066431
C3    C     C_R   0.497479 0.522060 0.647458 -0.290606
C4    C     C_R   0.503228 0.506299 0.352998 -0.230578
C5    C     C_R   0.485993 0.677323 0.027237 0.050317
C6    C     C_R   0.319804 0.497651 0.985885 0.071172
C7    C     C_R   0.311429 0.505680 0.038112 -0.097524
C8    C     C_R   0.459785 0.694551 0.979116 -0.115108
C9    C     C_R   0.406508 0.586891 0.057619 0.024483
C10   C     C_R   0.391532 0.595027 0.956663 0.025753
C11   C     C_R   0.592447 0.744736 0.044800 -0.233500
C12   C     C_R   0.446032 0.265579 0.501453 0.843678
C13   C     C_R   0.266639 0.392105 0.961851 -0.237719
C14   C     C_R   0.618270 0.727967 0.092169 0.191090
C15   C     C_R   0.275996 0.384419 0.910776 0.201147
C16   C     C_R   0.499018 0.501568 0.594313 0.922242
C17   C     C_R   0.500375 0.497800 0.405944 1.034596
C18   C     C_R   0.499336 0.806971 0.952492 0.405265
C19   C     C_R   0.214610 0.434407 0.071320 0.369026
C20   C     C_2   0.581042 0.865861 0.478303 0.243118
C21   C     C_2   0.420429 0.128897 0.497111 0.225176
C22   C     C_2   0.486108 0.927661 0.461705 0.165290
C23   C     C_R   0.400065 0.590752 0.904798 -0.130155
C24   C     C_2   0.498429 0.064671 0.461299 0.085909
C25   C     C_2   0.926669 0.508173 0.504846 0.029415
C26   C     C_2   0.076095 0.497339 0.492854 0.053051
C27   C     C_R   0.494875 0.674935 0.824740 0.583153
C28   C     C_R   0.346895 0.500031 0.189586 0.582492
C29   C     C_R   0.362521 0.479527 0.829524 0.556411
C30   C     C_R   0.556230 0.618541 0.171952 0.540650
C31   C     C_R   0.535285 0.455768 0.727317 -0.208489
C32   C     C_R   0.515691 0.639716 0.282649 -0.201169
C33   C     C_R   0.542516 0.432334 0.676490 0.416771
C34   C     C_R   0.423227 0.577221 0.107300 -0.127228
C35   C     C_R   0.535026 0.624944 0.331217 0.384718
C36   C     C_R   0.442306 0.631626 0.670508 0.425738
C37   C     C_R   0.465480 0.399325 0.325463 0.395759
C38   C     C_R   0.418183 0.643261 0.721724 -0.210917
C39   C     C_R   0.461661 0.414977 0.274847 -0.242762
C40   C     C_R   0.466774 0.557209 0.750141 0.162932
C41   C     C_R   0.481907 0.535067 0.253992 0.188693
C42   C     C_3   0.540726 0.802937 0.626549 0.014706
C43   C     C_3   0.623009 0.844812 0.667566 -0.339480
C44   C     C_3   0.738732 0.939152 0.649114 -0.976023
C45   C     C_R   0.468825 0.691663 0.876409 -0.161911
C46   C     C_3   0.414476 0.176739 0.321480 0.120577
C47   C     C_3   0.273082 0.150966 0.309953 -0.386491
C48   C     C_3   0.260452 0.028255 0.280115 -0.887239
C49   C     C_3   0.212511 0.103641 0.547428 0.100182
C50   C     C_3   0.196846 0.179152 0.596329 -0.388096
C51   C     C_3   0.057413 0.226009 0.610910 -0.857591
C52   C     C_3   0.753057 0.924094 0.520509 0.085181
C53   C     C_3   0.879861 0.010158 0.518189 -0.393477
C54   C     C_3   0.849579 0.148804 0.520835 -0.672544
C55   C     C_3   0.136713 0.697215 0.579784 0.199052
C56   C     C_R   0.331316 0.499892 0.139689 -0.146722
C57   C     C_3   0.075413 0.722373 0.633631 -0.346616
C58   C     C_3   0.101454 0.859807 0.648795 -0.936963
C59   C     C_3   0.904548 0.416983 0.398961 0.179773
C60   C     C_3   0.000046 0.344957 0.361142 -0.450503
C61   C     C_3   0.994756 0.386747 0.308873 -0.809907
C62   C     C_3   0.694068 0.785406 0.341356 0.105113
C63   C     C_3   0.804175 0.714475 0.357879 -0.378645
C64   C     C_3   0.940976 0.783498 0.343052 -0.891873
C65   C     C_3   0.477717 0.227203 0.660760 0.049827
C66   C     C_3   0.464112 0.154089 0.708913 -0.333514
C67   C     C_R   0.508935 0.804125 0.900912 0.180207
C68   C     C_3   0.351174 0.051060 0.712447 -0.902157
C69   C     C_3   0.417529 0.961103 0.009206 0.096321
C70   C     C_3   0.316361 0.018307 0.982377 -0.390576
C71   C     C_3   0.194916 0.056577 0.018999 -0.844466
C72   C     C_3   0.006041 0.452995 0.054012 0.105820
C73   C     C_3   0.892867 0.382008 0.032271 -0.306642
C74   C     C_3   0.775178 0.463533 0.033264 -0.906049
C75   C     C_R   0.226617 0.428122 0.121288 0.167101
C76   C     C_R   0.343989 0.483852 0.881408 -0.045095
H1    H     H_    0.118587 0.449420 0.459000 0.137378
H2    H     H_    0.602733 0.748758 0.597081 0.124698
H3    H     H_    0.558034 0.887063 0.699417 0.262301
H4    H     H_    0.665928 0.761634 0.680885 0.237068
H5    H     H_    0.791855 0.969576 0.680068 0.294539
H6    H     H_    0.702519 0.023805 0.634302 0.271742
H7    H     H_    0.809747 0.893385 0.620047 0.251082
H8    H     H_    0.433304 0.096241 0.343504 0.201799
H9    H     H_    0.492953 0.175409 0.287996 0.134250
H10   H     H_    0.201369 0.143752 0.345203 0.237769
H11   H     H_    0.246464 0.229550 0.288821 0.251411
H12   H     H_    0.887684 0.574247 0.533770 0.129666
H13   H     H_    0.329821 0.033801 0.244288 0.269554
H14   H     H_    0.156842 0.012141 0.272597 0.277548
H15   H     H_    0.283339 0.947117 0.301091 0.274793
H16   H     H_    0.144181 0.017817 0.552549 0.159531
H17   H     H_    0.181368 0.156788 0.517393 0.155345
H18   H     H_    0.217402 0.118687 0.625976 0.222837
H19   H     H_    0.269768 0.261976 0.593359 0.237765
H20   H     H_    0.049981 0.276355 0.647251 0.275758
H21   H     H_    0.980965 0.145616 0.614162 0.255611
H22   H     H_    0.037846 0.293007 0.583199 0.285529
H23   H     H_    0.368767 0.724035 0.739277 0.178707
H24   H     H_    0.777911 0.827974 0.528988 0.121407
H25   H     H_    0.676774 0.959631 0.550499 0.129154
H26   H     H_    0.928206 0.990231 0.549975 0.152489
H27   H     H_    0.950137 0.990179 0.483646 0.251387
H28   H     H_    0.788839 0.168358 0.492505 0.332322
H29   H     H_    0.944342 0.208372 0.513980 0.240015
H30   H     H_    0.793894 0.173572 0.557869 0.237083
H31   H     H_    0.098214 0.763458 0.555726 0.111199
H32   H     H_    0.246743 0.713053 0.575885 0.221022
H33   H     H_    0.965883 0.699193 0.638924 0.225549
H34   H     H_    0.436453 0.336932 0.251258 0.166365
H35   H     H_    0.119207 0.660811 0.657791 0.253751
H36   H     H_    0.209236 0.888102 0.639330 0.290549
H37   H     H_    0.069076 0.872437 0.689233 0.286238
H38   H     H_    0.044750 0.921440 0.629364 0.251169
H39   H     H_    0.941154 0.518415 0.398907 0.110896
H40   H     H_    0.806612 0.406145 0.387047 0.203855
H41   H     H_    0.103433 0.361922 0.368934 0.236634
H42   H     H_    0.971371 0.242115 0.363760 0.259026
H43   H     H_    0.890811 0.376931 0.301276 0.257503
H44   H     H_    0.055620 0.326192 0.281714 0.306856
H45   H     H_    0.524774 0.733255 0.267355 0.172703
H46   H     H_    0.033915 0.486664 0.304047 0.286502
H47   H     H_    0.698810 0.882970 0.356871 0.208522
H48   H     H_    0.712888 0.794583 0.300459 0.153817
H49   H     H_    0.783598 0.705310 0.398670 0.260099
H50   H     H_    0.805488 0.618429 0.340610 0.206401
H51   H     H_    0.964705 0.792559 0.302268 0.274035
H52   H     H_    0.018495 0.729487 0.355288 0.265696
H53   H     H_    0.943156 0.879015 0.360778 0.284075
H54   H     H_    0.496264 0.159688 0.628952 0.170884
H55   H     H_    0.381227 0.268376 0.658818 0.126592
H56   H     H_    0.575930 0.391222 0.749651 0.170218
H57   H     H_    0.559513 0.112048 0.711010 0.243963
H58   H     H_    0.440615 0.217839 0.741397 0.265713
H59   H     H_    0.253996 0.093402 0.713910 0.278728
H60   H     H_    0.347425 0.996504 0.746536 0.288079
H61   H     H_    0.367788 0.985923 0.680083 0.266654
H62   H     H_    0.454628 0.035138 0.033986 0.180282
H63   H     H_    0.366779 0.885083 0.033800 0.143162
H64   H     H_    0.364518 0.102635 0.961969 0.258512
H65   H     H_    0.282197 0.948393 0.955438 0.238194
H66   H     H_    0.145319 0.973211 0.039684 0.273632
H67   H     H_    0.661299 0.806969 0.020864 0.218140
H68   H     H_    0.121944 0.095752 0.998816 0.286867
H69   H     H_    0.225357 0.129444 0.045591 0.284669
H70   H     H_    0.044433 0.535184 0.030235 0.142751
H71   H     H_    0.966534 0.487792 0.092025 0.184980
H72   H     H_    0.930380 0.352720 0.993456 0.238398
H73   H     H_    0.858319 0.295656 0.053888 0.253398
H74   H     H_    0.732837 0.487961 0.072056 0.275578
H75   H     H_    0.696285 0.410597 0.016055 0.272304
H76   H     H_    0.807228 0.551480 0.012453 0.271663
H77   H     H_    0.225038 0.309382 0.981884 0.219268
H78   H     H_    0.513895 0.888661 0.609505 0.169988
I1    I     I_    0.572002 0.979437 0.864607 -0.221643
I2    I     I_    0.089538 0.292887 0.163182 -0.291279
I3    I     I_    0.784993 0.843113 0.109768 -0.317881
I4    I     I_    0.188625 0.211777 0.884494 -0.297629
I5    I     I_    0.644300 0.145792 0.403640 -0.367493
I6    I     I_    0.303426 0.848274 0.440905 -0.389324
N1    N     N_R   0.441804 0.570611 0.802849 -0.332382
N2    N     N_R   0.461553 0.551407 0.203973 -0.329349
N3    N     N_2   0.842700 0.448890 0.480020 0.050478
N4    N     N_2   0.157300 0.551110 0.519980 0.046992
O1    O     O_R   0.431060 0.692470 0.504020 -0.611453
O2    O     O_2   0.247556 0.452950 0.224068 -0.568557
O3    O     O_2   0.672620 0.657744 0.186264 -0.536201
O4    O     O_2   0.302554 0.386031 0.805267 -0.533846
O5    O     O_3   0.418611 0.733114 0.643853 -0.651272
O6    O     O_3   0.423788 0.287754 0.351167 -0.649476
O7    O     O_3   0.342761 0.061736 0.535653 -0.678126
O8    O     O_3   0.708613 0.924300 0.474713 -0.611421
O9    O     O_3   0.100027 0.572094 0.567187 -0.588551
O10   O     O_3   0.895542 0.364045 0.445866 -0.582985
O11   O     O_3   0.566219 0.728781 0.360124 -0.643449
O12   O     O_R   0.568940 0.307530 0.495980 -0.582440
O13   O     O_3   0.586989 0.319033 0.656178 -0.629785
O14   O     O_3   0.529562 0.921240 0.975687 -0.624393
O15   O     O_3   0.106573 0.369149 0.055613 -0.648462
O16   O     O_R   0.651120 0.659650 0.491200 -0.640012
O17   O     O_R   0.348880 0.340350 0.508800 -0.628783
O18   O     O_R   0.389980 0.516390 0.577660 -0.583170
O19   O     O_R   0.610020 0.483610 0.422340 -0.646306
O20   O     O_R   0.610040 0.483570 0.564830 -0.602636
O21   O     O_R   0.389960 0.516430 0.435170 -0.602788
O22   O     O_2   0.576539 0.758618 0.796294 -0.544809
Zn1   Zn    Zn3+2 0.353060 0.521910 0.508560 1.002437
Zn2   Zn    Zn3+2 0.646940 0.478090 0.491440 0.979260

loop_
_geom_bond_atom_site_label_1
_geom_bond_atom_site_label_2
_ccdc_geom_bond_type
C51   H21   S    
C66   C68   S    
C34   C56   A    
C23   C45   A    
C61   H43   S    
C73   C74   S    
C23   C76   A    
C44   H7    S    
C52   O8    S    
C62   H48   S    
C65   H54   S    
C28   C56   A    
C24   I5    S    
C28   N2    A    
C39   C41   A    
C29   C76   A    
C53   C54   S    
C70   H64   S    
C36   O5    S    
O1    Zn1   S    
C65   O13   S    
C58   H36   S    
C29   O4    S    
C54   H28   S    
C42   H78   S    
C53   H27   S    
C30   O3    S    
C5    C11   A    
C44   H6    S    
C71   H69   S    
C1    O16   A    
C16   O18   A    
C50   H19   S    
O21   Zn1   S    
C27   C45   A    
C3    C33   A    
C43   H3    S    
C31   C40   A    
C67   I1    S    
C26   N4    D    
C55   O9    S    
O16   Zn2   S    
C66   H58   S    
C75   I2    S    
C39   H34   S    
C57   H33   S    
C47   C48   S    
C17   O21   A    
C59   H40   S    
C64   H52   S    
C48   H15   S    
C45   C67   A    
C58   H37   S    
C32   C41   A    
C31   C33   A    
C60   H42   S    
C70   C71   S    
C28   O2    S    
C51   H20   S    
C12   O12   A    
C46   H9    S    
N4    Zn1   S    
C51   H22   S    
C15   C76   A    
C4    C35   A    
C59   C60   S    
C56   C75   A    
C48   H14   S    
C41   N2    S    
C61   H44   S    
C74   H76   S    
C68   H61   S    
C62   H47   S    
C65   H55   S    
O12   Zn2   S    
O17   Zn1   S    
C52   H25   S    
C26   H1    S    
C54   H30   S    
C73   H72   S    
C33   O13   S    
C32   C35   A    
C29   N1    A    
C60   H41   S    
C15   I4    S    
C44   H5    S    
C37   O6    S    
C49   O7    S    
C50   H18   S    
C14   I3    S    
C18   C67   A    
C21   O7    S    
C12   C21   S    
C52   H24   S    
C25   H12   S    
C8    C18   A    
O20   Zn2   S    
C55   H31   S    
C61   H46   S    
C69   H63   S    
C27   O22   S    
C47   H11   S    
C43   C44   S    
C47   H10   S    
C5    C9    A    
C31   H56   S    
C42   O5    S    
C69   O14   S    
C66   H57   S    
C17   O19   A    
C12   O17   A    
C13   C15   A    
C1    O1    A    
C53   H26   S    
C64   H51   S    
C62   C63   S    
C50   C51   S    
N4    O9    S    
C11   C14   A    
C4    C37   A    
C68   H60   S    
N3    Zn2   S    
C13   H77   S    
C63   H49   S    
C71   H66   S    
C46   H8    S    
C4    C17   S    
C8    C10   A    
C20   O8    S    
C20   C22   D    
C42   H2    S    
C7    C19   A    
C48   H13   S    
C55   C57   S    
C9    C34   A    
C22   C24   S    
C74   H75   S    
C42   C43   S    
C30   N2    A    
C49   H16   S    
C19   O15   S    
C52   C53   S    
C69   H62   S    
C7    C9    A    
C46   C47   S    
C70   H65   S    
C54   H29   S    
C73   H73   S    
C32   H45   S    
C68   H59   S    
C74   H74   S    
C38   H23   S    
C1    C20   S    
C6    C10   A    
C5    C8    A    
C16   O20   A    
C6    C7    A    
C10   C23   A    
C72   H71   S    
C55   H32   S    
C2    C30   A    
C35   O11   S    
C19   C75   A    
C25   C26   S    
C40   N1    S    
C37   C39   A    
O19   Zn2   S    
C27   N1    A    
C6    C13   A    
C38   C40   A    
C2    C34   A    
C57   C58   S    
C57   H35   S    
C59   O10   S    
C22   I6    S    
C3    C36   A    
C25   N3    D    
C72   C73   S    
C72   H70   S    
C62   O11   S    
C36   C38   A    
C43   H4    S    
O18   Zn1   S    
C65   C66   S    
C69   C70   S    
C2    C14   A    
C63   H50   S    
C63   C64   S    
C46   O6    S    
C64   H53   S    
C18   O14   S    
C59   H39   S    
C49   C50   S    
C21   C24   D    
C58   H38   S    
C60   C61   S    
C72   O15   S    
C49   H17   S    
N3    O10   S    
C11   H67   S    
C3    C16   S    
C71   H68   S    
