data_mof_unit_19637.cif
_audit_creation_date              2012-12-10T18:33:45-0500
_audit_creation_method            fapswitch 2.2
_symmetry_space_group_name_H-M    P1
_symmetry_Int_Tables_number       1
_space_group_crystal_system       triclinic
_cell_length_a                    10.524385
_cell_length_b                    14.939419
_cell_length_c                    15.326302
_cell_angle_alpha                 80.370484
_cell_angle_beta                  91.062451
_cell_angle_gamma                 103.461021
_cell_volume                      2309.98486977

loop_
_atom_site_label
_atom_site_type_symbol
_atom_type_description
_atom_site_fract_x
_atom_site_fract_y
_atom_site_fract_z
_atom_type_partial_charge
C1    C     C_R   0.480103 0.441102 0.662708 0.911419
C2    C     C_R   0.579847 0.474755 0.050934 0.089249
C3    C     C_R   0.527775 0.380167 0.086742 -0.195310
C4    C     C_R   0.682204 0.590403 0.926551 -0.201340
C5    C     C_R   0.475249 0.316370 0.032317 -0.175237
C6    C     C_R   0.717439 0.656756 0.981928 -0.170378
C7    C     C_R   0.709475 0.832324 0.641014 0.095433
C8    C     C_R   0.380633 0.184026 0.326482 0.091727
C9    C     C_R   0.662942 0.744823 0.616981 -0.080344
C10   C     C_R   0.378157 0.261430 0.365361 -0.072876
C11   C     C_R   0.531041 0.803834 0.505369 0.221597
C12   C     C_R   0.523605 0.559416 0.336962 0.914658
C13   C     C_R   0.466793 0.196346 0.496962 0.245678
C14   C     C_R   0.583465 0.896110 0.520726 -0.089719
C15   C     C_R   0.494789 0.124767 0.455760 -0.091412
C16   C     C_R   0.742179 0.501283 0.498402 0.923705
C17   C     C_R   0.257951 0.499467 0.499456 0.928193
C18   C     C_R   0.662874 0.909671 0.596377 0.025977
C19   C     C_R   0.452036 0.119297 0.367432 0.023758
C20   C     C_R   0.551732 0.974250 0.466345 0.071331
C21   C     C_R   0.558307 0.056276 0.500598 0.073943
C22   C     C_R   0.635781 0.069693 0.574709 -0.244418
C23   C     C_R   0.558261 0.457622 0.811131 -0.263127
C24   C     C_R   0.529098 0.977047 0.375598 -0.209669
C25   C     C_R   0.688530 0.999260 0.622457 0.211628
C26   C     C_R   0.483073 0.049297 0.325369 0.220798
C27   C     C_3   0.945548 0.458322 0.577745 0.124425
C28   C     C_3   0.054435 0.542289 0.417869 0.116117
C29   C     C_3   0.060891 0.545948 0.561941 -0.265008
C30   C     C_3   0.939222 0.455008 0.433533 -0.288234
C31   C     C_3   0.122674 0.498457 0.497589 -0.147260
C32   C     C_3   0.877457 0.502549 0.497930 -0.119966
C33   C     C_3   0.009062 0.412587 0.513184 0.215660
C34   C     C_R   0.540928 0.529097 0.187154 -0.274784
C35   C     C_3   0.990914 0.588188 0.482093 0.229170
C36   C     C_R   0.474243 0.404654 0.757727 -0.108032
C37   C     C_R   0.564634 0.595169 0.243311 -0.139527
C38   C     C_R   0.389720 0.289157 0.886956 0.140945
C39   C     C_R   0.698036 0.706190 0.125282 0.186008
C40   C     C_R   0.382670 0.323651 0.796112 0.192008
C41   C     C_R   0.642483 0.685610 0.211904 0.148961
C42   C     C_3   0.905773 0.246236 0.540545 -0.733913
C43   C     C_3   0.974457 0.728830 0.539150 -0.676945
C44   C     C_3   0.779119 0.766000 0.318917 -0.714412
C45   C     C_R   0.550230 0.434122 0.903260 0.073359
C46   C     C_3   0.173223 0.332642 0.733842 -0.676198
C47   C     C_3   0.351999 0.121741 0.926006 -0.670313
C48   C     C_3   0.914109 0.806853 0.095245 -0.695389
C49   C     C_R   0.601230 0.545634 0.104023 0.049149
C50   C     C_R   0.472514 0.345227 0.940934 0.063066
C51   C     C_R   0.674606 0.636492 0.070640 0.076291
C52   C     C_R   0.607764 0.499313 0.959073 0.096383
H1    H     H_    0.114233 0.582921 0.613615 0.188615
H2    H     H_    0.625423 0.519670 0.778822 0.171666
H3    H     H_    0.524182 0.354527 0.157144 0.164853
H4    H     H_    0.713873 0.613438 0.858424 0.166110
H5    H     H_    0.083642 0.306398 0.477857 0.263171
H6    H     H_    0.928922 0.176428 0.550896 0.258406
H7    H     H_    0.842059 0.251939 0.482164 0.235879
H8    H     H_    0.853292 0.252258 0.600444 0.277894
H9    H     H_    0.038429 0.724816 0.412866 0.263624
H10   H     H_    0.938403 0.793297 0.519260 0.243316
H11   H     H_    0.074395 0.747972 0.565512 0.254787
H12   H     H_    0.886313 0.417547 0.382020 0.184412
H13   H     H_    0.908517 0.681978 0.591939 0.254168
H14   H     H_    0.582025 0.767346 0.293829 0.264248
H15   H     H_    0.839755 0.838301 0.302850 0.246266
H16   H     H_    0.838912 0.716534 0.307448 0.244653
H17   H     H_    0.750371 0.752121 0.390126 0.262418
H18   H     H_    0.239158 0.212033 0.766311 0.280160
H19   H     H_    0.132058 0.336315 0.799072 0.251451
H20   H     H_    0.093797 0.295357 0.695513 0.280703
H21   H     H_    0.210485 0.404357 0.696841 0.218960
H22   H     H_    0.254680 0.205537 0.982331 0.254889
H23   H     H_    0.334846 0.315910 0.330865 0.168673
H24   H     H_    0.437505 0.124204 0.969882 0.258819
H25   H     H_    0.381750 0.116428 0.858246 0.263029
H26   H     H_    0.274917 0.058580 0.951432 0.256509
H27   H     H_    0.745693 0.850901 0.115614 0.269625
H28   H     H_    0.964573 0.877605 0.061507 0.256487
H29   H     H_    0.943387 0.754628 0.061055 0.249512
H30   H     H_    0.946329 0.797354 0.164839 0.251243
H31   H     H_    0.698534 0.685714 0.649575 0.165443
H32   H     H_    0.659399 0.137132 0.594977 0.187974
H33   H     H_    0.554276 0.924969 0.342215 0.179893
H34   H     H_    0.431360 0.245678 0.062973 0.199624
H35   H     H_    0.772238 0.725796 0.953091 0.207144
H36   H     H_    0.471717 0.463754 0.209048 0.179679
I1    I     I_    0.424553 0.171601 0.635113 -0.317937
I2    I     I_    0.361013 0.770929 0.427731 -0.336342
I3    I     I_    0.863229 0.832029 0.733363 -0.369097
I4    I     I_    0.245672 0.164039 0.222507 -0.376947
I5    I     I_    0.853649 0.402292 0.705014 -0.405364
I6    I     I_    0.137084 0.601220 0.288704 -0.374742
I7    I     I_    0.778223 0.039994 0.740070 -0.275593
I8    I     I_    0.494766 0.052767 0.186284 -0.351707
N1    N     N_R   0.574200 0.731700 0.552740 -0.127326
N2    N     N_R   0.425800 0.268300 0.447260 -0.126702
N3    N     N_2   0.025428 0.317671 0.526304 -0.290957
N4    N     N_2   0.977172 0.683718 0.463106 -0.308935
N5    N     N_2   0.663942 0.757203 0.264895 -0.311504
N6    N     N_2   0.276098 0.282546 0.745911 -0.282875
N7    N     N_2   0.301459 0.204090 0.924266 -0.329883
N8    N     N_2   0.774128 0.797592 0.092186 -0.307787
O1    O     O_R   0.462600 0.383110 0.605620 -0.553759
O2    O     O_R   0.537400 0.616890 0.394380 -0.593310
O3    O     O_R   0.510210 0.531900 0.639510 -0.630069
O4    O     O_R   0.489790 0.468100 0.360490 -0.631929
O5    O     O_R   0.662240 0.425610 0.483080 -0.609284
O6    O     O_R   0.337760 0.574390 0.516920 -0.579031
O7    O     O_R   0.709860 0.574400 0.516970 -0.616687
O8    O     O_R   0.290140 0.425600 0.483030 -0.620057
Zn1   Zn    Zn3+2 0.468210 0.400660 0.477370 0.981614
Zn2   Zn    Zn3+2 0.531790 0.599340 0.522630 0.965085

loop_
_geom_bond_atom_site_label_1
_geom_bond_atom_site_label_2
_ccdc_geom_bond_type
C39   C51   A    
C23   C45   A    
C30   H12   S    
C27   C29   S    
C34   C37   A    
C14   C18   A    
C17   O6    A    
C42   H6    S    
C43   H11   S    
C39   N8    S    
C39   C41   A    
C27   C33   S    
C15   C19   A    
C46   N6    S    
O2    Zn2   S    
O1    Zn1   S    
C38   C40   A    
C24   C26   A    
C47   H24   S    
C11   C14   A    
H5    N3    S    
C12   C37   S    
C48   H29   S    
C28   I6    S    
C13   N2    A    
C10   N2    A    
C19   C26   A    
C3    H3    S    
C20   C24   A    
C28   C35   S    
C41   N5    S    
C49   C51   A    
C22   C25   A    
C31   C33   S    
C8    I4    S    
C6    C51   A    
C24   H33   S    
O6    Zn2   S    
C46   H20   S    
O5    Zn1   S    
C21   C22   A    
C4    H4    S    
H14   N5    S    
C18   C25   A    
O8    Zn1   S    
C16   O5    A    
C26   I8    S    
C8    C19   A    
C47   N7    S    
C32   C35   S    
C14   C20   A    
C36   C40   A    
C43   N4    S    
C4    C6    A    
C42   H8    S    
C12   O4    A    
N2    Zn1   S    
C45   C52   A    
C6    H35   S    
C33   N3    S    
C22   H32   S    
O4    Zn1   S    
O3    Zn2   S    
C38   N7    S    
C2    C49   A    
C10   H23   S    
C43   H13   S    
C7    C18   A    
C7    I3    S    
C44   H17   S    
C34   H36   S    
C46   H19   S    
C2    C52   A    
C9    H31   S    
C5    H34   S    
C4    C52   A    
C25   I7    S    
C13   C15   A    
C17   C31   S    
C5    C50   A    
C27   I5    S    
H9    N4    S    
C16   C32   S    
C47   H25   S    
C35   N4    S    
C17   O8    A    
C23   H2    S    
C7    C9    A    
C34   C49   A    
C9    N1    A    
C30   C33   S    
C13   I1    S    
C27   C32   S    
C28   C31   S    
C3    C5    A    
C42   H7    S    
C43   H10   S    
C44   N5    S    
H18   N6    S    
C38   C50   A    
C12   O2    A    
C29   C35   S    
C11   N1    A    
C48   H28   S    
C28   C30   S    
C2    C3    A    
C29   C31   S    
C42   N3    S    
C30   C32   S    
C11   I2    S    
C29   H1    S    
C45   C50   A    
C48   H30   S    
O7    Zn2   S    
C37   C41   A    
H27   N8    S    
C44   H16   S    
C40   N6    S    
C1    O3    A    
C15   C21   A    
C20   C21   A    
C16   O7    A    
C8    C10   A    
C23   C36   A    
C44   H15   S    
C47   H26   S    
N1    Zn2   S    
C46   H21   S    
C1    C36   S    
C1    O1    A    
H22   N7    S    
C48   N8    S    
