data_mof_unit_43764.cif
_audit_creation_date              2012-10-26T19:53:28-0400
_audit_creation_method            fapswitch 2.2
_symmetry_space_group_name_H-M    P1
_symmetry_Int_Tables_number       1
_space_group_crystal_system       triclinic
_cell_length_a                    9.092005
_cell_length_b                    7.79793
_cell_length_c                    10.663114
_cell_angle_alpha                 90.245827
_cell_angle_beta                  90.062478
_cell_angle_gamma                 89.956204
_cell_volume                      755.994558676

loop_
_atom_site_label
_atom_site_type_symbol
_atom_type_description
_atom_site_fract_x
_atom_site_fract_y
_atom_site_fract_z
_atom_type_partial_charge
C1    C     C_R   0.220072 0.500038 0.500052 0.555878
C2    C     C_3   0.622699 0.571925 0.041544 -0.011767
C3    C     C_3   0.500303 0.501452 0.877475 0.018344
C4    C     C_3   0.499697 0.498548 0.122525 0.018344
C5    C     C_1   0.065385 0.500052 0.500022 -0.022823
C6    C     C_1   0.934615 0.499947 0.499978 -0.022824
C7    C     C_1   0.241779 0.349532 0.910336 0.213382
C8    C     C_1   0.758221 0.650468 0.089663 0.213382
C9    C     C_R   0.779928 0.499962 0.499948 0.555878
C10   C     C_R   0.499704 0.499549 0.258853 0.550275
C11   C     C_R   0.500296 0.500451 0.741147 0.550275
C12   C     C_3   0.382571 0.589184 0.042378 -0.137935
C13   C     C_3   0.617429 0.410816 0.957622 -0.137936
C14   C     C_3   0.507590 0.663906 0.959898 -0.126729
C15   C     C_3   0.492410 0.336094 0.040101 -0.126729
C16   C     C_3   0.377301 0.428075 0.958456 -0.011767
Cu1   Cu    Cu3+1 0.500000 0.669080 0.500000 1.046452
Cu2   Cu    Cu3+1 0.500000 0.330920 0.500000 1.046452
H1    H     H_    0.286181 0.660562 0.079474 0.140545
H2    H     H_    0.713819 0.339438 0.920526 0.140545
H3    H     H_    0.515073 0.797716 0.925254 0.138203
H4    H     H_    0.484927 0.202284 0.074746 0.138203
N1    N     N_1   0.500000 0.076820 0.500000 -0.076649
N2    N     N_1   0.500000 0.923180 0.500000 -0.076649
N3    N     N_1   0.134906 0.287721 0.872271 -0.288449
N4    N     N_1   0.865094 0.712279 0.127729 -0.288449
O1    O     O_R   0.288390 0.642760 0.500000 -0.496800
O2    O     O_R   0.711610 0.357240 0.500000 -0.496799
O3    O     O_R   0.711610 0.642760 0.500000 -0.492494
O4    O     O_R   0.288390 0.357240 0.500000 -0.492495
O5    O     O_R   0.499960 0.642760 0.316850 -0.501386
O6    O     O_R   0.500040 0.357240 0.683150 -0.501386
O7    O     O_R   0.500040 0.642760 0.683150 -0.508047
O8    O     O_R   0.499960 0.357240 0.316850 -0.508047

loop_
_geom_bond_atom_site_label_1
_geom_bond_atom_site_label_2
_ccdc_geom_bond_type
C2    C4    S    
N1    N2    T    
Cu2   O4    S    
C4    C12   S    
C8    N4    T    
Cu2   N1    S    
C3    C13   S    
C3    C11   S    
C9    O3    A    
C6    C9    S    
Cu1   Cu2   S    
C10   O8    A    
Cu1   O3    S    
Cu2   O8    S    
C3    C14   S    
Cu1   O7    S    
C4    C15   S    
Cu1   O5    S    
C14   H3    S    
C1    O4    A    
C12   C14   S    
C11   O6    A    
C13   C15   S    
C5    C6    T    
C2    C14   S    
C1    C5    S    
Cu1   N2    S    
Cu2   O6    S    
C4    C10   S    
C15   C16   S    
Cu1   O1    S    
C11   O7    A    
Cu2   O2    S    
C12   H1    S    
C1    O1    A    
C2    C13   S    
C7    C16   S    
C13   H2    S    
C10   O5    A    
C15   H4    S    
C2    C8    S    
C3    C16   S    
C12   C16   S    
C9    O2    A    
C7    N3    T    
