data_mof_unit_59701.cif
_audit_creation_date              2012-12-10T17:43:17-0500
_audit_creation_method            fapswitch 2.2
_symmetry_space_group_name_H-M    P1
_symmetry_Int_Tables_number       1
_space_group_crystal_system       triclinic
_cell_length_a                    15.022145
_cell_length_b                    13.709914
_cell_length_c                    10.625258
_cell_angle_alpha                 89.599989
_cell_angle_beta                  88.598687
_cell_angle_gamma                 89.870946
_cell_volume                      2187.58398188

loop_
_atom_site_label
_atom_site_type_symbol
_atom_type_description
_atom_site_fract_x
_atom_site_fract_y
_atom_site_fract_z
_atom_type_partial_charge
C1    C     C_R   0.329011 0.499975 0.500987 0.866292
C2    C     C_R   0.671005 0.499842 0.499558 0.860035
C3    C     C_R   0.953129 0.512244 0.495587 -0.049834
C4    C     C_R   0.047061 0.512254 0.497430 -0.050255
C5    C     C_R   0.909197 0.494829 0.381302 0.042440
C6    C     C_R   0.091043 0.532553 0.610705 0.050894
C7    C     C_R   0.947743 0.563529 0.715293 0.410806
C8    C     C_R   0.052959 0.491484 0.269672 0.418575
C9    C     C_R   0.040287 0.562739 0.716302 -0.198204
C10   C     C_R   0.960346 0.490028 0.268792 -0.207612
C11   C     C_R   0.447298 0.792450 0.584400 0.061646
C12   C     C_R   0.551933 0.207595 0.414677 0.052763
C13   C     C_R   0.551113 0.793135 0.413684 0.050743
C14   C     C_R   0.448492 0.206892 0.585809 0.036351
C15   C     C_R   0.550910 0.896571 0.407999 -0.016864
C16   C     C_R   0.447892 0.103465 0.590515 -0.016893
C17   C     C_R   0.443842 0.895868 0.585711 -0.016875
C18   C     C_R   0.554696 0.104191 0.412472 -0.017934
C19   C     C_R   0.498336 0.948250 0.497991 0.020771
C20   C     C_R   0.500278 0.051810 0.500286 0.020976
C21   C     C_R   0.603648 0.949046 0.317662 -0.051140
C22   C     C_R   0.394492 0.051006 0.680055 -0.059740
C23   C     C_R   0.389825 0.947616 0.674535 -0.049011
C24   C     C_R   0.607970 0.052470 0.322744 -0.065327
C25   C     C_R   0.500056 0.500283 0.259118 0.805502
C26   C     C_R   0.499286 0.499725 0.740917 0.801120
C27   C     C_3   0.505015 0.592602 0.039592 -0.138846
C28   C     C_3   0.494049 0.407375 0.960537 -0.135024
C29   C     C_3   0.575086 0.540697 0.954624 -0.150876
C30   C     C_3   0.423976 0.459313 0.045507 -0.114334
C31   C     C_3   0.429072 0.551187 0.960460 -0.160938
C32   C     C_3   0.569981 0.448818 0.039669 -0.204783
C33   C     C_3   0.499155 0.499300 0.877726 0.007193
C34   C     C_3   0.499903 0.500702 0.122365 -0.001930
C35   C     C_R   0.815237 0.489156 0.381802 -0.083734
C36   C     C_R   0.184859 0.527815 0.613027 -0.065833
C37   C     C_R   0.767590 0.500039 0.496677 -0.221712
C38   C     C_R   0.232490 0.500387 0.503176 -0.216553
C39   C     C_R   0.810990 0.512565 0.610415 0.390256
C40   C     C_R   0.188982 0.474272 0.393532 0.374670
C41   C     C_R   0.903521 0.529001 0.608333 -0.104235
C42   C     C_R   0.096748 0.491552 0.385974 -0.107049
Cu1   Cu    Cu3+1 0.500000 0.597420 0.500000 0.954739
Cu2   Cu    Cu3+1 0.500000 0.402580 0.500000 0.942580
H1    H     H_    0.371559 0.593865 0.926424 0.149126
H2    H     H_    0.627267 0.406291 0.074681 0.175908
H3    H     H_    0.509490 0.668504 0.074564 0.187241
H4    H     H_    0.489741 0.331456 0.925551 0.187800
H5    H     H_    0.636761 0.574329 0.914596 0.169851
H6    H     H_    0.362117 0.426074 0.085326 0.173457
H7    H     H_    0.071622 0.588054 0.800284 0.194975
H8    H     H_    0.929668 0.487987 0.177941 0.208692
H9    H     H_    0.409573 0.749157 0.651869 0.169681
H10   H     H_    0.589614 0.250962 0.347261 0.185321
H11   H     H_    0.593021 0.750395 0.351216 0.173185
H12   H     H_    0.406779 0.249682 0.648462 0.182179
N1    N     N_R   0.500000 0.743810 0.500000 -0.215682
N2    N     N_R   0.500000 0.256190 0.500000 -0.223312
O1    O     O_R   0.370260 0.582280 0.500030 -0.590048
O2    O     O_R   0.629740 0.417720 0.499970 -0.582310
O3    O     O_R   0.629740 0.582280 0.499970 -0.584916
O4    O     O_R   0.370260 0.417720 0.500030 -0.589345
O5    O     O_R   0.499980 0.582260 0.316850 -0.586658
O6    O     O_R   0.500020 0.417740 0.683150 -0.595997
O7    O     O_R   0.500020 0.582260 0.683150 -0.590778
O8    O     O_R   0.499980 0.417740 0.316850 -0.600490
C43   C     C_2   0.765039 0.469673 0.265469 0.365242
H13   H     H_    0.703761 0.509011 0.248046 0.037435
O9    O     O_2   0.788846 0.406019 0.192164 -0.539367
C44   C     C_2   0.234550 0.545512 0.729996 0.328478
H14   H     H_    0.293144 0.591590 0.727252 0.081702
O10   O     O_2   0.213234 0.504340 0.828350 -0.563224
O11   O     O_3   0.760647 0.512143 0.721937 -0.626028
C45   C     C_3   0.780164 0.427993 0.795097 0.094920
H15   H     H_    0.768016 0.446985 0.895553 0.197478
H16   H     H_    0.851009 0.404025 0.786932 0.160373
C46   C     C_3   0.719218 0.343076 0.762170 -0.388401
H17   H     H_    0.648942 0.366957 0.770922 0.246811
H18   H     H_    0.733243 0.320084 0.663619 0.240483
C47   C     C_3   0.732816 0.255891 0.849719 -0.861433
H19   H     H_    0.802612 0.229311 0.841622 0.263766
H20   H     H_    0.687511 0.195886 0.823389 0.260436
H21   H     H_    0.717563 0.276376 0.948902 0.274556
O12   O     O_3   0.239334 0.439848 0.291623 -0.623506
C48   C     C_3   0.218221 0.341073 0.266308 0.105910
H22   H     H_    0.219353 0.332404 0.162390 0.198702
H23   H     H_    0.150520 0.318273 0.300432 0.141250
C49   C     C_3   0.287965 0.272601 0.321808 -0.366112
H24   H     H_    0.355747 0.298204 0.293762 0.256433
H25   H     H_    0.281076 0.272914 0.426098 0.230613
C50   C     C_3   0.276726 0.168106 0.276527 -0.903110
H26   H     H_    0.209612 0.140264 0.304118 0.261166
H27   H     H_    0.327693 0.120662 0.320078 0.263985
H28   H     H_    0.285594 0.164740 0.172537 0.273585
O13   O     O_3   0.902068 0.595908 0.822009 -0.611318
C51   C     C_3   0.861870 0.687774 0.798504 0.120992
H29   H     H_    0.793692 0.686406 0.841500 0.187393
H30   H     H_    0.854063 0.705611 0.696580 0.129329
C52   C     C_3   0.914762 0.768406 0.860898 -0.406363
H31   H     H_    0.917435 0.753447 0.963633 0.233441
H32   H     H_    0.983751 0.769326 0.820689 0.232096
C53   C     C_3   0.872056 0.868204 0.840724 -0.881039
H33   H     H_    0.869802 0.885751 0.738619 0.258994
H34   H     H_    0.911945 0.924892 0.887584 0.261445
H35   H     H_    0.803351 0.869337 0.881866 0.263384
O14   O     O_3   0.098636 0.490962 0.154717 -0.586090
C54   C     C_3   0.140534 0.582299 0.132294 0.151414
H36   H     H_    0.193091 0.571083 0.058574 0.212508
H37   H     H_    0.175226 0.610805 0.215758 0.134996
C55   C     C_3   0.074402 0.658898 0.085740 -0.431404
H38   H     H_    0.034772 0.627866 0.009020 0.258300
H39   H     H_    0.027909 0.679526 0.164103 0.210459
C56   C     C_3   0.122969 0.750158 0.037920 -0.890552
H40   H     H_    0.165873 0.779750 0.112250 0.259774
H41   H     H_    0.073966 0.807146 0.012351 0.260312
H42   H     H_    0.164800 0.732745 0.953298 0.278604
C57   C     C_2   0.656059 0.897297 0.217666 0.278962
H43   H     H_    0.724258 0.918743 0.196020 0.087677
O15   O     O_2   0.622078 0.834097 0.154350 -0.572276
C58   C     C_2   0.341775 0.102774 0.779665 0.293176
H44   H     H_    0.273176 0.082109 0.799802 0.090072
O16   O     O_2   0.375881 0.165074 0.844296 -0.564326
C59   C     C_2   0.329080 0.895059 0.764672 0.279244
H45   H     H_    0.326588 0.915318 0.863254 0.090169
O17   O     O_2   0.278163 0.832491 0.728434 -0.570638
C60   C     C_2   0.667463 0.105082 0.231042 0.297302
H46   H     H_    0.668253 0.085153 0.132339 0.086521
O18   O     O_2   0.719238 0.167255 0.265984 -0.515402

loop_
_geom_bond_atom_site_label_1
_geom_bond_atom_site_label_2
_ccdc_geom_bond_type
C14   H12   S    
C60   H46   S    
C27   C29   S    
O11   C45   S    
C40   O12   S    
Cu2   O8    S    
C19   C20   A    
C9    H7    S    
C10   H8    S    
C1    O4    A    
C6    C9    A    
Cu1   O5    S    
C59   H45   S    
C39   C41   A    
C29   H5    S    
C46   H17   S    
Cu2   O6    S    
C22   C58   S    
C17   C23   A    
C45   H16   S    
C18   C24   A    
C16   C20   A    
C35   C37   A    
C8    C42   A    
C29   C32   S    
C57   O15   D    
C30   C31   S    
C2    O2    A    
C59   O17   D    
C13   N1    A    
O14   C54   S    
C51   C52   S    
C29   C33   S    
C53   H35   S    
C25   O5    A    
C26   O6    A    
C55   H38   S    
C21   C57   S    
C28   H4    S    
O13   C51   S    
C58   O16   D    
C45   C46   S    
C51   H30   S    
C16   C22   A    
C54   H36   S    
C31   C33   S    
C44   H14   S    
C11   H9    S    
C2    O3    A    
Cu1   O1    S    
C25   C34   S    
C56   H42   S    
C12   N2    A    
C40   C42   A    
C30   H6    S    
C24   C60   S    
C54   H37   S    
C47   H21   S    
C36   C44   S    
C46   H18   S    
C27   C34   S    
C14   N2    A    
C45   H15   S    
C30   C34   S    
C48   H23   S    
C27   C31   S    
C43   H13   S    
C28   C32   S    
O12   C48   S    
C47   H20   S    
Cu2   N2    S    
C50   H26   S    
C23   C59   S    
Cu2   O4    S    
C48   H22   S    
C43   O9    D    
C32   C34   S    
C15   C19   A    
Cu1   Cu2   S    
C50   H27   S    
C26   C33   S    
C52   H31   S    
C49   C50   S    
C35   C43   S    
Cu1   O7    S    
C51   H29   S    
C53   H34   S    
C55   C56   S    
C1    C38   S    
C39   O11   S    
C4    C6    A    
C52   H32   S    
C1    O1    A    
C49   H25   S    
C28   C33   S    
C13   C15   A    
C54   C55   S    
C14   C16   A    
C3    C4    A    
C58   H44   S    
Cu1   O3    S    
C56   H40   S    
C48   C49   S    
C27   H3    S    
C7    C9    A    
C11   C17   A    
C60   O18   D    
C26   O7    A    
C32   H2    S    
C25   O8    A    
C47   H19   S    
C3    C5    A    
C8    O14   S    
C7    O13   S    
C36   C38   A    
C5    C10   A    
C37   C39   A    
C57   H43   S    
C50   H28   S    
C38   C40   A    
C46   C47   S    
C2    C37   S    
C4    C42   A    
Cu2   O2    S    
C5    C35   A    
C28   C30   S    
C17   C19   A    
C6    C36   A    
C18   C20   A    
C7    C41   A    
C53   H33   S    
C55   H39   S    
C3    C41   A    
Cu1   N1    S    
C15   C21   A    
C52   C53   S    
C49   H24   S    
C8    C10   A    
C31   H1    S    
C21   C24   A    
C12   C18   A    
C22   C23   A    
C44   O10   D    
C56   H41   S    
C11   N1    A    
C12   H10   S    
C13   H11   S    
