data_mof_unit_66576.cif
_audit_creation_date              2012-12-10T16:50:57-0500
_audit_creation_method            fapswitch 2.2
_symmetry_space_group_name_H-M    P1
_symmetry_Int_Tables_number       1
_space_group_crystal_system       triclinic
_cell_length_a                    7.815789
_cell_length_b                    8.539103
_cell_length_c                    10.553904
_cell_angle_alpha                 91.410959
_cell_angle_beta                  85.129569
_cell_angle_gamma                 93.469464
_cell_volume                      700.401672479

loop_
_atom_site_label
_atom_site_type_symbol
_atom_type_description
_atom_site_fract_x
_atom_site_fract_y
_atom_site_fract_z
_atom_type_partial_charge
C1    C     C_R   0.545527 0.794441 0.494274 0.904416
C2    C     C_R   0.981508 0.527230 0.020961 -0.239561
C3    C     C_R   0.059368 0.665229 0.076529 -0.147800
C4    C     C_R   0.982872 0.614532 0.908512 -0.185213
C5    C     C_R   0.212307 0.660567 0.141446 0.161155
C6    C     C_R   0.826951 0.657189 0.864866 0.151605
C7    C     C_R   0.362959 0.608102 0.070483 -0.015085
C8    C     C_R   0.672142 0.590902 0.922096 0.046280
C9    C     C_R   0.376968 0.643726 0.940592 0.021888
C10   C     C_R   0.665145 0.528659 0.043080 0.050347
C11   C     C_R   0.505846 0.538739 0.121706 -0.215632
C12   C     C_R   0.454594 0.205494 0.501220 0.979785
C13   C     C_R   0.519968 0.597888 0.865567 -0.219838
C14   C     C_3   0.309328 0.859059 0.789860 -0.378082
C15   C     C_3   0.298312 0.030327 0.834389 -0.915595
C16   C     C_3   0.815217 0.293827 0.125428 -0.361612
C17   C     C_3   0.652836 0.190991 0.102143 -0.894558
C18   C     C_3   0.236049 0.783847 0.247123 -0.310993
C19   C     C_3   0.209525 0.951368 0.206900 -0.970187
C20   C     C_3   0.823934 0.796666 0.776980 -0.422845
C21   C     C_3   0.752965 0.942536 0.845126 -0.909664
C22   C     C_2   0.569780 0.957873 0.489728 -0.369917
C23   C     C_2   0.430880 0.041902 0.499827 -0.408055
C24   C     C_R   0.506392 0.532889 0.736627 0.872537
C25   C     C_R   0.500244 0.505824 0.257698 0.872513
C26   C     C_R   0.258162 0.743730 0.895750 0.160783
C27   C     C_R   0.819178 0.462310 0.075922 0.187832
C28   C     C_R   0.088853 0.735755 0.956099 -0.137625
H1    H     H_    0.042923 0.551583 0.826917 0.173031
H2    H     H_    0.355196 0.109024 0.758103 0.266566
H3    H     H_    0.163188 0.060716 0.857105 0.255317
H4    H     H_    0.443051 0.845190 0.750606 0.215019
H5    H     H_    0.228158 0.834855 0.710316 0.215486
H6    H     H_    0.620163 0.201799 0.002550 0.263962
H7    H     H_    0.541999 0.221886 0.168266 0.254745
H8    H     H_    0.675738 0.066359 0.118994 0.247734
H9    H     H_    0.838077 0.294489 0.227590 0.224859
H10   H     H_    0.923151 0.230507 0.076767 0.175348
H11   H     H_    0.298049 0.981862 0.122538 0.275531
H12   H     H_    0.963064 0.723679 0.138834 0.169158
H13   H     H_    0.074909 0.966075 0.185744 0.253597
H14   H     H_    0.238845 0.035579 0.284813 0.257775
H15   H     H_    0.145709 0.754004 0.331158 0.223519
H16   H     H_    0.369490 0.788120 0.275126 0.223087
H17   H     H_    0.639989 0.911258 0.912248 0.277524
H18   H     H_    0.851334 0.007387 0.898628 0.254670
H19   H     H_    0.713488 0.023796 0.773828 0.267307
H20   H     H_    0.952761 0.830057 0.732089 0.197151
H21   H     H_    0.744420 0.765281 0.698765 0.223878
H22   H     H_    0.037820 0.850202 0.957354 0.188152
H23   H     H_    0.073337 0.435866 0.010703 0.158107
H24   H     H_    0.701249 0.008489 0.480117 0.184656
H25   H     H_    0.299483 0.991200 0.509439 0.184945
H26   H     H_    0.013184 0.380005 0.405609 0.183175
H27   H     H_    0.987214 0.620379 0.593387 0.173073
H28   H     H_    0.372005 0.053841 0.918502 0.256842
N1    N     N_2   0.950330 0.457950 0.466250 -0.181944
N2    N     N_2   0.049670 0.542050 0.533750 -0.193032
O1    O     O_R   0.389250 0.738570 0.508280 -0.643071
O2    O     O_R   0.610750 0.261430 0.491720 -0.603670
O3    O     O_R   0.678390 0.711630 0.486650 -0.645004
O4    O     O_R   0.321610 0.288370 0.513350 -0.618621
O5    O     O_R   0.355430 0.513480 0.694040 -0.618122
O6    O     O_R   0.644570 0.486520 0.305960 -0.607671
O7    O     O_R   0.644570 0.486540 0.672410 -0.615853
O8    O     O_R   0.355430 0.513460 0.327590 -0.634575
Zn1   Zn    Zn3+2 0.306940 0.517990 0.514440 0.896554
Zn2   Zn    Zn3+2 0.693060 0.482010 0.485560 0.913919

loop_
_geom_bond_atom_site_label_1
_geom_bond_atom_site_label_2
_ccdc_geom_bond_type
C10   C27   A    
C3    H12   S    
C4    H1    S    
C2    C4    A    
C5    C7    A    
C15   H3    S    
C2    C27   A    
C17   H8    S    
C18   H16   S    
C12   O4    A    
C26   C28   A    
C2    H23   S    
C12   C23   S    
C19   H14   S    
C16   H9    S    
O7    Zn2   S    
C15   H28   S    
C14   H5    S    
C2    C3    A    
C1    C22   S    
C20   H20   S    
C18   H15   S    
C14   C26   S    
C7    C11   A    
O3    Zn2   S    
N1    N2    D    
C20   H21   S    
C19   H11   S    
C24   O7    A    
C16   C27   S    
O6    Zn2   S    
C22   H24   S    
C3    C28   A    
C4    C28   A    
C9    C26   A    
C23   H25   S    
C24   O5    A    
C21   H17   S    
C1    O1    A    
O5    Zn1   S    
O4    Zn1   S    
C17   H6    S    
C11   C25   S    
N1    Zn2   S    
C12   O2    A    
C8    C13   A    
C3    C5    A    
N2    Zn1   S    
C6    C20   S    
C20   C21   S    
O2    Zn2   S    
C15   H2    S    
C4    C6    A    
C21   H18   S    
C10   C11   A    
H27   N2    S    
C14   H4    S    
O8    Zn1   S    
C7    C9    A    
C9    C13   A    
C14   C15   S    
C18   C19   S    
C6    C8    A    
C5    C18   S    
C17   H7    S    
O1    Zn1   S    
C22   C23   D    
C28   H22   S    
H26   N1    S    
C8    C10   A    
C25   O8    A    
C19   H13   S    
C13   C24   S    
C16   H10   S    
C16   C17   S    
C21   H19   S    
C25   O6    A    
C1    O3    A    
