data_mof_unit_49530.cif
_audit_creation_date              2012-12-11T17:10:34-0500
_audit_creation_method            fapswitch 2.2
_symmetry_space_group_name_H-M    P1
_symmetry_Int_Tables_number       1
_space_group_crystal_system       triclinic
_cell_length_a                    14.793336
_cell_length_b                    14.890813
_cell_length_c                    14.919664
_cell_angle_alpha                 109.614687
_cell_angle_beta                  109.938838
_cell_angle_gamma                 109.035597
_cell_volume                      2524.39284787

loop_
_atom_site_label
_atom_site_type_symbol
_atom_type_description
_atom_site_fract_x
_atom_site_fract_y
_atom_site_fract_z
_atom_type_partial_charge
C1    C     C_R   0.185297 0.278469 0.254324 -0.142636
C2    C     C_R   0.403152 0.493967 0.194272 -0.141351
C3    C     C_R   0.563993 0.815547 0.591135 -0.131907
C4    C     C_R   0.525688 0.432980 0.746682 -0.028251
C5    C     C_R   0.723203 0.477717 0.409285 -0.119721
C6    C     C_R   0.547329 0.824539 0.497391 0.060812
C7    C     C_R   0.827285 0.557125 0.502334 0.056670
C8    C     C_R   0.432049 0.430191 0.130999 0.085653
C9    C     C_R   0.802002 0.802891 0.869057 0.073424
C10   C     C_R   0.069253 0.565038 0.161143 -0.143824
C11   C     C_R   0.079605 0.602962 0.265383 -0.130764
C12   C     C_R   0.453974 0.452841 0.779183 0.069070
C13   C     C_R   0.009585 0.532794 0.285409 0.050176
C14   C     C_R   0.927577 0.425378 0.199327 -0.285895
C15   C     C_R   0.914812 0.387140 0.093956 0.635297
C16   C     C_R   0.504513 0.200902 0.407461 -0.174758
C17   C     C_R   0.988177 0.457612 0.075893 -0.283519
C18   C     C_R   0.927541 0.570348 0.400869 -0.216658
C19   C     C_R   0.931054 0.608155 0.501992 0.041859
C20   C     C_R   0.035677 0.677236 0.599814 0.034746
C21   C     C_R   0.127225 0.673266 0.595079 -0.237051
C22   C     C_R   0.116332 0.608928 0.494111 0.048370
C23   C     C_R   0.565415 0.196763 0.497356 0.061173
C24   C     C_R   0.020002 0.572045 0.395435 0.063071
C25   C     C_R   0.001606 0.823357 0.700378 -0.141071
C26   C     C_R   0.021779 0.904524 0.797862 -0.102069
C27   C     C_R   0.093717 0.922678 0.899712 -0.097496
C28   C     C_R   0.290658 0.597851 0.588934 -0.135108
C29   C     C_R   0.143859 0.858192 0.904350 -0.123348
C30   C     C_R   0.123769 0.776636 0.807047 -0.172551
C31   C     C_R   0.052842 0.758816 0.703868 0.111706
C32   C     C_R   0.464153 0.358978 0.888010 -0.004721
C33   C     C_R   0.414175 0.408535 0.839818 0.085313
C34   C     C_R   0.197411 0.570451 0.495928 0.070901
C35   C     C_R   0.335972 0.427185 0.864354 -0.180024
C36   C     C_R   0.328793 0.419890 0.953110 -0.199102
C37   C     C_R   0.398499 0.392022 0.015404 0.091484
C38   C     C_R   0.452389 0.345894 0.970921 0.082629
C39   C     C_3   0.565472 0.358460 0.024054 -0.573418
C40   C     C_R   0.595728 0.289784 0.590215 -0.142813
C41   C     C_3   0.579957 0.376644 0.935128 0.339294
C42   C     C_R   0.537809 0.921613 0.391441 0.085893
C43   C     C_R   0.589499 0.924140 0.491125 0.087672
C44   C     C_R   0.668517 0.027049 0.586901 -0.205239
C45   C     C_R   0.473887 0.720487 0.406741 -0.133394
C46   C     C_R   0.673396 0.122710 0.587064 -0.168664
C47   C     C_R   0.599482 0.114446 0.491355 0.032738
C48   C     C_R   0.544209 0.016112 0.391360 -0.070321
C49   C     C_3   0.425678 0.953521 0.297319 0.425293
C50   C     C_3   0.419606 0.850672 0.298043 -0.638575
C51   C     C_R   0.966556 0.071614 0.127038 0.118431
C52   C     C_R   0.199625 0.504533 0.406695 -0.154099
C53   C     C_R   0.067618 0.073168 0.170594 0.036591
C54   C     C_R   0.064372 0.971340 0.141178 -0.219904
C55   C     C_R   0.969469 0.875589 0.048366 -0.156262
C56   C     C_R   0.815695 0.567331 0.593414 -0.136010
C57   C     C_R   0.878247 0.882383 0.986650 0.047970
C58   C     C_R   0.872866 0.977180 0.036402 0.134919
C59   C     C_3   0.832608 0.040003 0.989385 -0.473905
C60   C     C_3   0.935088 0.143089 0.087963 -0.426197
C61   C     C_R   0.437208 0.529443 0.752903 -0.118275
C62   C     C_R   0.276111 0.184720 0.249405 -0.136537
C63   C     C_R   0.172569 0.174612 0.224860 0.061957
C64   C     C_3   0.780398 0.263236 0.909070 0.263131
C65   C     C_3   0.668714 0.157888 0.841122 -0.935696
C66   C     C_3   0.497357 0.966323 0.177952 0.313062
C67   C     C_R   0.493066 0.400821 0.195572 -0.155653
C68   C     C_3   0.461193 0.945266 0.061040 -0.945484
C69   C     C_R   0.707234 0.799118 0.804096 -0.161657
C70   C     C_R   0.801403 0.710024 0.805393 -0.092646
Cl1   Cl    Cl    0.687145 0.514286 0.992864 -0.679272
H1    H     H_    0.123830 0.302356 0.252243 0.107904
H2    H     H_    0.124832 0.618777 0.146621 0.133700
H3    H     H_    0.142885 0.686236 0.330755 0.120014
H4    H     H_    0.553481 0.375257 0.750586 0.092292
H5    H     H_    0.873569 0.370610 0.214399 0.137403
H6    H     H_    0.851182 0.533253 0.324659 0.138461
H7    H     H_    0.206039 0.718586 0.670690 0.122477
H8    H     H_    0.947177 0.811842 0.622214 0.119534
H9    H     H_    0.982409 0.954087 0.794493 0.111065
H10   H     H_    0.110711 0.986931 0.974993 0.124633
H11   H     H_    0.198850 0.871867 0.983448 0.158265
H12   H     H_    0.878723 0.617931 0.679284 0.116450
H13   H     H_    0.163385 0.727499 0.812394 0.110696
H14   H     H_    0.290269 0.459411 0.824451 0.118961
H15   H     H_    0.484792 0.153877 0.323891 0.130763
H16   H     H_    0.279108 0.448403 0.979868 0.118859
H17   H     H_    0.623551 0.431624 0.108203 0.234325
H18   H     H_    0.561142 0.280468 0.017815 0.163786
H19   H     H_    0.587026 0.311236 0.879675 0.054472
H20   H     H_    0.716220 0.032970 0.664155 0.126184
H21   H     H_    0.724589 0.199646 0.664456 0.113157
H22   H     H_    0.370143 0.975890 0.322858 0.066933
H23   H     H_    0.511517 0.335674 0.167827 0.106485
H24   H     H_    0.360279 0.815671 0.323098 0.174814
H25   H     H_    0.323843 0.658716 0.673159 0.088152
H26   H     H_    0.410417 0.789993 0.222550 0.204734
H27   H     H_    0.138468 0.967022 0.178630 0.136732
H28   H     H_    0.974193 0.801316 0.017937 0.138130
H29   H     H_    0.831884 0.025554 0.910919 0.187023
H30   H     H_    0.755151 0.033307 0.988416 0.201698
H31   H     H_    0.991262 0.186064 0.064003 0.192899
H32   H     H_    0.916741 0.195737 0.143747 0.203661
H33   H     H_    0.656856 0.320865 0.674289 0.092147
H34   H     H_    0.669962 0.845665 0.831559 0.105948
H35   H     H_    0.149393 0.476411 0.321169 0.116516
H36   H     H_    0.385427 0.563350 0.765829 0.094595
H37   H     H_    0.297505 0.120624 0.238095 0.112316
H38   H     H_    0.446239 0.695746 0.321368 0.118190
H39   H     H_    0.829380 0.254669 0.867674 0.088899
H40   H     H_    0.765185 0.332423 0.911840 0.113940
H41   H     H_    0.621637 0.160200 0.885269 0.259246
H42   H     H_    0.619484 0.148808 0.760263 0.217313
H43   H     H_    0.681018 0.085782 0.827164 0.250778
H44   H     H_    0.529020 0.910157 0.188470 0.105818
H45   H     H_    0.853932 0.678124 0.834538 0.096580
H46   H     H_    0.565044 0.053171 0.236115 0.087817
H47   H     H_    0.430245 0.001111 0.048100 0.258425
H48   H     H_    0.532542 0.960290 0.047142 0.217048
H49   H     H_    0.394066 0.858742 0.000557 0.255054
H50   H     H_    0.342068 0.517435 0.165054 0.087080
H51   H     H_    0.617152 0.880647 0.676286 0.093341
H52   H     H_    0.700275 0.447119 0.323864 0.096254
H53   H     H_    0.983988 0.429695 0.996915 0.105905
N1    N     N_R   0.291070 0.347930 0.293870 -0.040000
N2    N     N_R   0.497240 0.291100 0.443210 -0.037874
N3    N     N_R   0.347890 0.554050 0.556810 -0.040934
N4    N     N_R   0.554050 0.347900 0.556830 -0.043390
N5    N     N_R   0.291070 0.497250 0.443190 -0.040966
N6    N     N_R   0.497240 0.554030 0.706140 -0.043755
N7    N     N_R   0.347890 0.291110 0.293870 -0.038912
N8    N     N_R   0.445950 0.652100 0.443170 -0.041341
N9    N     N_R   0.708930 0.502750 0.556810 -0.042718
N10   N     N_R   0.502760 0.445970 0.293860 -0.038516
N11   N     N_R   0.652110 0.708890 0.706130 -0.040036
N12   N     N_R   0.708930 0.652070 0.706130 -0.044289
N13   N     N_R   0.445950 0.502780 0.293850 -0.038735
N14   N     N_R   0.502760 0.708900 0.556790 -0.038899
N15   N     N_R   0.652110 0.445950 0.443190 -0.041226
N16   N     N_R   0.554050 0.497220 0.706150 -0.043098
Ni1   Ni    Ni4+2 0.369690 0.500010 0.369700 0.209097
Ni2   Ni    Ni4+2 0.630310 0.499990 0.630300 0.226243
Ni3   Ni    Ni4+2 0.500000 0.369720 0.369720 0.210276
Ni4   Ni    Ni4+2 0.500000 0.630280 0.630280 0.212715
O1    O     O_3   0.835957 0.277975 0.015194 -0.646787
O2    O     O_3   0.405612 0.947659 0.194291 -0.638180

loop_
_geom_bond_atom_site_label_1
_geom_bond_atom_site_label_2
_ccdc_geom_bond_type
C25   C31   A    
C66   C68   S    
C4    N16   A    
C6    C45   A    
C64   O1    S    
C27   C29   A    
C35   H14   S    
C65   H43   S    
C35   C36   A    
C3    C6    A    
N6    N16   A    
N10   N13   A    
C56   N9    A    
N11   N12   A    
C39   C41   S    
C53   C54   A    
C26   C27   A    
C37   C38   A    
C18   C24   A    
C52   N5    A    
C39   H17   S    
C36   C37   A    
C1    N1    A    
C3    N14   A    
C68   H48   S    
C30   C31   A    
C10   H2    S    
C45   H38   S    
C50   H24   S    
C62   H37   S    
C10   C17   A    
N8    N14   A    
C23   C40   A    
C40   N4    A    
N2    Ni3   S    
C18   C19   A    
C53   C63   S    
C4    H4    S    
N12   Ni2   S    
C68   H47   S    
N10   Ni3   S    
C46   C47   A    
N15   Ni3   S    
C19   C20   A    
N1    Ni1   S    
C66   H46   S    
C21   H7    S    
C67   H23   S    
C32   C41   S    
C32   C38   A    
C4    C12   A    
C60   H32   S    
N6    Ni4   S    
C28   N3    A    
C41   Cl1   S    
C41   H19   S    
C28   C34   A    
C59   C60   S    
C69   N11   A    
C13   C14   A    
C70   N12   A    
C59   H29   S    
N5    Ni1   S    
C7    C56   A    
C60   H31   S    
C1    C63   A    
C44   C46   A    
C5    N15   A    
C36   H16   S    
C22   C34   S    
C1    H1    S    
C23   C47   S    
C66   H44   S    
C59   H30   S    
C27   H10   S    
C67   N10   A    
C9    C70   A    
C5    C7    A    
C69   H34   S    
C64   H40   S    
C70   H45   S    
C58   C59   S    
C26   H9    S    
C13   C24   S    
C51   C53   A    
C14   H5    S    
C43   C44   A    
N3    N5    A    
C65   H41   S    
C62   C63   A    
C40   H33   S    
N1    N7    A    
C17   H53   S    
C64   H39   S    
C47   C48   A    
N9    Ni2   S    
C51   C58   A    
C42   C48   A    
C44   H20   S    
C61   N6    A    
C42   C50   S    
N11   Ni4   S    
N9    N15   A    
C16   C23   A    
C7    C19   S    
C6    C43   S    
C55   C57   A    
C22   C24   A    
C8    C37   S    
N7    Ni3   S    
C56   H12   S    
C15   O1    S    
C2    H50   S    
N8    Ni1   S    
C15   C17   A    
N13   Ni1   S    
C54   C55   A    
C48   C49   S    
C50   H26   S    
N2    N4    A    
C25   H8    S    
C2    N13   A    
C65   H42   S    
C62   N7    A    
C2    C8    A    
C8    C67   A    
C9    C69   A    
C11   H3    S    
C3    H51   S    
N16   Ni2   S    
C5    H52   S    
C34   C52   A    
C28   H25   S    
C52   H35   S    
C64   C65   S    
C25   C26   A    
C29   H11   S    
N14   Ni4   S    
C32   C33   A    
C12   C61   A    
C11   C13   A    
C57   C58   A    
C38   C39   S    
C16   N2    A    
C16   H15   S    
C18   H6    S    
C33   C35   A    
C49   O2    S    
C9    C57   S    
N3    Ni4   S    
C30   H13   S    
C61   H36   S    
C66   O2    S    
C10   C11   A    
C29   C30   A    
C46   H21   S    
C20   C21   A    
C45   N8    A    
C49   C50   S    
C42   C43   A    
C55   H28   S    
C14   C15   A    
C54   H27   S    
C51   C60   S    
C49   H22   S    
C12   C33   S    
C21   C22   A    
N4    Ni2   S    
C39   H18   S    
C68   H49   S    
C20   C31   S    
