data_mof_unit_55677.cif
_audit_creation_date              2012-10-26T18:47:56-0400
_audit_creation_method            fapswitch 2.2
_symmetry_space_group_name_H-M    P1
_symmetry_Int_Tables_number       1
_space_group_crystal_system       triclinic
_cell_length_a                    15.855213
_cell_length_b                    8.69905
_cell_length_c                    7.553515
_cell_angle_alpha                 103.53075
_cell_angle_beta                  95.21113
_cell_angle_gamma                 94.274702
_cell_volume                      1003.76933158

loop_
_atom_site_label
_atom_site_type_symbol
_atom_type_description
_atom_site_fract_x
_atom_site_fract_y
_atom_site_fract_z
_atom_type_partial_charge
C1    C     C_R   0.497354 0.199737 0.452816 0.535073
C2    C     C_2   0.503797 0.968860 0.572825 -0.143219
C3    C     C_R   0.340450 0.499307 0.500489 0.532665
C4    C     C_R   0.502504 0.800256 0.547237 0.567846
C5    C     C_R   0.659501 0.499982 0.499435 0.582239
C6    C     C_3   0.055008 0.467461 0.680840 -0.213761
C7    C     C_3   0.037569 0.362102 0.338283 -0.209499
C8    C     C_3   0.939171 0.362090 0.333801 -0.015318
C9    C     C_1   0.749065 0.498748 0.498079 0.015190
C10   C     C_3   0.082687 0.496470 0.498797 0.045020
C11   C     C_2   0.590118 0.668913 0.046456 0.757931
C12   C     C_3   0.957626 0.471757 0.682198 -0.207561
C13   C     C_2   0.896961 0.198287 0.327627 0.559138
C14   C     C_3   0.916742 0.494884 0.496695 0.037085
C15   C     C_3   0.956148 0.656830 0.473554 -0.242289
C16   C     C_3   0.053968 0.657655 0.475031 -0.221127
C17   C     C_1   0.824556 0.497208 0.497314 -0.044549
C18   C     C_1   0.175040 0.497930 0.500703 -0.074729
C19   C     C_1   0.250725 0.498775 0.501311 -0.029048
C20   C     C_2   0.496252 0.031145 0.427235 -0.143764
Cu1   Cu    Cu3+1 0.509300 0.517380 0.684380 1.029971
Cu2   Cu    Cu3+1 0.490700 0.482620 0.315620 1.014811
H1    H     H_    0.928947 0.361403 0.711894 0.177869
H2    H     H_    0.058702 0.245896 0.352451 0.150300
H3    H     H_    0.915234 0.393100 0.204318 0.106439
H4    H     H_    0.085831 0.756046 0.588837 0.130481
H5    H     H_    0.073025 0.680671 0.344609 0.121906
H6    H     H_    0.941200 0.755271 0.586237 0.140093
H7    H     H_    0.666415 0.805508 0.263229 0.316809
H8    H     H_    0.890091 0.008938 0.439082 0.335087
H9    H     H_    0.088464 0.559801 0.799111 0.113945
H10   H     H_    0.944833 0.571508 0.795799 0.115315
H11   H     H_    0.928297 0.679644 0.342522 0.123137
H12   H     H_    0.489177 0.958045 0.287693 0.146028
H13   H     H_    0.510892 0.041968 0.712368 0.141896
H14   H     H_    0.433234 0.374114 0.949067 0.216058
H15   H     H_    0.072931 0.350090 0.698109 0.142315
H16   H     H_    0.057163 0.379961 0.206033 0.093424
N1    N     N_2   0.476670 0.456430 0.038530 -0.261670
N2    N     N_2   0.523330 0.543570 0.961470 -0.153683
O1    O     O_R   0.506050 0.286130 0.619770 -0.522643
O2    O     O_R   0.618958 0.715332 0.231157 -0.664876
O3    O     O_2   0.840518 0.136058 0.204882 -0.508574
O4    O     O_R   0.923050 0.117187 0.459342 -0.728828
O5    O     O_R   0.490330 0.256780 0.308370 -0.502662
O6    O     O_R   0.387300 0.514690 0.655770 -0.520963
O7    O     O_R   0.371580 0.485340 0.344370 -0.507533
O8    O     O_R   0.509670 0.743220 0.691630 -0.470487
O9    O     O_R   0.493950 0.713870 0.380230 -0.462737
O10   O     O_R   0.628420 0.514660 0.655630 -0.469042
O11   O     O_R   0.612700 0.485310 0.344230 -0.442461
O12   O     O_2   0.625354 0.739760 0.947741 -0.487052

loop_
_geom_bond_atom_site_label_1
_geom_bond_atom_site_label_2
_ccdc_geom_bond_type
C2    H13   S    
C6    C10   S    
C7    C10   S    
C2    C4    S    
C5    C9    S    
C8    C13   S    
H7    O2    S    
C3    O6    A    
C14   C17   S    
C4    O9    A    
Cu1   O8    S    
C20   H12   S    
C16   H5    S    
Cu2   O7    S    
C6    H15   S    
C7    C8    S    
C10   C16   S    
Cu1   Cu2   S    
C12   H10   S    
C3    C19   S    
C8    H3    S    
H8    O4    S    
C12   H1    S    
C1    O5    A    
C15   H6    S    
Cu1   N2    S    
C10   C18   S    
Cu2   O9    S    
Cu1   O1    S    
Cu2   N1    S    
C6    C12   S    
C3    O7    A    
Cu1   O10   S    
C7    H16   S    
C12   C14   S    
C6    H9    S    
C9    C17   T    
H14   N1    S    
C16   H4    S    
C11   N2    S    
C5    O10   A    
C2    C20   D    
C7    H2    S    
C13   O3    D    
Cu2   O5    S    
C11   O2    S    
Cu1   O6    S    
C4    O8    A    
C1    O1    A    
N1    N2    D    
C14   C15   S    
C18   C19   T    
C1    C20   S    
C8    C14   S    
C11   O12   D    
C15   H11   S    
C13   O4    S    
C5    O11   A    
C15   C16   S    
Cu2   O11   S    
