data_mof_unit_50645.cif
_audit_creation_date              2012-12-10T19:21:57-0500
_audit_creation_method            fapswitch 2.2
_symmetry_space_group_name_H-M    P1
_symmetry_Int_Tables_number       1
_space_group_crystal_system       triclinic
_cell_length_a                    8.727454
_cell_length_b                    17.796534
_cell_length_c                    16.575637
_cell_angle_alpha                 90.119391
_cell_angle_beta                  97.960855
_cell_angle_gamma                 93.477854
_cell_volume                      2544.85238675

loop_
_atom_site_label
_atom_site_type_symbol
_atom_type_description
_atom_site_fract_x
_atom_site_fract_y
_atom_site_fract_z
_atom_type_partial_charge
C1    C     C_R   0.514223 0.355907 0.500900 0.820985
C2    C     C_R   0.485781 0.644093 0.499100 0.820977
C3    C     C_1   0.496632 0.966277 0.499683 -0.007589
C4    C     C_1   0.503373 0.033724 0.500249 -0.007591
C5    C     C_R   0.608952 0.544411 0.838534 -0.266504
C6    C     C_R   0.391065 0.455581 0.161467 -0.266510
C7    C     C_R   0.610290 0.543482 0.752987 0.338464
C8    C     C_R   0.389722 0.456511 0.247013 0.338447
C9    C     C_R   0.390288 0.456360 0.737162 0.347328
C10   C     C_R   0.609701 0.543648 0.262838 0.347328
C11   C     C_R   0.387993 0.458136 0.822453 -0.273829
C12   C     C_R   0.611997 0.541874 0.177547 -0.273840
C13   C     C_R   0.497832 0.501702 0.874008 0.065601
C14   C     C_R   0.502173 0.498298 0.125992 0.065605
C15   C     C_1   0.499334 0.500606 0.962985 -0.026447
C16   C     C_1   0.500672 0.499395 0.037015 -0.026447
C17   C     C_R   0.203496 0.499407 0.479210 0.879867
C18   C     C_R   0.796504 0.500595 0.520790 0.879854
C19   C     C_2   0.037642 0.497948 0.467750 -0.374204
C20   C     C_2   0.962358 0.502058 0.532249 -0.374185
C21   C     C_R   0.483096 0.846818 0.572932 0.162488
C22   C     C_R   0.517050 0.153200 0.427038 0.162478
C23   C     C_R   0.459328 0.767583 0.571748 0.117209
C24   C     C_R   0.540810 0.232436 0.428251 0.117228
C25   C     C_R   0.463590 0.726934 0.497946 -0.160967
C26   C     C_R   0.536419 0.273067 0.502050 -0.160975
C27   C     C_R   0.449008 0.766832 0.423108 0.120080
C28   C     C_R   0.550879 0.233152 0.576877 0.120064
C29   C     C_R   0.472054 0.846122 0.424301 0.161563
C30   C     C_R   0.527822 0.153862 0.575655 0.161574
C31   C     C_R   0.487086 0.885305 0.499111 0.025908
C32   C     C_R   0.512921 0.114696 0.500840 0.025905
Cu1   Cu    Cu3+1 0.499990 0.499980 0.580420 0.920549
Cu2   Cu    Cu3+1 0.500010 0.500020 0.419580 0.920546
H1    H     H_    0.977263 0.492800 0.405957 0.171540
H2    H     H_    0.022737 0.507208 0.594042 0.171535
H3    H     H_    0.697471 0.577549 0.878010 0.145693
H4    H     H_    0.302557 0.422438 0.121991 0.145691
H5    H     H_    0.300974 0.423870 0.848855 0.149579
H6    H     H_    0.699005 0.576147 0.151145 0.149581
N1    N     N_R   0.499960 0.499970 0.701210 -0.165658
N2    N     N_R   0.500040 0.500030 0.298790 -0.165656
O1    O     O_R   0.499990 0.391240 0.567930 -0.585172
O2    O     O_R   0.500010 0.608760 0.432070 -0.585167
O3    O     O_R   0.500000 0.391270 0.432120 -0.585817
O4    O     O_R   0.500000 0.608730 0.567880 -0.585822
O5    O     O_R   0.274830 0.499990 0.552240 -0.580571
O6    O     O_R   0.725170 0.500010 0.447760 -0.580587
O7    O     O_R   0.274840 0.500020 0.416420 -0.591073
O8    O     O_R   0.725160 0.499980 0.583580 -0.591070
C33   C     C_3   0.507788 0.891205 0.652554 -0.865694
H7    H     H_    0.606626 0.933610 0.652970 0.231088
H8    H     H_    0.401585 0.920412 0.659734 0.231985
H9    H     H_    0.539114 0.855684 0.706465 0.237336
C34   C     C_3   0.492517 0.108828 0.347408 -0.865684
H10   H     H_    0.393632 0.066440 0.346922 0.231089
H11   H     H_    0.461356 0.144359 0.293487 0.237337
H12   H     H_    0.598730 0.079600 0.340301 0.231975
C35   C     C_3   0.409688 0.728434 0.646077 -0.799155
H13   H     H_    0.347238 0.766051 0.681933 0.222728
H14   H     H_    0.323174 0.680976 0.628006 0.240342
H15   H     H_    0.511968 0.708583 0.685736 0.238575
C36   C     C_3   0.590583 0.271606 0.353964 -0.799144
H16   H     H_    0.653158 0.234007 0.318152 0.222718
H17   H     H_    0.488349 0.291440 0.314252 0.238584
H18   H     H_    0.677029 0.319081 0.372082 0.240328
C37   C     C_3   0.389009 0.726683 0.343034 -0.798530
H19   H     H_    0.317791 0.763270 0.300784 0.221559
H20   H     H_    0.487020 0.708201 0.313459 0.240811
H21   H     H_    0.307741 0.678020 0.352201 0.238376
C38   C     C_3   0.610762 0.273280 0.656976 -0.798543
H22   H     H_    0.681878 0.236676 0.699255 0.221568
H23   H     H_    0.692094 0.321931 0.647858 0.238392
H24   H     H_    0.512698 0.291776 0.686498 0.240808
C39   C     C_3   0.484095 0.889864 0.346599 -0.865472
H25   H     H_    0.505809 0.853906 0.295208 0.237095
H26   H     H_    0.376258 0.919369 0.328809 0.231524
H27   H     H_    0.584253 0.931991 0.356279 0.231525
C40   C     C_3   0.515630 0.110104 0.653333 -0.865482
H28   H     H_    0.493783 0.146052 0.704705 0.237095
H29   H     H_    0.415495 0.067968 0.643592 0.231528
H30   H     H_    0.623461 0.080611 0.671181 0.231532
C41   C     C_3   0.745116 0.587288 0.723911 -0.806041
H31   H     H_    0.838055 0.548899 0.717037 0.227415
H32   H     H_    0.712621 0.617671 0.667124 0.259458
H33   H     H_    0.796328 0.631259 0.769063 0.182753
C42   C     C_3   0.254905 0.412698 0.276089 -0.805998
H34   H     H_    0.287414 0.382301 0.332865 0.259451
H35   H     H_    0.161968 0.451084 0.282980 0.227419
H36   H     H_    0.203679 0.368736 0.230929 0.182750
C43   C     C_3   0.267597 0.403184 0.691108 -0.816127
H37   H     H_    0.269356 0.347370 0.721022 0.189736
H38   H     H_    0.151823 0.425073 0.693165 0.202745
H39   H     H_    0.280389 0.392012 0.627714 0.276938
C44   C     C_3   0.732375 0.596833 0.308891 -0.816106
H40   H     H_    0.848162 0.574966 0.306814 0.202725
H41   H     H_    0.730561 0.652653 0.278989 0.189758
H42   H     H_    0.719611 0.607987 0.372293 0.276943

loop_
_geom_bond_atom_site_label_1
_geom_bond_atom_site_label_2
_ccdc_geom_bond_type
C7    C41   S    
C42   H34   S    
C36   H17   S    
C5    H3    S    
C27   C29   A    
C19   C20   D    
Cu2   N2    S    
C34   H10   S    
C9    C43   S    
C44   H42   S    
C2    O4    A    
C23   C35   S    
C21   C31   A    
C22   C32   A    
C8    N2    A    
C10   N2    A    
C15   C16   T    
C18   C20   S    
C38   H24   S    
C1    O1    A    
C44   H40   S    
C2    O2    A    
C35   H15   S    
C6    H4    S    
C5    C13   A    
C23   C25   A    
C36   H18   S    
C35   H13   S    
Cu1   O4    S    
C21   C23   A    
C35   H14   S    
C33   H7    S    
Cu1   O1    S    
Cu2   O2    S    
C40   H28   S    
C17   O7    A    
C43   H37   S    
C40   H29   S    
C6    C8    A    
Cu1   O8    S    
C43   H38   S    
C37   H19   S    
C33   H8    S    
C12   H6    S    
C11   H5    S    
C39   H25   S    
C6    C14   A    
C39   H26   S    
C41   H31   S    
Cu1   Cu2   S    
Cu2   O3    S    
C3    C31   S    
C9    C11   A    
C4    C32   S    
C10   C12   A    
C30   C40   S    
C41   H32   S    
C12   C14   A    
C24   C36   S    
C13   C15   S    
C1    C26   S    
Cu1   O5    S    
C14   C16   S    
C42   H36   S    
C28   C38   S    
Cu2   O6    S    
C3    C4    T    
C21   C33   S    
C18   O8    A    
C5    C7    A    
Cu2   O7    S    
C26   C28   A    
C17   O5    A    
C24   C26   A    
C18   O6    A    
C40   H30   S    
C44   H41   S    
C22   C34   S    
C29   C39   S    
C25   C27   A    
C9    N1    A    
C33   H9    S    
Cu1   N1    S    
C8    C42   S    
C34   H11   S    
C38   H22   S    
C29   C31   A    
C19   H1    S    
C43   H39   S    
C30   C32   A    
C11   C13   A    
C1    O3    A    
C10   C44   S    
C28   C30   A    
C17   C19   S    
C2    C25   S    
C22   C24   A    
C7    N1    A    
C39   H27   S    
C27   C37   S    
C36   H16   S    
C20   H2    S    
C41   H33   S    
C34   H12   S    
C38   H23   S    
C42   H35   S    
C37   H21   S    
C37   H20   S    
