data_mof_unit_42009.cif
_audit_creation_date              2012-10-26T21:20:02-0400
_audit_creation_method            fapswitch 2.2
_symmetry_space_group_name_H-M    P1
_symmetry_Int_Tables_number       1
_space_group_crystal_system       triclinic
_cell_length_a                    13.204979
_cell_length_b                    10.753418
_cell_length_c                    9.526133
_cell_angle_alpha                 90.78529
_cell_angle_beta                  95.804069
_cell_angle_gamma                 90.685004
_cell_volume                      1345.51612302

loop_
_atom_site_label
_atom_site_type_symbol
_atom_type_description
_atom_site_fract_x
_atom_site_fract_y
_atom_site_fract_z
_atom_type_partial_charge
C1    C     C_R   0.501573 0.262486 0.499524 0.508819
C2    C     C_R   0.699396 0.502445 0.525655 0.539030
C3    C     C_R   0.812010 0.504156 0.539139 -0.009957
C4    C     C_R   0.187989 0.495823 0.460862 -0.009982
C5    C     C_R   0.028578 0.520895 0.315200 -0.083016
C6    C     C_R   0.971419 0.479065 0.684797 -0.082990
C7    C     C_R   0.133637 0.508722 0.326551 0.243077
C8    C     C_R   0.866360 0.491239 0.673447 0.243060
C9    C     C_R   0.133531 0.484865 0.581877 -0.018568
C10   C     C_R   0.866468 0.515118 0.418125 -0.018560
C11   C     C_R   0.026461 0.490744 0.567088 -0.021589
C12   C     C_R   0.498427 0.737514 0.500476 0.508821
C13   C     C_R   0.973538 0.509231 0.432913 -0.021621
C14   C     C_R   0.417973 0.065194 0.434149 -0.111330
C15   C     C_R   0.582027 0.934806 0.565853 -0.111326
C16   C     C_R   0.413308 0.935661 0.433823 -0.014009
C17   C     C_R   0.586692 0.064339 0.566177 -0.014010
C18   C     C_2   0.812853 0.532497 0.275442 0.229003
C19   C     C_2   0.187148 0.467494 0.724562 0.229004
C20   C     C_3   0.838518 0.588138 0.879732 -0.042121
C21   C     C_3   0.161478 0.411793 0.120284 -0.042103
C22   C     C_2   0.320815 0.869475 0.366952 0.246927
C23   C     C_R   0.496581 0.871321 0.501044 -0.031343
C24   C     C_2   0.679184 0.130525 0.633049 0.246935
C25   C     C_3   0.383601 0.206612 0.065609 -0.144185
C26   C     C_3   0.616419 0.793380 0.934396 -0.144187
C27   C     C_R   0.503418 0.128679 0.498957 -0.031343
C28   C     C_R   0.446202 0.410501 0.066222 0.405246
C29   C     C_R   0.553801 0.589497 0.933778 0.405230
C30   C     C_R   0.445460 0.413026 0.915849 -0.004880
C31   C     C_R   0.554543 0.586972 0.084151 -0.004870
C32   C     C_R   0.300603 0.497549 0.474345 0.539014
Cu1   Cu    Cu3+1 0.500000 0.500020 0.640660 1.043305
Cu2   Cu    Cu3+1 0.500000 0.499980 0.359340 1.043334
H1    H     H_    0.991090 0.539692 0.211602 0.151047
H2    H     H_    0.918041 0.587425 0.930619 0.113565
H3    H     H_    0.787806 0.587991 0.965335 0.190210
H4    H     H_    0.081952 0.412492 0.069407 0.113562
H5    H     H_    0.175985 0.324505 0.180374 0.135353
H6    H     H_    0.212183 0.411932 0.034672 0.190212
H7    H     H_    0.313063 0.769342 0.373987 0.147033
H8    H     H_    0.686938 0.230658 0.626012 0.147040
H9    H     H_    0.458345 0.177624 0.032150 0.121383
H10   H     H_    0.323499 0.205419 0.975166 0.096355
H11   H     H_    0.360737 0.136317 0.140547 0.172030
H12   H     H_    0.008904 0.460250 0.788393 0.151093
H13   H     H_    0.676525 0.794562 0.024836 0.096358
H14   H     H_    0.541679 0.822378 0.967863 0.121375
H15   H     H_    0.639287 0.863674 0.859460 0.172037
H16   H     H_    0.353988 0.117670 0.387045 0.161539
H17   H     H_    0.646011 0.882330 0.612958 0.161542
H18   H     H_    0.401204 0.346235 0.849132 0.102109
H19   H     H_    0.598802 0.653759 0.150869 0.102124
H20   H     H_    0.775589 0.619727 0.249394 0.084421
H21   H     H_    0.224477 0.380302 0.750583 0.084478
H22   H     H_    0.824022 0.675435 0.819658 0.135361
N1    N     N_R   0.500030 0.500030 0.852080 -0.227407
N2    N     N_R   0.499970 0.499970 0.147920 -0.227401
O1    O     O_R   0.499990 0.319660 0.618740 -0.536001
O2    O     O_2   0.191426 0.552150 0.811778 -0.495232
O3    O     O_3   0.816339 0.481240 0.793830 -0.520575
O4    O     O_3   0.183657 0.518704 0.206165 -0.520556
O5    O     O_2   0.251499 0.926323 0.303173 -0.504668
O6    O     O_2   0.748499 0.073677 0.696831 -0.504664
O7    O     O_3   0.389352 0.324295 0.133921 -0.543288
O8    O     O_3   0.610654 0.675700 0.866078 -0.543289
O9    O     O_R   0.500010 0.680340 0.381260 -0.536002
O10   O     O_R   0.499990 0.319630 0.381170 -0.447095
O11   O     O_R   0.500010 0.680370 0.618830 -0.447099
O12   O     O_R   0.349000 0.499990 0.599490 -0.515953
O13   O     O_R   0.651000 0.500010 0.400510 -0.515903
O14   O     O_R   0.348990 0.499960 0.361920 -0.419355
O15   O     O_R   0.651010 0.500040 0.638080 -0.419363
O16   O     O_2   0.808504 0.447805 0.188260 -0.495191

loop_
_geom_bond_atom_site_label_1
_geom_bond_atom_site_label_2
_ccdc_geom_bond_type
Cu2   O9    S    
C24   O6    D    
C6    C8    A    
C12   O11   A    
C7    O4    S    
C15   C17   A    
C15   H17   S    
C19   O2    D    
C11   C13   A    
Cu2   N2    S    
C18   O16   D    
C17   C27   A    
C5    C13   A    
C21   H5    S    
C26   H14   S    
C8    O3    S    
C20   H22   S    
C25   H9    S    
C15   C23   A    
C28   O7    S    
C4    C9    A    
Cu1   O1    S    
C3    C10   A    
C4    C32   S    
C24   H8    S    
C31   H19   S    
C29   C31   A    
C20   H3    S    
C9    C11   A    
C12   C23   S    
C21   O4    S    
C14   H16   S    
C21   H6    S    
C26   H13   S    
C10   C18   S    
C4    C7    A    
C5    H1    S    
C25   H10   S    
C28   C30   A    
Cu1   O11   S    
Cu2   O14   S    
Cu1   N1    S    
C2    C3    S    
C16   C23   A    
C28   N2    A    
C1    O1    A    
C2    O15   A    
Cu1   O12   S    
Cu1   Cu2   S    
C14   C27   A    
C12   O9    A    
C14   C16   A    
C22   H7    S    
C18   H20   S    
C25   H11   S    
C19   H21   S    
C29   O8    S    
C26   O8    S    
C30   N1    A    
C17   C24   S    
C6    C11   A    
C1    O10   A    
C25   O7    S    
C31   N2    A    
C1    C27   S    
C3    C8    A    
C29   N1    A    
C26   H15   S    
Cu1   O15   S    
C20   O3    S    
C5    C7    A    
C30   H18   S    
C32   O12   A    
C6    H12   S    
C22   O5    D    
Cu2   O13   S    
C9    C19   S    
C21   H4    S    
C2    O13   A    
C16   C22   S    
Cu2   O10   S    
C32   O14   A    
C10   C13   A    
C20   H2    S    
