data_mof_unit_48240.cif
_audit_creation_date              2012-12-10T17:48:58-0500
_audit_creation_method            fapswitch 2.2
_symmetry_space_group_name_H-M    P1
_symmetry_Int_Tables_number       1
_space_group_crystal_system       triclinic
_cell_length_a                    10.768598
_cell_length_b                    14.771208
_cell_length_c                    14.942856
_cell_angle_alpha                 64.562248
_cell_angle_beta                  104.73854
_cell_angle_gamma                 103.995988
_cell_volume                      2051.77169223

loop_
_atom_site_label
_atom_site_type_symbol
_atom_type_description
_atom_site_fract_x
_atom_site_fract_y
_atom_site_fract_z
_atom_type_partial_charge
C1    C     C_R   0.485656 0.119128 0.313156 0.764673
C2    C     C_3   0.877153 0.006154 0.492810 -0.044149
C3    C     C_3   0.948780 0.953832 0.601874 0.248931
C4    C     C_3   0.947765 0.116964 0.445742 -0.382524
C5    C     C_R   0.487730 0.183805 0.206614 -0.048198
C6    C     C_R   0.538352 0.810260 0.793812 -0.079022
C7    C     C_R   0.434242 0.207975 0.031735 -0.179404
C8    C     C_R   0.439444 0.143945 0.132614 -0.196779
C9    C     C_R   0.539000 0.286342 0.178595 -0.235116
C10   C     C_R   0.518836 0.354644 0.077549 0.084865
C11   C     C_R   0.468340 0.313115 0.003933 0.100366
C12   C     C_R   0.258910 0.003910 0.492841 0.836068
C13   C     C_R   0.540799 0.461952 0.048399 0.011367
C14   C     C_R   0.507242 0.526797 0.944904 -0.044980
C15   C     C_R   0.447040 0.480123 0.874601 0.385958
C16   C     C_R   0.442958 0.376307 0.903648 -0.330772
C17   C     C_R   0.586836 0.505771 0.120726 -0.205894
C18   C     C_R   0.595732 0.608614 0.094557 -0.237634
C19   C     C_R   0.568641 0.673534 0.994573 0.165475
C20   C     C_R   0.530847 0.634547 0.918151 0.091431
C21   C     C_R   0.583000 0.778063 0.970357 -0.202175
C22   C     C_R   0.565304 0.845909 0.870473 -0.218686
C23   C     C_R   0.523380 0.879869 0.687287 0.799332
C24   C     C_R   0.524305 0.705748 0.818279 -0.232138
C25   C     C_R   0.748729 0.297898 0.642820 -0.301964
C26   C     C_R   0.701650 0.212115 0.621042 -0.029325
C27   C     C_R   0.509660 0.280597 0.521496 0.575137
C28   C     C_R   0.547174 0.365669 0.551198 -0.131518
C29   C     C_R   0.672948 0.375293 0.606805 0.058170
C30   C     C_R   0.469204 0.443824 0.522823 0.010185
C31   C     C_R   0.525594 0.538412 0.533815 -0.009198
C32   C     C_R   0.653209 0.542679 0.592207 0.404940
C33   C     C_R   0.723964 0.462473 0.625550 -0.279596
C34   C     C_R   0.739291 0.003378 0.495682 0.833129
C35   C     C_R   0.335058 0.428717 0.486331 -0.187745
C36   C     C_R   0.265055 0.508919 0.437971 -0.245312
C37   C     C_R   0.322062 0.605623 0.433517 0.157645
C38   C     C_R   0.449728 0.621802 0.486256 0.005497
C39   C     C_R   0.248530 0.685196 0.380431 -0.313410
C40   C     C_R   0.296827 0.779886 0.383985 0.072389
C41   C     C_R   0.491928 0.720850 0.487412 0.028078
C42   C     C_3   0.022801 0.958584 0.413480 0.851849
C43   C     C_3   0.881219 0.949678 0.426899 -0.504395
C44   C     C_3   0.092485 0.952601 0.600354 0.154243
C45   C     C_3   0.093653 0.116608 0.452454 -0.458472
C46   C     C_3   0.119432 0.004989 0.489667 -0.081823
Cu1   Cu    Cu3+1 0.465900 0.918260 0.475680 0.940548
Cu2   Cu    Cu3+1 0.534100 0.081740 0.524320 0.964048
H1    H     H_    0.938730 0.163471 0.485165 0.215801
H2    H     H_    0.156515 0.999775 0.641296 0.115055
H3    H     H_    0.406475 0.343741 0.847507 0.158484
H4    H     H_    0.575595 0.926131 0.853380 0.153650
H5    H     H_    0.627571 0.637912 0.153292 0.138130
H6    H     H_    0.395039 0.175971 0.975384 0.128442
H7    H     H_    0.403854 0.063810 0.152401 0.150760
H8    H     H_    0.592555 0.310394 0.237393 0.132512
H9    H     H_    0.614443 0.462769 0.199620 0.126787
H10   H     H_    0.609049 0.807414 0.028932 0.134018
H11   H     H_    0.822445 0.469563 0.666099 0.142299
H12   H     H_    0.237443 0.839401 0.347002 0.140195
H13   H     H_    0.164166 0.494655 0.404757 0.144206
H14   H     H_    0.844602 0.303835 0.687511 0.147412
H15   H     H_    0.760752 0.152971 0.648956 0.180772
H16   H     H_    0.820502 0.984305 0.351767 0.198236
H17   H     H_    0.282239 0.354792 0.492633 0.191405
H18   H     H_    0.152112 0.673195 0.338789 0.134910
H19   H     H_    0.829197 0.871448 0.455877 0.165829
H20   H     H_    0.897416 0.875036 0.631664 0.090008
H21   H     H_    0.152386 0.152763 0.504756 0.207427
H22   H     H_    0.123397 0.164905 0.378190 0.228201
H23   H     H_    0.902289 0.153677 0.365663 0.183475
N1    N     N_R   0.585360 0.204570 0.560800 -0.210637
N2    N     N_R   0.414550 0.795430 0.439160 -0.202707
O1    O     O_R   0.455060 0.022100 0.338110 -0.606157
O2    O     O_R   0.512640 0.160150 0.379180 -0.567517
O3    O     O_R   0.288900 0.930980 0.479450 -0.551608
O4    O     O_R   0.346480 0.069030 0.520520 -0.554899
O5    O     O_R   0.487360 0.839850 0.620820 -0.582095
O6    O     O_R   0.544940 0.977900 0.661890 -0.592697
O7    O     O_R   0.653520 0.930970 0.479480 -0.614834
O8    O     O_R   0.711100 0.069020 0.520550 -0.564241
O9    O     O_3   0.053090 0.865780 0.420430 -0.630962
C47   C     C_3   0.011896 0.772987 0.497047 0.110461
H24   H     H_    0.962111 0.777517 0.550663 0.191328
H25   H     H_    0.099415 0.738288 0.542143 0.204945
C48   C     C_3   0.924162 0.702172 0.449340 -0.839888
H26   H     H_    0.972658 0.695538 0.395699 0.240839
H27   H     H_    0.902862 0.625746 0.508480 0.230664
H28   H     H_    0.831396 0.731681 0.408468 0.248761
O10   O     O_3   0.942131 0.009189 0.658196 -0.587075
C49   C     C_3   0.958571 0.951013 0.762953 0.047475
H29   H     H_    0.063299 0.960602 0.795436 0.137932
H30   H     H_    0.919319 0.869100 0.782964 0.139190
C50   C     C_3   0.888580 0.991138 0.811457 -0.800522
H31   H     H_    0.783557 0.985098 0.779634 0.254430
H32   H     H_    0.900931 0.945933 0.893872 0.203144
H33   H     H_    0.929014 0.071744 0.797639 0.235073
H34   H     H_    0.513725 0.682459 0.757753 0.221327
O11   O     O_3   0.028095 0.034170 0.313292 -0.617000
C51   C     C_3   0.099387 0.016622 0.256410 0.096312
H35   H     H_    0.052216 0.947528 0.241400 0.179064
H36   H     H_    0.201057 0.009874 0.295020 0.165939
C52   C     C_3   0.101443 0.106064 0.155461 -0.853686
H37   H     H_    0.151903 0.176343 0.166731 0.249576
H38   H     H_    0.153360 0.091834 0.108505 0.207018
H39   H     H_    0.000596 0.116612 0.115322 0.258308
O12   O     O_3   0.389547 0.533697 0.777343 -0.611689
C53   C     C_3   0.253460 0.501912 0.765058 0.062399
H40   H     H_    0.209578 0.526337 0.809057 0.149374
H41   H     H_    0.225522 0.418316 0.789636 0.139171
C54   C     C_3   0.195858 0.548547 0.654322 -0.798447
H42   H     H_    0.213412 0.505435 0.614797 0.252205
H43   H     H_    0.089502 0.545319 0.645209 0.193143
H44   H     H_    0.242640 0.628336 0.620294 0.266971
H45   H     H_    0.583151 0.740506 0.528849 0.203476
O13   O     O_3   0.402114 0.275471 0.448889 -0.588408
C55   C     C_3   0.427159 0.349532 0.353845 0.075335
H46   H     H_    0.435694 0.427982 0.348265 0.142777
H47   H     H_    0.519614 0.343639 0.339046 0.138680
C56   C     C_3   0.315878 0.335447 0.272476 -0.787560
H48   H     H_    0.224437 0.347734 0.284099 0.232052
H49   H     H_    0.336492 0.391005 0.197276 0.213053
H50   H     H_    0.303121 0.257648 0.275079 0.248007
O14   O     O_3   0.713036 0.624563 0.617237 -0.622309
C57   C     C_3   0.720162 0.595428 0.721621 0.058148
H51   H     H_    0.777798 0.532417 0.767822 0.145126
H52   H     H_    0.621324 0.571422 0.740897 0.190468
C58   C     C_3   0.786523 0.684413 0.750360 -0.861225
H53   H     H_    0.733523 0.750050 0.705066 0.247870
H54   H     H_    0.787578 0.663274 0.831372 0.216716
H55   H     H_    0.888259 0.705271 0.736999 0.253897
O15   O     O_3   0.120834 0.852099 0.645262 -0.628178
C59   C     C_3   0.187849 0.827312 0.744965 0.033969
H56   H     H_    0.129524 0.832152 0.793280 0.128356
H57   H     H_    0.283224 0.877201 0.747459 0.152991
C60   C     C_3   0.210651 0.718442 0.787574 -0.785366
H58   H     H_    0.265705 0.709599 0.739238 0.278432
H59   H     H_    0.266494 0.697697 0.865301 0.215644
H60   H     H_    0.116075 0.667342 0.789136 0.227552

loop_
_geom_bond_atom_site_label_1
_geom_bond_atom_site_label_2
_ccdc_geom_bond_type
C40   H12   S    
C26   N1    A    
C32   O14   S    
C3    H20   S    
C42   O9    S    
C16   H3    S    
C58   H53   S    
C7    C8    A    
C45   C46   S    
O13   C55   S    
C7    C11   A    
C30   C35   A    
C3    O10   S    
C24   H34   S    
C1    O1    A    
Cu2   O6    S    
C53   C54   S    
C28   C29   A    
C19   C21   A    
Cu2   N1    S    
Cu1   O3    S    
C55   H47   S    
C30   C31   A    
C48   H27   S    
C35   H17   S    
C15   C16   A    
C6    C22   A    
C29   C33   A    
C53   H40   S    
C18   C19   A    
C42   C46   S    
C15   O12   S    
C20   C24   A    
C18   H5    S    
C34   O7    A    
C52   H38   S    
C54   H42   S    
C56   H49   S    
O15   C59   S    
C57   C58   S    
O12   C53   S    
C34   O8    A    
C13   C14   A    
C54   H44   S    
C9    C10   A    
C56   H50   S    
C27   O13   S    
C2    C34   S    
C33   H11   S    
C21   C22   A    
Cu2   O2    S    
Cu1   O7    S    
C41   H45   S    
C60   H60   S    
C8    H7    S    
C44   C46   S    
C43   H16   S    
C4    C45   S    
C25   C29   A    
C3    C44   S    
C45   H21   S    
C1    O2    A    
Cu1   Cu2   S    
C14   C20   A    
Cu1   N2    S    
C38   C41   A    
C12   C46   S    
C55   C56   S    
C49   H29   S    
C48   H26   S    
C50   H33   S    
C25   C26   A    
C48   H28   S    
C51   C52   S    
C35   C36   A    
Cu2   O4    S    
C2    C4    S    
C26   H15   S    
C5    C9    A    
C37   C38   A    
C57   H52   S    
C49   H30   S    
C11   C16   A    
C47   H24   S    
C2    C43   S    
C6    C24   A    
C12   O4    A    
C51   H36   S    
C17   C18   A    
C54   H43   S    
C9    H8    S    
C50   H32   S    
C59   C60   S    
C60   H59   S    
C47   H25   S    
C12   O3    A    
C57   H51   S    
C39   H18   S    
C1    C5    S    
C42   C43   S    
C36   H13   S    
C58   H55   S    
C39   C40   A    
C56   H48   S    
C22   H4    S    
C44   H2    S    
C36   C37   A    
C45   H22   S    
C31   C32   A    
Cu1   O1    S    
C60   H58   S    
C10   C13   A    
C58   H54   S    
C5    C8    A    
C31   C38   A    
C44   O15   S    
C7    H6    S    
O11   C51   S    
C13   C17   A    
C4    H1    S    
C32   C33   A    
C19   C20   A    
C28   C30   A    
C2    C3    S    
C21   H10   S    
C37   C39   A    
C42   O11   S    
C49   C50   S    
O10   C49   S    
C59   H56   S    
Cu2   O8    S    
C6    C23   S    
C51   H35   S    
C53   H41   S    
C52   H39   S    
C25   H14   S    
C23   O5    A    
C50   H31   S    
C10   C11   A    
C41   N2    A    
C47   C48   S    
C43   H19   S    
O9    C47   S    
C52   H37   S    
C59   H57   S    
C14   C15   A    
Cu1   O5    S    
C23   O6    A    
C40   N2    A    
C55   H46   S    
C4    H23   S    
C27   N1    A    
C17   H9    S    
O14   C57   S    
C27   C28   A    
