data_mof_unit_66012.cif
_audit_creation_date              2012-12-10T18:01:12-0500
_audit_creation_method            fapswitch 2.2
_symmetry_space_group_name_H-M    P1
_symmetry_Int_Tables_number       1
_space_group_crystal_system       orthorhombic
_cell_length_a                    18.326831
_cell_length_b                    18.336842
_cell_length_c                    25.851441
_cell_angle_alpha                 90.0
_cell_angle_beta                  90.0
_cell_angle_gamma                 90.0
_cell_volume                      8687.53714093

loop_
_atom_site_label
_atom_site_type_symbol
_atom_type_description
_atom_site_fract_x
_atom_site_fract_y
_atom_site_fract_z
_atom_type_partial_charge
C1    C     C_R   0.859882 0.140128 0.749977 0.784747
C2    C     C_R   0.196264 0.196270 0.250012 0.010634
C3    C     C_R   0.243788 0.690387 0.216576 -0.195056
C4    C     C_R   0.196265 0.196270 0.749988 0.010634
C5    C     C_R   0.803736 0.196271 0.749987 0.010556
C6    C     C_R   0.303735 0.696270 0.750012 0.010634
C7    C     C_R   0.696264 0.696271 0.750012 0.010556
C8    C     C_R   0.696264 0.696271 0.249987 0.010556
C9    C     C_R   0.303735 0.696270 0.249988 0.010635
C10   C     C_R   0.809647 0.256151 0.216566 -0.193215
C11   C     C_R   0.190337 0.256166 0.216582 -0.193313
C12   C     C_R   0.190337 0.256166 0.783418 -0.193313
C13   C     C_R   0.140118 0.140128 0.749978 0.784716
C14   C     C_R   0.809647 0.256151 0.783433 -0.193215
C15   C     C_R   0.309663 0.756166 0.716582 -0.193314
C16   C     C_R   0.690352 0.756150 0.716566 -0.193215
C17   C     C_R   0.690352 0.756151 0.283434 -0.193215
C18   C     C_R   0.309663 0.756166 0.283418 -0.193314
C19   C     C_R   0.256191 0.809628 0.716561 -0.195008
C20   C     C_R   0.743825 0.809611 0.716545 -0.194758
C21   C     C_R   0.743825 0.809611 0.283454 -0.194758
C22   C     C_R   0.256191 0.809628 0.283438 -0.195009
C23   C     C_R   0.756175 0.309611 0.216545 -0.194758
C24   C     C_R   0.140118 0.140128 0.250022 0.784717
C25   C     C_R   0.243809 0.309628 0.216561 -0.195009
C26   C     C_R   0.243809 0.309628 0.783438 -0.195009
C27   C     C_R   0.756175 0.309611 0.783454 -0.194758
C28   C     C_R   0.196244 0.803745 0.749974 0.010665
C29   C     C_R   0.803756 0.803745 0.749973 0.010586
C30   C     C_R   0.803756 0.803745 0.250027 0.010586
C31   C     C_R   0.196244 0.803745 0.250026 0.010665
C32   C     C_R   0.696244 0.303745 0.249973 0.010586
C33   C     C_R   0.303756 0.303745 0.249974 0.010665
C34   C     C_R   0.303756 0.303745 0.750026 0.010665
C35   C     C_R   0.859882 0.140128 0.250022 0.784748
C36   C     C_R   0.696243 0.303745 0.750027 0.010586
C37   C     C_R   0.999999 0.933632 0.973336 -0.197556
C38   C     C_R   0.999999 0.933632 0.026663 -0.197556
C39   C     C_R   0.500000 0.433632 0.473336 -0.197556
C40   C     C_R   0.500000 0.433632 0.526663 -0.197556
C41   C     C_R   1.000000 0.999991 0.053408 0.016907
C42   C     C_R   1.000000 0.999991 0.946592 0.016907
C43   C     C_R   0.500000 0.499991 0.553408 0.016907
C44   C     C_R   0.500000 0.499991 0.446592 0.016907
C45   C     C_R   0.999999 0.066350 0.026663 -0.197561
C46   C     C_R   0.359882 0.640128 0.249978 0.784716
C47   C     C_R   0.999999 0.066350 0.973337 -0.197561
C48   C     C_R   0.500000 0.566350 0.526663 -0.197562
C49   C     C_R   0.500000 0.566350 0.473337 -0.197561
C50   C     C_R   0.140096 0.859888 0.749966 0.784403
C51   C     C_R   0.859904 0.859888 0.749965 0.784434
C52   C     C_R   0.859904 0.859888 0.250035 0.784434
C53   C     C_R   0.140096 0.859888 0.250034 0.784403
C54   C     C_R   0.640096 0.359888 0.249965 0.784434
C55   C     C_R   0.359904 0.359888 0.249966 0.784404
C56   C     C_R   0.359904 0.359888 0.750034 0.784404
C57   C     C_R   0.640117 0.640128 0.249977 0.784747
C58   C     C_R   0.640096 0.359888 0.750035 0.784434
C59   C     C_R   1.000000 0.999996 0.890908 0.792281
C60   C     C_R   1.000000 0.999996 0.109092 0.792281
C61   C     C_R   0.500000 0.499996 0.390908 0.792281
C62   C     C_R   0.500000 0.499996 0.609092 0.792281
C63   C     C_R   0.000094 0.000017 0.608634 0.744791
C64   C     C_R   0.000094 0.000017 0.391366 0.744790
C65   C     C_R   0.499905 0.500018 0.108634 0.744790
C66   C     C_R   0.499905 0.500018 0.891366 0.744791
C67   C     C_3   0.960943 0.931275 0.529921 -0.395762
C68   C     C_R   0.640117 0.640128 0.750022 0.784748
C69   C     C_3   0.079820 0.000023 0.529716 -0.383684
C70   C     C_3   0.079820 0.000024 0.470284 -0.383681
C71   C     C_3   0.960944 0.931274 0.470079 -0.395764
C72   C     C_3   0.420180 0.500043 0.029716 -0.383682
C73   C     C_3   0.539041 0.431267 0.029921 -0.395767
C74   C     C_3   0.539042 0.431268 0.970079 -0.395764
C75   C     C_3   0.420180 0.500042 0.970284 -0.383684
C76   C     C_3   0.960938 0.068763 0.529921 -0.395775
C77   C     C_3   0.960937 0.068762 0.470079 -0.395771
C78   C     C_3   0.539078 0.568755 0.029921 -0.395769
C79   C     C_R   0.359882 0.640128 0.750022 0.784717
C80   C     C_3   0.539077 0.568755 0.970079 -0.395774
C81   C     C_3   0.000431 0.000020 0.550870 0.199876
C82   C     C_3   0.000431 0.000020 0.449130 0.199879
C83   C     C_3   0.499569 0.500022 0.050870 0.199879
C84   C     C_3   0.499569 0.500022 0.949130 0.199876
C85   C     C_R   0.190317 0.743848 0.783404 -0.193265
C86   C     C_R   0.809667 0.743864 0.783419 -0.193166
C87   C     C_R   0.809667 0.743864 0.216581 -0.193166
C88   C     C_R   0.190317 0.743848 0.216596 -0.193265
C89   C     C_R   0.690333 0.243864 0.283419 -0.193165
C90   C     C_R   0.803736 0.196271 0.250012 0.010556
C91   C     C_R   0.309683 0.243848 0.283404 -0.193265
C92   C     C_R   0.309683 0.243848 0.716596 -0.193265
C93   C     C_R   0.690333 0.243864 0.716581 -0.193165
C94   C     C_R   0.743805 0.190403 0.283440 -0.194804
C95   C     C_R   0.256211 0.190387 0.283423 -0.195056
C96   C     C_R   0.256211 0.190387 0.716576 -0.195055
C97   C     C_R   0.743805 0.190403 0.716560 -0.194804
C98   C     C_R   0.243788 0.690387 0.783423 -0.195056
C99   C     C_R   0.756195 0.690403 0.783440 -0.194804
C100  C     C_R   0.756195 0.690403 0.216560 -0.194804
H1    H     H_    0.988599 0.881210 0.544344 0.154303
H2    H     H_    0.988592 0.118829 0.544344 0.154306
H3    H     H_    0.988589 0.118830 0.455655 0.154304
H4    H     H_    0.903646 0.070227 0.455837 0.179328
H5    H     H_    0.511437 0.618828 0.044345 0.154302
H6    H     H_    0.596369 0.570208 0.044163 0.179333
H7    H     H_    0.596367 0.570210 0.955836 0.179333
H8    H     H_    0.511434 0.618828 0.955656 0.154305
H9    H     H_    0.144470 0.738215 0.809540 0.160140
H10   H     H_    0.855502 0.738243 0.809568 0.160186
H11   H     H_    0.855502 0.738243 0.190432 0.160186
H12   H     H_    0.109649 0.951041 0.543888 0.175614
H13   H     H_    0.144470 0.738215 0.190460 0.160140
H14   H     H_    0.644498 0.238243 0.309568 0.160185
H15   H     H_    0.355530 0.238215 0.309540 0.160140
H16   H     H_    0.355530 0.238215 0.690460 0.160141
H17   H     H_    0.644498 0.238243 0.690432 0.160185
H18   H     H_    0.738154 0.144611 0.309601 0.159848
H19   H     H_    0.261875 0.144581 0.309572 0.159695
H20   H     H_    0.261875 0.144581 0.690428 0.159695
H21   H     H_    0.738154 0.144611 0.690399 0.159848
H22   H     H_    0.238125 0.644582 0.809572 0.159695
H23   H     H_    0.109651 0.951044 0.456111 0.175614
H24   H     H_    0.761845 0.644611 0.809601 0.159847
H25   H     H_    0.761845 0.644611 0.190399 0.159847
H26   H     H_    0.238125 0.644582 0.190428 0.159695
H27   H     H_    0.855483 0.261769 0.190418 0.160156
H28   H     H_    0.144489 0.261797 0.190446 0.160111
H29   H     H_    0.144489 0.261797 0.809554 0.160111
H30   H     H_    0.855483 0.261769 0.809582 0.160156
H31   H     H_    0.355511 0.761797 0.690446 0.160111
H32   H     H_    0.644517 0.761769 0.690418 0.160156
H33   H     H_    0.644517 0.761769 0.309582 0.160156
H34   H     H_    0.988602 0.881210 0.455657 0.154304
H35   H     H_    0.355511 0.761797 0.309554 0.160111
H36   H     H_    0.261856 0.855433 0.690413 0.159709
H37   H     H_    0.738173 0.855403 0.690384 0.159862
H38   H     H_    0.738173 0.855403 0.309616 0.159862
H39   H     H_    0.261856 0.855433 0.309587 0.159709
H40   H     H_    0.761827 0.355403 0.190384 0.159862
H41   H     H_    0.238144 0.355433 0.190413 0.159709
H42   H     H_    0.238144 0.355433 0.809587 0.159709
H43   H     H_    0.761827 0.355403 0.809616 0.159862
H44   H     H_    0.999999 0.881828 0.953192 0.162016
H45   H     H_    0.390338 0.451070 0.043889 0.175621
H46   H     H_    0.999999 0.881828 0.046808 0.162016
H47   H     H_    0.500000 0.381828 0.453192 0.162016
H48   H     H_    0.500000 0.381828 0.546808 0.162016
H49   H     H_    0.999999 0.118156 0.046805 0.162023
H50   H     H_    0.999999 0.118155 0.953195 0.162023
H51   H     H_    0.500000 0.618156 0.546805 0.162023
H52   H     H_    0.500000 0.618156 0.453195 0.162023
H53   H     H_    0.903652 0.929805 0.544162 0.179332
H54   H     H_    0.109647 0.049006 0.543890 0.175603
H55   H     H_    0.109645 0.049008 0.456111 0.175602
H56   H     H_    0.511371 0.381209 0.044343 0.154306
H57   H     H_    0.903654 0.929802 0.455836 0.179330
H58   H     H_    0.390366 0.549034 0.043889 0.175595
H59   H     H_    0.596331 0.429782 0.044164 0.179325
H60   H     H_    0.596332 0.429785 0.955837 0.179326
H61   H     H_    0.390365 0.549031 0.956110 0.175597
H62   H     H_    0.511374 0.381209 0.955656 0.154304
H63   H     H_    0.390340 0.451068 0.956112 0.175622
H64   H     H_    0.903648 0.070230 0.544164 0.179327
O1    O     O_3   1.000000 0.000000 0.749970 -0.470610
O2    O     O_R   0.646190 0.585480 0.219360 -0.649771
O3    O     O_R   0.646190 0.585480 0.780640 -0.649771
O4    O     O_R   0.353810 0.585480 0.780640 -0.649857
O5    O     O_R   0.146170 0.914530 0.719320 -0.649824
O6    O     O_R   0.853830 0.914530 0.719320 -0.649737
O7    O     O_R   0.853830 0.914530 0.280680 -0.649737
O8    O     O_R   0.146170 0.914530 0.280680 -0.649824
O9    O     O_R   0.646170 0.414530 0.219320 -0.649737
O10   O     O_R   0.353830 0.414530 0.219320 -0.649823
O11   O     O_R   0.353830 0.414530 0.780680 -0.649823
O12   O     O_3   0.000000 0.000000 0.250030 -0.470610
O13   O     O_R   0.646170 0.414530 0.780680 -0.649737
O14   O     O_R   0.085450 0.146180 0.780600 -0.649377
O15   O     O_R   0.914550 0.146180 0.780600 -0.649391
O16   O     O_R   0.914550 0.146180 0.219400 -0.649391
O17   O     O_R   0.085450 0.146180 0.219400 -0.649377
O18   O     O_R   0.585450 0.646180 0.280600 -0.649392
O19   O     O_R   0.414550 0.646180 0.280600 -0.649377
O20   O     O_R   0.414550 0.646180 0.719400 -0.649377
O21   O     O_R   0.585450 0.646180 0.719400 -0.649392
O22   O     O_R   0.914560 0.853830 0.780620 -0.649359
O23   O     O_3   0.500000 0.500000 0.249970 -0.470610
O24   O     O_R   0.085440 0.853830 0.780620 -0.649344
O25   O     O_R   0.085440 0.853830 0.219380 -0.649344
O26   O     O_R   0.914560 0.853830 0.219380 -0.649359
O27   O     O_R   0.414560 0.353830 0.280620 -0.649344
O28   O     O_R   0.585440 0.353830 0.280620 -0.649359
O29   O     O_R   0.585440 0.353830 0.719380 -0.649359
O30   O     O_R   0.414560 0.353830 0.719380 -0.649344
O31   O     O_R   1.000000 0.060730 0.866830 -0.651973
O32   O     O_R   1.000000 0.060730 0.133170 -0.651974
O33   O     O_R   0.500000 0.560730 0.366830 -0.651973
O34   O     O_3   0.500000 0.500000 0.750030 -0.470610
O35   O     O_R   0.500000 0.560730 0.633170 -0.651974
O36   O     O_R   0.939250 0.000010 0.633130 -0.648376
O37   O     O_R   0.060750 0.000010 0.633130 -0.650894
O38   O     O_R   0.060750 0.000010 0.366870 -0.650894
O39   O     O_R   0.939250 0.000010 0.366870 -0.648377
O40   O     O_R   0.439250 0.500010 0.133130 -0.650894
O41   O     O_R   0.560750 0.500010 0.133130 -0.648376
O42   O     O_R   0.560750 0.500010 0.866870 -0.648376
O43   O     O_R   0.439250 0.500010 0.866870 -0.650894
O44   O     O_R   0.000000 0.939270 0.866820 -0.651887
O45   O     O_R   0.853810 0.085480 0.719360 -0.649771
O46   O     O_R   1.000000 0.939270 0.133180 -0.651887
O47   O     O_R   0.500000 0.439270 0.366820 -0.651887
O48   O     O_R   0.500000 0.439270 0.633180 -0.651887
O49   O     O_R   0.146190 0.085480 0.719360 -0.649857
O50   O     O_R   0.146190 0.085480 0.280640 -0.649857
O51   O     O_R   0.853810 0.085480 0.280640 -0.649771
O52   O     O_R   0.353810 0.585480 0.219360 -0.649857
Zn1   Zn    Zn3+2 0.086750 0.999990 0.706190 0.955883
Zn2   Zn    Zn3+2 0.000000 0.086770 0.206250 0.961868
Zn3   Zn    Zn3+2 0.500000 0.586770 0.293750 0.961868
Zn4   Zn    Zn3+2 0.500000 0.586770 0.706250 0.961868
Zn5   Zn    Zn3+2 1.000000 0.913230 0.793740 0.961858
Zn6   Zn    Zn3+2 1.000000 0.913230 0.206260 0.961858
Zn7   Zn    Zn3+2 0.500000 0.413230 0.293740 0.961859
Zn8   Zn    Zn3+2 0.500000 0.413230 0.706260 0.961859
Zn9   Zn    Zn3+2 0.913250 0.999990 0.706190 0.956887
Zn10  Zn    Zn3+2 0.913250 0.999990 0.293810 0.956887
Zn11  Zn    Zn3+2 0.086750 0.999990 0.293810 0.955883
Zn12  Zn    Zn3+2 0.586750 0.499990 0.206190 0.956887
Zn13  Zn    Zn3+2 0.413250 0.499990 0.206190 0.955883
Zn14  Zn    Zn3+2 0.413250 0.499990 0.793810 0.955883
Zn15  Zn    Zn3+2 0.586750 0.499990 0.793810 0.956887
Zn16  Zn    Zn3+2 1.000000 0.086770 0.793750 0.961868

loop_
_geom_bond_atom_site_label_1
_geom_bond_atom_site_label_2
_ccdc_geom_bond_type
C44   C49   A    
C59   O44   A    
C80   H8    S    
O5    Zn1   S    
C34   C56   S    
O46   Zn6   S    
C37   H44   S    
C93   C97   A    
O6    Zn9   S    
C94   H18   S    
C73   C74   S    
O16   Zn2   S    
C80   C84   S    
C50   O24   A    
C71   H34   S    
C3    H26   S    
O1    Zn5   S    
O23   Zn3   S    
C79   O20   A    
O18   Zn3   S    
C15   C19   A    
C80   H7    S    
C60   O32   A    
C4    C13   S    
O12   Zn6   S    
C63   C81   S    
C78   H5    S    
C1    C5    S    
C6    C98   A    
C54   O9    A    
O40   Zn13  S    
C2    C95   A    
O21   Zn4   S    
O42   Zn15  S    
C62   O35   A    
C85   H9    S    
O26   Zn6   S    
C29   C51   S    
C66   O42   A    
C69   H12   S    
C78   C80   S    
C75   C84   S    
C65   C83   S    
C65   O41   A    
C88   H13   S    
C13   O14   A    
C92   C96   A    
C72   H58   S    
C63   O36   A    
O41   Zn12  S    
C75   H63   S    
C61   O47   A    
C13   O49   A    
C89   C94   A    
C38   H46   S    
C10   C23   A    
C97   H21   S    
C85   C98   A    
C53   O8    A    
C6    C15   A    
C4    C96   A    
C24   O50   A    
C78   C83   S    
C26   C34   A    
C40   C43   A    
O31   Zn16  S    
O1    Zn16  S    
C27   H43   S    
C47   H50   S    
C53   O25   A    
C62   O48   A    
C14   C27   A    
C4    C12   A    
C43   C48   A    
O50   Zn11  S    
C45   H49   S    
O1    Zn1   S    
C42   C47   A    
C71   C82   S    
O19   Zn3   S    
O24   Zn5   S    
C76   H64   S    
C45   C47   A    
C67   H53   S    
C7    C68   S    
C9    C46   S    
O11   Zn14  S    
O12   Zn2   S    
O45   Zn9   S    
C21   H38   S    
C30   C87   A    
C72   C75   S    
C16   H32   S    
C2    C11   A    
C70   H23   S    
C52   O7    A    
C32   C54   S    
C57   O18   A    
C96   H20   S    
C90   C94   A    
C20   C29   A    
O29   Zn8   S    
C76   H2    S    
C71   H57   S    
C25   H41   S    
C12   H29   S    
C40   H48   S    
C56   O11   A    
C1    O45   A    
C100  H25   S    
C77   H3    S    
C23   H40   S    
C76   C77   S    
O28   Zn7   S    
C38   C41   A    
C22   C31   A    
C61   O33   A    
C39   C40   A    
C74   H62   S    
C28   C50   S    
O34   Zn15  S    
C57   O2    A    
C95   H19   S    
C19   H36   S    
C66   C84   S    
C22   H39   S    
O9    Zn12  S    
C17   C21   A    
C70   H55   S    
C12   C26   A    
C55   O27   A    
C20   H37   S    
C76   C81   S    
O34   Zn8   S    
C68   O3    A    
C55   O10   A    
O14   Zn16  S    
C37   C38   A    
C19   C28   A    
C8    C57   S    
C32   C89   A    
O7    Zn10  S    
C16   C20   A    
O47   Zn7   S    
C37   C42   A    
O1    Zn9   S    
O52   Zn13  S    
C29   C86   A    
C15   H31   S    
C18   H35   S    
C52   O26   A    
C31   C53   S    
C86   C99   A    
C92   H16   S    
C64   C82   S    
C5    C14   A    
C39   C44   A    
C7    C99   A    
C56   O30   A    
C66   O43   A    
C7    C16   A    
C3    C9    A    
O22   Zn5   S    
C5    C97   A    
C68   O21   A    
C67   C81   S    
C46   O52   A    
C17   H33   S    
C27   C36   A    
O48   Zn8   S    
O25   Zn6   S    
C54   O28   A    
C3    C88   A    
C10   H27   S    
O27   Zn7   S    
C28   C85   A    
C67   H1    S    
O30   Zn8   S    
C87   C100  A    
C14   H30   S    
C35   O16   A    
C98   H22   S    
O12   Zn11  S    
C64   O38   A    
C89   H14   S    
C48   C49   A    
O49   Zn1   S    
C31   C88   A    
C63   O37   A    
C49   H52   S    
C86   H10   S    
C24   O17   A    
C36   C93   A    
O33   Zn3   S    
C64   O39   A    
C51   O6    A    
O34   Zn4   S    
O35   Zn4   S    
C69   H54   S    
C41   C60   S    
C74   C84   S    
C46   O19   A    
C42   C59   S    
O13   Zn15  S    
O32   Zn2   S    
O34   Zn14  S    
O43   Zn14  S    
O3    Zn15  S    
O38   Zn11  S    
C44   C61   S    
O12   Zn10  S    
C21   C30   A    
C73   H59   S    
C58   O29   A    
C36   C58   S    
C8    C17   A    
C93   H17   S    
C74   H60   S    
C75   H61   S    
O51   Zn10  S    
C59   O31   A    
C23   C32   A    
C18   C22   A    
C11   H28   S    
O44   Zn5   S    
O37   Zn1   S    
C51   O22   A    
C41   C45   A    
C2    C24   S    
O23   Zn12  S    
C1    O15   A    
C6    C79   S    
C65   O40   A    
O23   Zn7   S    
C77   C82   S    
C73   H56   S    
O8    Zn11  S    
O4    Zn14  S    
C91   H15   S    
C78   H6    S    
C58   O13   A    
C67   C71   S    
O36   Zn9   S    
C60   O46   A    
C8    C100  A    
C69   C70   S    
C70   C82   S    
O10   Zn13  S    
C34   C92   A    
C72   C83   S    
C69   C81   S    
C50   O5    A    
C48   H51   S    
C91   C95   A    
O23   Zn13  S    
C35   C90   S    
C9    C18   A    
O20   Zn4   S    
C87   H11   S    
C10   C90   A    
O2    Zn12  S    
C79   O4    A    
C39   H47   S    
O17   Zn2   S    
C11   C25   A    
C99   H24   S    
C77   H4    S    
O15   Zn16  S    
C26   H42   S    
C35   O51   A    
C73   C83   S    
O39   Zn10  S    
C33   C55   S    
C72   H45   S    
C43   C62   S    
C25   C33   A    
C30   C52   S    
C33   C91   A    
