data_mof_unit_36194.cif
_audit_creation_date              2012-12-10T16:38:37-0500
_audit_creation_method            fapswitch 2.2
_symmetry_space_group_name_H-M    P1
_symmetry_Int_Tables_number       1
_space_group_crystal_system       triclinic
_cell_length_a                    10.857901
_cell_length_b                    10.857026
_cell_length_c                    17.828763
_cell_angle_alpha                 98.119709
_cell_angle_beta                  72.968313
_cell_angle_gamma                 98.554182
_cell_volume                      1976.5721937

loop_
_atom_site_label
_atom_site_type_symbol
_atom_type_description
_atom_site_fract_x
_atom_site_fract_y
_atom_site_fract_z
_atom_type_partial_charge
C1    C     C_R   0.158245 0.480658 0.516815 0.750339
C2    C     C_R   0.635870 0.434053 0.916244 -0.291989
C3    C     C_R   0.709731 0.384625 0.954362 0.476459
C4    C     C_R   0.843056 0.520582 0.482834 0.899037
C5    C     C_R   0.680591 0.403451 0.037406 -0.140782
C6    C     C_R   0.577858 0.475932 0.080004 -0.070015
C7    C     C_R   0.748765 0.348744 0.078763 0.556990
C8    C     C_R   0.704714 0.357806 0.161650 -0.393550
C9    C     C_R   0.523529 0.464776 0.161514 0.480931
C10   C     C_2   0.980609 0.523445 0.475597 -0.445416
C11   C     C_2   0.020785 0.470384 0.526854 0.360404
C12   C     C_R   0.314973 0.661137 0.843012 -0.312364
C13   C     C_2   0.548748 0.970143 0.483557 0.149624
C14   C     C_2   0.450018 0.036088 0.524348 0.294708
C15   C     C_R   0.467310 0.168773 0.517803 0.840200
C16   C     C_R   0.531549 0.833624 0.483684 0.812426
C17   C     C_R   0.564045 0.436899 0.287988 0.844349
C18   C     C_R   0.438950 0.565585 0.711993 0.834477
C19   C     C_R   0.420695 0.599223 0.797027 -0.118775
C20   C     C_R   0.593432 0.413976 0.202387 -0.189151
C21   C     C_R   0.300635 0.694457 0.923199 -0.183585
C22   C     C_3   0.957908 0.297404 0.069659 0.092686
C23   C     C_R   0.512874 0.572909 0.832097 0.427736
C24   C     C_3   0.018417 0.434237 0.078752 -0.448226
C25   C     C_3   0.135198 0.443843 0.111248 -0.831126
C26   C     C_3   0.958040 0.310991 0.609932 0.061230
C27   C     C_3   0.904013 0.204892 0.557699 -0.284752
C28   C     C_3   0.923704 0.076968 0.575508 -0.961615
C29   C     C_3   0.266534 0.024833 0.631355 0.063539
C30   C     C_3   0.305387 0.959237 0.690332 -0.306342
C31   C     C_3   0.240127 0.007590 0.775278 -0.983181
C32   C     C_3   0.908105 0.373507 0.865865 0.122158
C33   C     C_3   0.010416 0.285917 0.822916 -0.307930
C34   C     C_R   0.483805 0.582235 0.915319 -0.015266
C35   C     C_3   0.134439 0.358732 0.777085 -1.015338
C36   C     C_3   0.719388 0.665971 0.788349 0.030512
C37   C     C_3   0.847396 0.654247 0.724391 -0.244062
C38   C     C_3   0.943368 0.771570 0.727373 -0.999543
C39   C     C_R   0.384295 0.655337 0.959639 0.081052
C40   C     C_R   0.550694 0.523284 0.955645 -0.088957
C41   C     C_R   0.525732 0.549168 0.038642 0.059835
C42   C     C_R   0.452177 0.649486 0.077016 0.532155
C43   C     C_R   0.374538 0.694346 0.038753 -0.375102
H1    H     H_    0.308975 0.762525 0.070297 0.149207
H2    H     H_    0.946591 0.492864 0.119908 0.227950
H3    H     H_    0.108283 0.398864 0.166934 0.264654
H4    H     H_    0.169134 0.543838 0.124298 0.276401
H5    H     H_    0.215450 0.398220 0.067478 0.264624
H6    H     H_    0.906037 0.298112 0.672473 0.168866
H7    H     H_    0.062011 0.305264 0.603887 0.117303
H8    H     H_    0.798664 0.209545 0.568091 0.264364
H9    H     H_    0.953438 0.215796 0.494540 0.221202
H10   H     H_    0.028801 0.068576 0.562212 0.274795
H11   H     H_    0.880811 0.002226 0.538246 0.275948
H12   H     H_    0.050569 0.566146 0.426303 0.124086
H13   H     H_    0.875701 0.063544 0.638485 0.252837
H14   H     H_    0.729481 0.971508 0.421169 0.354548
H15   H     H_    0.159847 0.004966 0.641847 0.171737
H16   H     H_    0.287003 0.128256 0.642279 0.097641
H17   H     H_    0.276483 0.856822 0.681535 0.256714
H18   H     H_    0.412267 0.975289 0.680093 0.209074
H19   H     H_    0.273068 0.108485 0.786811 0.274001
H20   H     H_    0.266381 0.954889 0.816328 0.271165
H21   H     H_    0.133027 0.994611 0.786785 0.267842
H22   H     H_    0.365808 0.465300 0.250707 0.333086
H23   H     H_    0.753744 0.318605 0.195812 0.162345
H24   H     H_    0.950069 0.446729 0.904869 0.136134
H25   H     H_    0.882904 0.419041 0.821025 0.120065
H26   H     H_    0.033417 0.235733 0.866480 0.246673
H27   H     H_    0.971864 0.215328 0.781421 0.208502
H28   H     H_    0.113796 0.413195 0.734751 0.264050
H29   H     H_    0.205164 0.292981 0.743748 0.256413
H30   H     H_    0.178302 0.423533 0.818612 0.278069
H31   H     H_    0.739393 0.683646 0.846968 0.152960
H32   H     H_    0.676355 0.747464 0.778500 0.135564
H33   H     H_    0.891186 0.572584 0.732346 0.239074
H34   H     H_    0.222449 0.748271 0.957089 0.152765
H35   H     H_    0.828343 0.638961 0.665646 0.252094
H36   H     H_    0.902706 0.854764 0.718602 0.262512
H37   H     H_    0.034637 0.759670 0.679775 0.289819
H38   H     H_    0.966176 0.787311 0.785025 0.263641
H39   H     H_    0.407612 0.776366 0.166682 0.333834
H40   H     H_    0.245556 0.686658 0.816594 0.188420
H41   H     H_    0.646705 0.399077 0.855305 0.223983
H42   H     H_    0.033948 0.243172 0.028501 0.169825
H43   H     H_    0.931715 0.253362 0.125536 0.133265
H44   H     H_    0.049623 0.472132 0.020512 0.228264
O1    O     O_3   0.500000 0.500000 0.500000 -0.496168
O2    O     O_R   0.470800 0.371790 0.332500 -0.644030
O3    O     O_R   0.380610 0.619380 0.674980 -0.674074
O4    O     O_R   0.632640 0.524780 0.317540 -0.622750
O5    O     O_R   0.515950 0.484050 0.674980 -0.590795
O6    O     O_3   0.852791 0.282814 0.035900 -0.599239
O7    O     O_3   0.934036 0.428980 0.595581 -0.636108
O8    O     O_3   0.665942 0.032724 0.444439 -0.810211
O9    O     O_3   0.325170 0.976353 0.552898 -0.645750
O10   O     O_3   0.398610 0.494660 0.197680 -0.742980
O11   O     O_3   0.797619 0.303330 0.910671 -0.592144
O12   O     O_R   0.535460 0.243030 0.556410 -0.659537
O13   O     O_3   0.635884 0.553477 0.784263 -0.639970
O14   O     O_3   0.463602 0.707521 0.149261 -0.721728
O15   O     O_R   0.437420 0.784080 0.535340 -0.614921
O16   O     O_R   0.223560 0.397520 0.472140 -0.661219
O17   O     O_R   0.803560 0.575360 0.436110 -0.654277
O18   O     O_R   0.209690 0.568800 0.556400 -0.634738
O19   O     O_R   0.763190 0.458310 0.535350 -0.581436
O20   O     O_R   0.414000 0.207090 0.472140 -0.630244
O21   O     O_R   0.613120 0.765800 0.436110 -0.650798
Zn1   Zn    Zn3+2 0.577310 0.422690 0.565550 0.997313
Zn2   Zn    Zn3+2 0.403760 0.371330 0.445150 0.983876
Zn3   Zn    Zn3+2 0.634990 0.589920 0.423760 0.986302
Zn4   Zn    Zn3+2 0.383940 0.616050 0.565540 0.955534

loop_
_geom_bond_atom_site_label_1
_geom_bond_atom_site_label_2
_ccdc_geom_bond_type
C26   O7    S    
C8    H23   S    
C41   C42   A    
C2    H41   S    
C17   O4    A    
O3    Zn4   S    
C6    C9    A    
C28   H13   S    
C7    C8    A    
C26   C27   S    
C29   C30   S    
C13   O8    S    
O16   Zn2   S    
C34   C40   A    
C24   H2    S    
C36   C37   S    
C26   H7    S    
C30   C31   S    
O5    Zn1   S    
C38   H36   S    
C15   O20   A    
O12   Zn1   S    
C17   C20   S    
C18   C19   S    
C22   H42   S    
O4    Zn3   S    
C33   C35   S    
O1    Zn3   S    
O15   Zn4   S    
C29   H16   S    
C6    C41   A    
C30   H17   S    
C25   H4    S    
C33   H26   S    
C32   H25   S    
O1    Zn2   S    
C23   O13   S    
C35   H28   S    
C13   C14   D    
C31   H19   S    
C14   O9    S    
C27   H8    S    
C7    O6    S    
C34   C39   A    
C18   O3    A    
C31   H20   S    
C17   O2    A    
C24   C25   S    
C26   H6    S    
C5    C7    A    
C28   H11   S    
C39   C43   A    
C4    O19   A    
C12   C21   A    
C12   H40   S    
C19   C23   A    
C43   H1    S    
C37   C38   S    
C36   H32   S    
C29   O9    S    
C9    C20   A    
C21   C39   A    
C23   C34   A    
C36   O13   S    
C8    C20   A    
C10   H12   S    
C25   H5    S    
C36   H31   S    
C33   H27   S    
C32   H24   S    
O1    Zn1   S    
C11   O7    S    
C16   O15   A    
C40   C41   A    
C37   H33   S    
C35   H29   S    
C38   H38   S    
C22   O6    S    
C22   C24   S    
C30   H18   S    
C42   C43   A    
C4    C10   S    
C42   O14   S    
C27   H9    S    
C1    O16   A    
C35   H30   S    
C9    O10   S    
C31   H21   S    
O18   Zn4   S    
C15   O12   A    
C3    C5    A    
O17   Zn3   S    
C28   H10   S    
C37   H35   S    
O21   Zn3   S    
C18   O5    A    
C32   C33   S    
C2    C3    A    
H22   O10   S    
C3    O11   S    
C5    C6    A    
C38   H37   S    
C4    O17   A    
C12   C19   A    
O20   Zn2   S    
H39   O14   S    
C32   O11   S    
C22   H43   S    
C24   H44   S    
C10   C11   D    
C16   O21   A    
O1    Zn4   S    
C2    C40   A    
O2    Zn2   S    
C29   H15   S    
H14   O8    S    
C13   C16   S    
C21   H34   S    
C27   C28   S    
C14   C15   S    
C1    C11   S    
C25   H3    S    
C1    O18   A    
O19   Zn1   S    
