data_mof_unit_61618.cif
_audit_creation_date              2012-12-10T18:19:14-0500
_audit_creation_method            fapswitch 2.2
_symmetry_space_group_name_H-M    P1
_symmetry_Int_Tables_number       1
_space_group_crystal_system       triclinic
_cell_length_a                    32.24601
_cell_length_b                    32.246029
_cell_length_c                    35.61748
_cell_angle_alpha                 90.000065
_cell_angle_beta                  90.00039
_cell_angle_gamma                 90.0
_cell_volume                      37035.261344

loop_
_atom_site_label
_atom_site_type_symbol
_atom_type_description
_atom_site_fract_x
_atom_site_fract_y
_atom_site_fract_z
_atom_type_partial_charge
C1    C     C_R   0.920440 0.500000 1.000000 0.844755
C2    C     C_R   0.500000 0.079560 0.000000 0.844731
C3    C     C_R   0.079560 0.500000 0.000000 0.844753
C4    C     C_R   0.500000 0.920440 0.000000 0.844747
C5    C     C_R   0.420440 0.000000 0.500000 0.844751
C6    C     C_R   0.000000 0.579560 0.500000 0.844763
C7    C     C_R   0.579560 0.000000 0.500000 0.844738
C8    C     C_R   0.000000 0.420440 0.500000 0.844773
C9    C     C_R   0.771736 0.516456 0.969411 -0.150384
C10   C     C_R   0.515159 0.228263 0.968867 -0.150417
C11   C     C_R   0.228263 0.483616 0.969380 -0.150385
C12   C     C_R   0.483859 0.771736 0.969274 -0.150397
C13   C     C_R   0.771736 0.483545 0.030589 -0.150383
C14   C     C_R   0.516141 0.771737 0.030726 -0.150397
C15   C     C_R   0.228264 0.516385 0.030620 -0.150385
C16   C     C_R   0.484841 0.228263 0.031133 -0.150417
C17   C     C_R   0.271736 0.016151 0.469278 -0.150403
C18   C     C_R   0.016581 0.728263 0.469467 -0.150387
C19   C     C_R   0.728263 0.984542 0.468988 -0.150416
C20   C     C_R   0.982884 0.271736 0.469710 -0.150379
C21   C     C_R   0.271736 0.983850 0.530722 -0.150403
C22   C     C_R   0.017116 0.271736 0.530290 -0.150380
C23   C     C_R   0.728264 0.015458 0.531012 -0.150418
C24   C     C_R   0.983420 0.728264 0.530533 -0.150385
C25   C     C_R   0.793597 0.500000 0.000000 0.141445
C26   C     C_R   0.500000 0.206402 1.000000 0.141181
C27   C     C_R   0.206402 0.500000 1.000000 0.141430
C28   C     C_R   0.500000 0.793597 0.000000 0.141382
C29   C     C_R   0.293598 0.000000 0.500000 0.141383
C30   C     C_R   0.000000 0.706403 0.500000 0.141470
C31   C     C_R   0.706402 0.000000 0.500000 0.141243
C32   C     C_R   0.000000 0.293598 0.500000 0.141579
C33   C     C_1   0.661672 0.500000 0.000000 -0.049725
C34   C     C_1   0.500000 0.338327 1.000000 -0.049760
C35   C     C_1   0.338327 0.500000 1.000000 -0.049726
C36   C     C_1   0.500000 0.661672 0.000000 -0.049751
C37   C     C_1   0.161672 0.000000 0.500000 -0.049762
C38   C     C_1   0.000000 0.838327 0.500000 -0.049726
C39   C     C_1   0.838327 0.000000 0.500000 -0.049769
C40   C     C_1   0.000000 0.161673 0.500000 -0.049719
C41   C     C_1   0.838363 0.500000 0.000000 -0.029876
C42   C     C_1   0.500000 0.161636 1.000000 -0.029910
C43   C     C_1   0.161637 0.500000 1.000000 -0.029877
C44   C     C_1   0.500000 0.838363 0.000000 -0.029889
C45   C     C_1   0.338363 1.000000 0.500000 -0.029894
C46   C     C_1   0.000000 0.661637 0.500000 -0.029878
C47   C     C_1   0.661636 1.000000 0.500000 -0.029909
C48   C     C_1   0.000000 0.338363 0.500000 -0.029866
C49   C     C_1   0.875828 0.500000 0.000000 -0.100383
C50   C     C_1   0.500000 0.124172 1.000000 -0.100351
C51   C     C_1   0.124172 0.500000 1.000000 -0.100381
C52   C     C_1   0.500000 0.875828 0.000000 -0.100372
C53   C     C_1   0.375828 1.000000 0.500000 -0.100378
C54   C     C_1   0.000000 0.624172 0.500000 -0.100394
C55   C     C_1   0.624172 1.000000 0.500000 -0.100364
C56   C     C_1   0.000000 0.375828 0.500000 -0.100406
C57   C     C_1   0.624204 0.500000 0.000000 -0.151915
C58   C     C_1   0.500000 0.375796 1.000000 -0.151944
C59   C     C_1   0.375796 0.500000 1.000000 -0.151915
C60   C     C_1   0.500000 0.624204 0.000000 -0.151937
C61   C     C_1   0.124204 0.000000 0.500000 -0.151946
C62   C     C_1   0.000000 0.875796 0.500000 -0.151915
C63   C     C_1   0.875796 0.000000 0.500000 -0.151950
C64   C     C_1   0.000000 0.124204 0.500000 -0.151911
C65   C     C_R   0.500000 0.420418 1.000000 0.820797
C66   C     C_R   0.420418 0.500000 1.000000 0.820778
C67   C     C_R   0.500000 0.579581 0.000000 0.820763
C68   C     C_R   0.579581 0.500000 0.000000 0.820774
C69   C     C_R   0.000000 0.920418 0.500000 0.820762
C70   C     C_R   0.920418 0.000000 0.500000 0.820770
C71   C     C_R   0.000000 0.079581 0.500000 0.820742
C72   C     C_R   0.079581 0.000000 0.500000 0.820746
C73   C     C_R   0.000000 0.500000 0.927579 0.889043
C74   C     C_R   0.500000 1.000000 0.927579 0.889038
C75   C     C_R   1.000000 0.500000 0.072421 0.889043
C76   C     C_R   0.500000 0.000000 0.072421 0.889039
C77   C     C_R   0.500000 0.000000 0.427579 0.889042
C78   C     C_R   1.000000 0.500000 0.427578 0.889050
C79   C     C_R   0.500000 0.000000 0.572421 0.889043
C80   C     C_R   0.000000 0.500000 0.572421 0.889050
C81   C     C_R   0.974754 0.472244 0.673171 -0.168594
C82   C     C_R   0.472240 0.025242 0.673171 -0.168623
C83   C     C_R   0.025247 0.527756 0.673172 -0.168612
C84   C     C_R   0.527760 0.974758 0.673172 -0.168626
C85   C     C_R   0.974753 0.527756 0.326828 -0.168609
C86   C     C_R   0.472240 0.974758 0.326828 -0.168610
C87   C     C_R   0.025246 0.472245 0.326828 -0.168597
C88   C     C_R   0.527761 0.025242 0.326829 -0.168640
C89   C     C_R   0.474759 0.972240 0.173171 -0.168609
C90   C     C_R   0.972242 0.525245 0.173171 -0.168609
C91   C     C_R   0.525242 0.027762 0.173171 -0.168641
C92   C     C_R   0.027758 0.474755 0.173172 -0.168602
C93   C     C_R   0.474759 0.027761 0.826829 -0.168632
C94   C     C_R   0.972242 0.474755 0.826828 -0.168599
C95   C     C_R   0.525241 0.972240 0.826829 -0.168617
C96   C     C_R   0.027758 0.525245 0.826829 -0.168612
C97   C     C_R   0.974560 0.472035 0.633916 0.325537
C98   C     C_R   0.472031 0.025436 0.633916 0.325524
C99   C     C_R   0.025441 0.527965 0.633916 0.325533
C100  C     C_R   0.527969 0.974564 0.633916 0.325517
C101  C     C_R   0.974559 0.527965 0.366084 0.325532
C102  C     C_R   0.472032 0.974564 0.366084 0.325522
C103  C     C_R   0.025441 0.472035 0.366084 0.325538
C104  C     C_R   0.527970 0.025436 0.366084 0.325518
C105  C     C_R   0.474565 0.972031 0.133916 0.325522
C106  C     C_R   0.972033 0.525439 0.133916 0.325531
C107  C     C_R   0.525435 0.027970 0.133916 0.325516
C108  C     C_R   0.027966 0.474562 0.133916 0.325529
C109  C     C_R   0.474565 0.027970 0.866084 0.325515
C110  C     C_R   0.972034 0.474562 0.866084 0.325529
C111  C     C_R   0.525435 0.972031 0.866084 0.325523
C112  C     C_R   0.027967 0.525439 0.866084 0.325530
C113  C     C_R   0.000000 0.500000 0.613829 -0.203012
C114  C     C_R   0.500000 0.000000 0.613829 -0.202954
C115  C     C_R   1.000000 0.500000 0.386171 -0.203013
C116  C     C_R   0.500001 0.000000 0.386171 -0.202954
C117  C     C_R   0.500000 0.000000 0.113829 -0.202946
C118  C     C_R   1.000000 0.500000 0.113829 -0.202991
C119  C     C_R   0.500000 0.000000 0.886171 -0.202948
C120  C     C_R   0.000000 0.500000 0.886171 -0.202991
C121  C     C_R   0.000000 0.500000 0.692770 -0.007601
C122  C     C_R   0.500000 0.000000 0.692770 -0.007575
C123  C     C_R   1.000000 0.500000 0.307230 -0.007600
C124  C     C_R   0.500001 0.000000 0.307230 -0.007575
C125  C     C_R   0.500001 0.000001 0.192769 -0.007574
C126  C     C_R   1.000000 0.500000 0.192770 -0.007595
C127  C     C_R   0.500000 0.000001 0.807230 -0.007574
C128  C     C_R   0.000000 0.500000 0.807230 -0.007595
C129  C     C_1   0.000000 0.500000 0.733100 0.014758
C130  C     C_1   0.500000 0.000000 0.733100 0.014728
C131  C     C_1   1.000000 0.500000 0.266900 0.014758
C132  C     C_1   0.500001 0.000001 0.266900 0.014728
C133  C     C_1   0.500001 0.000001 0.233100 0.014728
C134  C     C_1   1.000000 0.500000 0.233100 0.014756
C135  C     C_1   0.500000 0.000001 0.766900 0.014728
C136  C     C_1   0.000000 0.500000 0.766900 0.014755
C137  C     C_R   0.728305 0.483543 0.030588 -0.159710
C138  C     C_R   0.484839 0.271695 0.031132 -0.159776
C139  C     C_R   0.271695 0.516386 0.030619 -0.159709
C140  C     C_R   0.516143 0.728305 0.030726 -0.159734
C141  C     C_R   0.728305 0.516458 0.969412 -0.159706
C142  C     C_R   0.483857 0.728305 0.969274 -0.159735
C143  C     C_R   0.271695 0.483614 0.969380 -0.159712
C144  C     C_R   0.515161 0.271695 0.968868 -0.159774
C145  C     C_R   0.228305 0.983848 0.530721 -0.159744
C146  C     C_R   0.983418 0.771695 0.530532 -0.159706
C147  C     C_R   0.771695 0.015460 0.531012 -0.159769
C148  C     C_R   0.017118 0.228305 0.530289 -0.159688
C149  C     C_R   0.228305 0.016152 0.469279 -0.159743
C150  C     C_R   0.982882 0.228305 0.469711 -0.159688
C151  C     C_R   0.771694 0.984540 0.468988 -0.159773
C152  C     C_R   0.016583 0.771695 0.469468 -0.159703
C153  C     C_R   0.706442 0.500000 0.000000 0.142847
C154  C     C_R   0.500000 0.293558 1.000000 0.142766
C155  C     C_R   0.293558 0.500000 0.000000 0.142842
C156  C     C_R   0.500000 0.706442 0.000000 0.142823
C157  C     C_R   0.206442 0.000000 0.500000 0.142820
C158  C     C_R   0.000000 0.793558 0.500000 0.142851
C159  C     C_R   0.793558 0.000000 0.500000 0.142780
C160  C     C_R   0.000000 0.206442 0.500000 0.142889
Cu1   Cu    Cu3+1 0.000000 0.540940 0.000000 1.086780
Cu2   Cu    Cu3+1 0.540940 0.000000 0.000000 1.086820
Cu3   Cu    Cu3+1 0.000000 0.459060 0.000000 1.086796
Cu4   Cu    Cu3+1 0.459060 0.000000 0.000000 1.086826
Cu5   Cu    Cu3+1 0.500000 0.040940 0.500000 1.086795
Cu6   Cu    Cu3+1 0.040940 0.500000 0.500000 1.086746
Cu7   Cu    Cu3+1 0.500000 0.959060 0.500000 1.086810
Cu8   Cu    Cu3+1 0.959060 0.500000 0.500000 1.086755
Cu9   Cu    Cu3+1 0.500000 0.500000 0.962670 0.991207
Cu10  Cu    Cu3+1 0.500000 0.500000 0.037330 0.991207
Cu11  Cu    Cu3+1 0.000000 0.000000 0.462670 0.991244
Cu12  Cu    Cu3+1 0.000000 0.000000 0.537330 0.991244
H1    H     H_    0.955352 0.450555 0.688404 0.184243
H2    H     H_    0.450547 0.044641 0.688403 0.184219
H3    H     H_    0.044649 0.549446 0.688404 0.184233
H4    H     H_    0.549453 0.955360 0.688404 0.184217
H5    H     H_    0.955351 0.549446 0.311596 0.184235
H6    H     H_    0.450547 0.955360 0.311596 0.184226
H7    H     H_    0.044649 0.450555 0.311596 0.184241
H8    H     H_    0.549454 0.044641 0.311597 0.184209
H9    H     H_    0.455361 0.950546 0.188404 0.184226
H10   H     H_    0.950551 0.544646 0.188403 0.184233
H11   H     H_    0.544640 0.049455 0.188403 0.184208
H12   H     H_    0.049449 0.455355 0.188404 0.184237
H13   H     H_    0.455361 0.049455 0.811596 0.184212
H14   H     H_    0.950551 0.455355 0.811596 0.184239
H15   H     H_    0.544640 0.950546 0.811597 0.184221
H16   H     H_    0.049449 0.544645 0.811597 0.184231
H17   H     H_    0.788247 0.470732 0.054407 0.152099
H18   H     H_    0.473038 0.211753 0.055374 0.152388
H19   H     H_    0.211753 0.529142 0.054462 0.152117
H20   H     H_    0.528709 0.788247 0.054651 0.152169
H21   H     H_    0.788246 0.529269 0.945594 0.152101
H22   H     H_    0.471291 0.788247 0.945349 0.152169
H23   H     H_    0.211753 0.470859 0.945537 0.152115
H24   H     H_    0.526962 0.211753 0.944625 0.152389
H25   H     H_    0.288247 0.971274 0.554643 0.152166
H26   H     H_    0.970509 0.711754 0.554308 0.152072
H27   H     H_    0.711753 0.027494 0.555160 0.152321
H28   H     H_    0.030444 0.288246 0.553875 0.151960
H29   H     H_    0.288246 0.028726 0.445357 0.152168
H30   H     H_    0.969557 0.288246 0.446125 0.151959
H31   H     H_    0.711753 0.972506 0.444840 0.152319
H32   H     H_    0.029491 0.711753 0.445692 0.152074
H33   H     H_    0.711797 0.470727 0.054405 0.147874
H34   H     H_    0.473033 0.288203 0.055373 0.147978
H35   H     H_    0.288204 0.529147 0.054461 0.147887
H36   H     H_    0.528714 0.711796 0.054650 0.147904
H37   H     H_    0.711796 0.529274 0.945595 0.147881
H38   H     H_    0.471286 0.711796 0.945350 0.147903
H39   H     H_    0.288203 0.470854 0.945539 0.147879
H40   H     H_    0.526967 0.288203 0.944627 0.147979
H41   H     H_    0.211797 0.971270 0.554641 0.147903
H42   H     H_    0.970505 0.788204 0.554306 0.147868
H43   H     H_    0.788204 0.027499 0.555159 0.147960
H44   H     H_    0.030448 0.211797 0.553874 0.147832
H45   H     H_    0.211796 0.028731 0.445358 0.147908
H46   H     H_    0.969552 0.211797 0.446126 0.147826
H47   H     H_    0.788203 0.972501 0.444842 0.147956
H48   H     H_    0.029496 0.788203 0.445694 0.147872
O1    O     O_R   0.940210 0.534560 0.999910 -0.567368
O2    O     O_R   0.534560 0.059790 0.999910 -0.567334
O3    O     O_R   0.059790 0.465440 0.999910 -0.567360
O4    O     O_R   0.465440 0.940210 0.999910 -0.567359
O5    O     O_R   0.940210 0.465440 0.000090 -0.567362
O6    O     O_R   0.534560 0.940210 0.000090 -0.567361
O7    O     O_R   0.059790 0.534560 0.000090 -0.567365
O8    O     O_R   0.465440 0.059790 0.000090 -0.567331
O9    O     O_R   0.440210 0.034560 0.499910 -0.567363
O10   O     O_R   0.034560 0.559790 0.499910 -0.567370
O11   O     O_R   0.559790 0.965440 0.499910 -0.567340
O12   O     O_R   0.965440 0.440210 0.499910 -0.567382
O13   O     O_R   0.440210 0.965440 0.500090 -0.567359
O14   O     O_R   0.034560 0.440210 0.500090 -0.567386
O15   O     O_R   0.559790 0.034560 0.500090 -0.567344
O16   O     O_R   0.965440 0.559790 0.500090 -0.567366
O17   O     O_R   0.000060 0.534560 0.945550 -0.550177
O18   O     O_R   0.534560 0.999940 0.945550 -0.550171
O19   O     O_R   0.999940 0.465440 0.945550 -0.550173
O20   O     O_R   0.465440 0.000060 0.945550 -0.550173
O21   O     O_R   0.000060 0.465440 0.054450 -0.550174
O22   O     O_R   0.534560 0.000060 0.054450 -0.550176
O23   O     O_R   0.999940 0.534560 0.054450 -0.550177
O24   O     O_R   0.465440 0.999940 0.054450 -0.550171
O25   O     O_R   0.500060 0.034560 0.445550 -0.550177
O26   O     O_R   0.034560 0.499940 0.445550 -0.550177
O27   O     O_R   0.499940 0.965440 0.445550 -0.550171
O28   O     O_R   0.965440 0.500060 0.445550 -0.550177
O29   O     O_R   0.500060 0.965440 0.554450 -0.550174
O30   O     O_R   0.034560 0.500060 0.554450 -0.550179
O31   O     O_R   0.499940 0.034560 0.554450 -0.550175
O32   O     O_R   0.965440 0.499940 0.554450 -0.550177
O33   O     O_R   0.500080 0.440090 0.968430 -0.576395
O34   O     O_R   0.440090 0.499920 0.968430 -0.576380
O35   O     O_R   0.499920 0.559910 0.968430 -0.576373
O36   O     O_R   0.559910 0.500080 0.968430 -0.576353
O37   O     O_R   0.500080 0.559910 0.031570 -0.576372
O38   O     O_R   0.440090 0.500080 0.031570 -0.576354
O39   O     O_R   0.499920 0.440090 0.031570 -0.576397
O40   O     O_R   0.559910 0.499920 0.031570 -0.576378
O41   O     O_R   0.000080 0.940090 0.468430 -0.576352
O42   O     O_R   0.940090 0.999920 0.468430 -0.576394
O43   O     O_R   0.999920 0.059910 0.468430 -0.576355
O44   O     O_R   0.059910 0.000080 0.468430 -0.576364
O45   O     O_R   0.000080 0.059910 0.531570 -0.576338
O46   O     O_R   0.940090 0.000080 0.531570 -0.576380
O47   O     O_R   0.999920 0.940090 0.531570 -0.576369
O48   O     O_R   0.059910 0.999920 0.531570 -0.576377
Cl1   Cl    Cl    0.943380 0.434923 0.611044 -0.583722
Cl2   Cl    Cl    0.434914 0.056609 0.611043 -0.583912
Cl3   Cl    Cl    0.056619 0.565078 0.611045 -0.583823
Cl4   Cl    Cl    0.565087 0.943392 0.611044 -0.584003
Cl5   Cl    Cl    0.943380 0.565078 0.388955 -0.583810
Cl6   Cl    Cl    0.434914 0.943391 0.388955 -0.583889
Cl7   Cl    Cl    0.056620 0.434923 0.388955 -0.583734
Cl8   Cl    Cl    0.565087 0.056608 0.388957 -0.584025
Cl9   Cl    Cl    0.443393 0.934913 0.111044 -0.583886
Cl10  Cl    Cl    0.934919 0.556615 0.111044 -0.583834
Cl11  Cl    Cl    0.556607 0.065089 0.111044 -0.584059
Cl12  Cl    Cl    0.065081 0.443385 0.111045 -0.583823
Cl13  Cl    Cl    0.443393 0.065088 0.888956 -0.584048
Cl14  Cl    Cl    0.934919 0.443385 0.888955 -0.583809
Cl15  Cl    Cl    0.556608 0.934913 0.888956 -0.583896
Cl16  Cl    Cl    0.065082 0.556615 0.888956 -0.583847

loop_
_geom_bond_atom_site_label_1
_geom_bond_atom_site_label_2
_ccdc_geom_bond_type
Cu7   O13   S    
Cu6   O14   S    
Cu5   O9    S    
Cu11  Cu12  S    
C143  H39   S    
C91   H11   S    
C93   H13   S    
C17   C29   A    
Cu9   Cu10  S    
C96   H16   S    
C76   O22   A    
C130  C135  T    
C7    C55   S    
C96   C128  A    
C88   C124  A    
C131  C134  T    
C19   C31   A    
C18   H32   S    
C8    C56   S    
C138  H34   S    
C9    C25   A    
C95   C127  A    
C7    O11   A    
C24   C146  A    
C98   Cl2   S    
C112  C120  A    
C74   C119  S    
C39   C159  S    
C109  C119  A    
Cu6   O30   S    
C150  C160  A    
C12   C28   A    
C105  Cl9   S    
C22   H28   S    
C74   O20   A    
C65   O39   A    
C35   C155  S    
C73   O19   A    
Cu12  O47   S    
C147  H43   S    
C17   C149  A    
C128  C136  S    
C59   C66   S    
C112  Cl16  S    
Cu2   O18   S    
C81   H1    S    
C9    H21   S    
C98   C114  A    
Cu1   O17   S    
C141  C153  A    
C1    O5    A    
C140  H36   S    
C86   H6    S    
C151  C159  A    
C13   H17   S    
C124  C132  S    
C111  C119  A    
C148  C160  A    
C64   C71   S    
C37   C157  S    
C90   H10   S    
Cu11  O41   S    
Cu9   O35   S    
C1    O1    A    
Cu12  O46   S    
C2    C50   S    
Cu2   O6    S    
C45   C53   T    
C104  C116  A    
C15   C27   A    
C92   C108  A    
C89   C125  A    
Cu2   O2    S    
C60   C67   S    
C12   C142  A    
C132  C133  T    
Cu9   O33   S    
Cu1   O1    S    
Cu4   O20   S    
C105  C117  A    
Cu1   Cu3   S    
C88   H8    S    
Cu10  O39   S    
C106  Cl10  S    
C139  C155  A    
Cu2   O22   S    
C77   C116  S    
C104  Cl8   S    
Cu2   Cu4   S    
C2    O2    A    
Cu8   O16   S    
C14   H20   S    
C138  C154  A    
Cu6   O10   S    
C6    O16   A    
C71   O45   A    
C73   C120  S    
C80   O30   A    
C106  C118  A    
Cu6   Cu8   S    
C79   O29   A    
Cu9   O36   S    
C13   C25   A    
C75   C118  S    
C79   O31   A    
C78   O28   A    
C6    C54   S    
C18   C152  A    
C148  H44   S    
C41   C49   T    
C68   O36   A    
C88   C104  A    
C30   C46   S    
C70   O46   A    
C15   C139  A    
C34   C154  S    
C72   O48   A    
C71   O43   A    
Cu8   O32   S    
C35   C59   T    
C7    O15   A    
Cu3   O3    S    
C72   O44   A    
C123  C131  S    
C82   C98   A    
C2    O8    A    
Cu7   O11   S    
C84   C100  A    
C82   H2    S    
C100  C114  A    
C11   C143  A    
C90   C106  A    
C78   C115  S    
Cu10  O38   S    
C1    C49   S    
C92   H12   S    
C3    O7    A    
C110  C120  A    
C68   O40   A    
C3    C51   S    
C11   H23   S    
C10   C144  A    
C36   C60   T    
C96   C112  A    
C4    O4    A    
C38   C62   T    
C21   C29   A    
C14   C140  A    
C28   C44   S    
C10   C26   A    
C83   C121  A    
C62   C69   S    
C65   O33   A    
C77   O27   A    
C23   C31   A    
C74   O18   A    
Cu11  O42   S    
C103  C115  A    
C93   C127  A    
C73   O17   A    
Cu12  O45   S    
C75   O21   A    
C101  Cl5   S    
C108  C118  A    
Cu8   O12   S    
C129  C136  T    
C109  Cl13  S    
Cu4   O4    S    
C58   C65   S    
C143  C155  A    
C63   C70   S    
C11   C27   A    
C85   C123  A    
C46   C54   T    
C19   H31   S    
C107  Cl11  S    
C150  H46   S    
C137  C153  A    
Cu4   O8    S    
Cu3   O5    S    
C149  H45   S    
C102  Cl6   S    
C17   H29   S    
C33   C153  S    
C38   C158  S    
C146  C158  A    
C67   O37   A    
C16   H18   S    
C42   C50   T    
C152  C158  A    
C145  H41   S    
C61   C72   S    
C85   H5    S    
Cu8   O28   S    
C22   C148  A    
C95   H15   S    
C94   C128  A    
C6    O10   A    
C75   O23   A    
C86   C124  A    
C18   C30   A    
C101  C115  A    
C5    O9    A    
C94   C110  A    
C122  C130  S    
C24   C30   A    
C21   C145  A    
C142  H38   S    
C57   C68   S    
C97   C113  A    
C23   H27   S    
Cu4   O24   S    
C141  H37   S    
C99   Cl3   S    
C139  H35   S    
C22   C32   A    
C85   C101  A    
C37   C61   T    
C36   C156  S    
C47   C55   T    
C147  C159  A    
C20   C32   A    
C125  C133  S    
C48   C56   T    
C137  H33   S    
C15   H19   S    
C121  C129  S    
C70   O42   A    
C33   C57   T    
C91   C125  A    
C76   O24   A    
Cu5   O31   S    
C84   C122  A    
C111  Cl15  S    
C19   C151  A    
C40   C160  S    
C16   C138  A    
C89   H9    S    
C94   H14   S    
Cu3   O19   S    
C21   H25   S    
C66   O38   A    
C16   C26   A    
C92   C126  A    
C44   C52   T    
C99   C113  A    
C69   O41   A    
Cu5   O15   S    
C31   C47   S    
C110  Cl14  S    
C67   O35   A    
C5    O13   A    
C146  H42   S    
C39   C63   T    
C145  C157  A    
C76   C117  S    
Cu7   O29   S    
C102  C116  A    
Cu9   O34   S    
C66   O34   A    
C14   C28   A    
C89   C105  A    
C12   H22   S    
C77   O25   A    
C13   C137  A    
C5    C53   S    
C87   C103  A    
C103  Cl7   S    
Cu12  O48   S    
Cu5   O25   S    
C95   C111  A    
C10   H24   S    
C87   C123  A    
C100  Cl4   S    
C8    O12   A    
C97   Cl1   S    
C69   O47   A    
C32   C48   S    
C23   C147  A    
C43   C51   T    
Cu7   O27   S    
C40   C64   T    
C152  H48   S    
C108  Cl12  S    
C81   C97   A    
C20   C150  A    
C83   H3    S    
Cu3   O21   S    
Cu10  O37   S    
C151  H47   S    
C4    C52   S    
C140  C156  A    
C26   C42   S    
C144  C154  A    
Cu11  O44   S    
C127  C135  S    
C82   C122  A    
Cu1   O23   S    
C9    C141  A    
Cu6   O26   S    
C87   H7    S    
C86   C102  A    
C27   C43   S    
C90   C126  A    
Cu11  O43   S    
C80   C113  S    
C126  C134  S    
Cu5   Cu7   S    
C24   H26   S    
C80   O32   A    
C79   C114  S    
C81   C121  A    
C34   C58   T    
C3    O3    A    
C25   C41   S    
C144  H40   S    
Cu10  O40   S    
C78   O26   A    
C142  C156  A    
C20   H30   S    
C84   H4    S    
C149  C157  A    
C4    O6    A    
C107  C117  A    
C29   C45   S    
C93   C109  A    
C83   C99   A    
Cu1   O7    S    
C91   C107  A    
C8    O14   A    
