data_mof_unit_31641.cif
_audit_creation_date              2013-03-05T15:52:20-0500
_audit_creation_method            fapswitch 2.2
_symmetry_space_group_name_H-M    P1
_symmetry_Int_Tables_number       1
_space_group_crystal_system       triclinic
_cell_length_a                    10.719447
_cell_length_b                    10.691503
_cell_length_c                    17.05279
_cell_angle_alpha                 80.494218
_cell_angle_beta                  99.521766
_cell_angle_gamma                 118.775057
_cell_volume                      1681.14823534

loop_
_atom_site_label
_atom_site_type_symbol
_atom_site_description
_atom_site_fract_x
_atom_site_fract_y
_atom_site_fract_z
_atom_type_partial_charge
O1    O     O_R   0.754020 0.497590 0.609930 -0.438298
O2    O     O_R   0.481420 0.271390 0.600630 -0.497903
C1    C     C_R   0.361492 0.229694 0.627552 0.541415
O3    O     O_R   0.263810 0.254550 0.589590 -0.518087
O4    O     O_R   0.300820 0.531200 0.560890 -0.490970
C2    C     C_R   0.414987 0.619351 0.601547 0.540859
O5    O     O_R   0.491480 0.744020 0.564270 -0.498817
O6    O     O_R   0.726290 0.693800 0.583010 -0.512162
C3    C     C_R   0.720848 0.587486 0.633273 0.531489
O7    O     O_R   0.747830 0.500190 0.434090 -0.464193
O8    O     O_R   0.475680 0.273800 0.437630 -0.506295
C4    C     C_R   0.354570 0.233591 0.397007 0.576621
O9    O     O_R   0.257620 0.257160 0.413750 -0.422984
O10   O     O_R   0.295080 0.533620 0.397890 -0.464458
C5    C     C_R   0.366115 0.653706 0.360486 0.548834
O11   O     O_R   0.485280 0.746620 0.388440 -0.486540
O12   O     O_R   0.720550 0.696220 0.420010 -0.485071
C6    C     C_R   0.767827 0.620990 0.398166 0.571622
Cr1   Cr    Cr6+3 0.608440 0.389080 0.519680 1.096983
Cr2   Cr    Cr6+3 0.288640 0.400090 0.490760 1.111628
Cr3   Cr    Cr6+3 0.602940 0.710800 0.489510 1.084540
O13   O     O_3   0.500010 0.499990 0.499980 -0.338758
C7    C     C_R   0.359555 0.654907 0.837387 0.041903
C8    C     C_R   0.270693 0.527898 0.801330 -0.045005
C9    C     C_R   0.296186 0.507862 0.728807 -0.060926
C10   C     C_R   0.514314 0.727727 0.730101 -0.122404
C11   C     C_R   0.492948 0.745209 0.805510 0.369360
C12   C     C_3   0.113903 0.427658 0.787384 0.108837
C13   C     C_3   0.143228 0.406340 0.707129 -0.192875
C14   C     C_R   0.406610 0.617293 0.686621 -0.050921
H1    H     H_    0.610604 0.807128 0.703635 0.163204
H2    H     H_    0.077071 0.329539 0.830428 0.154011
H3    H     H_    0.126284 0.296002 0.704727 0.131992
H4    H     H_    0.094264 0.448820 0.654065 0.203188
C15   C     C_1   0.771876 0.630221 0.712384 0.029671
C16   C     C_1   0.817647 0.668952 0.778253 0.037546
C17   C     C_1   0.345588 0.188043 0.709909 -0.014726
C18   C     C_1   0.320708 0.160135 0.778227 -0.019787
C19   C     C_1   0.337742 0.662632 0.277360 -0.011922
C20   C     C_1   0.325143 0.671749 0.206618 -0.003215
C21   C     C_R   0.813308 0.656064 0.153773 -0.000617
C22   C     C_R   0.818385 0.544746 0.208309 -0.046037
C23   C     C_R   0.810522 0.540935 0.287334 0.019668
C24   C     C_R   0.767007 0.745084 0.261469 -0.107386
C25   C     C_R   0.770906 0.748314 0.178963 0.145453
C26   C     C_3   0.926025 0.489107 0.226658 -0.101068
C27   C     C_3   0.914707 0.484486 0.314149 0.296556
C28   C     C_R   0.798730 0.647471 0.316444 -0.060045
H5    H     H_    0.737017 0.816292 0.282347 0.225188
H6    H     H_    0.033439 0.568911 0.208970 0.098132
H7    H     H_    0.883259 0.381612 0.206155 0.294162
H8    H     H_    0.014427 0.558877 0.347966 0.114194
C29   C     C_R   0.338682 0.189526 0.153434 -0.012341
C30   C     C_R   0.247634 0.228918 0.180405 -0.096647
C31   C     C_R   0.254012 0.241144 0.259450 0.008652
C32   C     C_R   0.457356 0.197328 0.288098 -0.142940
C33   C     C_R   0.457076 0.192228 0.206320 0.163637
C34   C     C_3   0.087782 0.172869 0.169021 0.166268
C35   C     C_3   0.097491 0.191973 0.256487 0.739760
C36   C     C_R   0.346612 0.208244 0.315601 -0.042455
H9    H     H_    0.543379 0.192710 0.329776 0.220586
H10   H     H_    0.024780 0.058768 0.156466 0.141487
O14   O     O_R   0.163320 0.092900 0.874450 -0.513720
O15   O     O_R   0.934650 0.822080 0.882840 -0.475970
C37   C     C_R   0.884491 0.698660 0.857359 0.582100
O16   O     O_R   0.915520 0.604140 0.893670 -0.440517
O17   O     O_R   0.191760 0.638110 0.923230 -0.469458
C38   C     C_R   0.316690 0.705809 0.898451 0.589496
O18   O     O_R   0.406180 0.826930 0.920660 -0.413305
O19   O     O_R   0.358620 0.062870 0.901950 -0.473071
C39   C     C_R   0.284225 0.114368 0.857746 0.542042
O20   O     O_R   0.163910 0.085460 0.050210 -0.508785
O21   O     O_R   0.935200 0.815170 0.045770 -0.467588
C40   C     C_R   0.883203 0.689014 0.082062 0.564464
O22   O     O_R   0.916120 0.596690 0.069430 -0.496293
O23   O     O_R   0.192310 0.631200 0.086170 -0.477855
C41   C     C_R   0.313532 0.699943 0.123546 0.562835
O24   O     O_R   0.406770 0.819480 0.096420 -0.437402
O25   O     O_R   0.359170 0.055960 0.064880 -0.455499
C42   C     C_R   0.288396 0.112612 0.083028 0.550227
Cr4   Cr    Cr6+3 0.052530 0.947560 0.964210 1.130928
Cr5   Cr    Cr6+3 0.059970 0.626800 0.992920 1.172294
Cr6   Cr    Cr6+3 0.373320 0.938440 0.995370 1.209214
O26   O     O_3   0.161940 0.837600 0.984160 -0.326265
F1    F     F_    0.849786 0.345748 0.350624 -0.549601
N1    N     N_R   0.572197 0.183167 0.179191 0.100531
O27   O     O_R   0.622120 0.253083 0.111966 -0.287813
O28   O     O_R   0.640265 0.122179 0.226275 -0.236948
N2    N     N_R   0.045100 0.268530 0.113422 0.096574
O29   O     O_R   0.125551 0.352147 0.057690 -0.324822
O30   O     O_R   0.914010 0.247027 0.107978 -0.223889
F2    F     F_    0.069368 0.299354 0.270301 -0.567560
F3    F     F_    0.026545 0.064234 0.303139 -0.608690
F4    F     F_    0.597340 0.859768 0.842158 -0.575791
N3    N     N_R   0.022785 0.496775 0.776554 0.098145
O31   O     O_R   0.887715 0.417318 0.785913 -0.304458
O32   O     O_R   0.066466 0.626351 0.741096 -0.353716
N4    N     N_R   0.732024 0.843184 0.122877 0.077908
O33   O     O_R   0.680521 0.811191 0.050089 -0.274899
O34   O     O_R   0.725873 0.948799 0.147426 -0.234441

loop_
_geom_bond_atom_site_label_1
_geom_bond_atom_site_label_2
_geom_bond_distance
_ccdc_geom_bond_type
C24   H5    1.082932 S    
C34   H10   1.111470 S    
O11   Cr3   2.058101 S    
C31   C35   1.491832 S    
C21   C22   1.401550 A    
C30   C31   1.363012 A    
C15   C16   1.203983 T    
C37   O16   1.250625 A    
O4    Cr2   1.933399 S    
C41   O24   1.254669 A    
C32   C33   1.404040 A    
O8    Cr1   1.929822 S    
C10   C11   1.399673 A    
O14   Cr4   2.051118 S    
C12   N3    1.457502 S    
C27   F1    1.384227 S    
C12   C13   1.529086 S    
C25   N4    1.439435 S    
C22   C26   1.504329 S    
O4    C2    1.300507 A    
N1    O28   1.301363 A    
C5    O11   1.256602 A    
C13   H3    1.110641 S    
C33   N1    1.437012 S    
O21   C40   1.275760 A    
C21   C40   1.444861 S    
C18   C39   1.415365 S    
O24   Cr6   2.055799 S    
N3    O31   1.300384 A    
C38   O18   1.259528 A    
C7    C8    1.402165 A    
O19   C39   1.262569 A    
C7    C11   1.423705 A    
N2    O30   1.299609 A    
C23   C28   1.380547 A    
O20   Cr4   2.046975 S    
C10   H1    1.083378 S    
Cr3   O13   1.966548 S    
O21   Cr4   1.932441 S    
O6    Cr3   1.939522 S    
C9    C13   1.490560 S    
O1    Cr1   2.049858 S    
C40   O22   1.255362 A    
O17   C38   1.284077 A    
O10   Cr2   1.935329 S    
C12   H2    1.112624 S    
Cr1   O13   1.983957 S    
O1    C3    1.308001 A    
C8    C9    1.380474 A    
O23   Cr5   1.938415 S    
C19   C20   1.184464 T    
C29   C33   1.421086 A    
C16   C37   1.427121 S    
O6    C3    1.288787 A    
C34   C35   1.518561 S    
O5    Cr3   2.059368 S    
C26   H7    1.107122 S    
O12   Cr3   1.939813 S    
C32   C36   1.406586 A    
C4    C36   1.438987 S    
C7    C38   1.475764 S    
C17   C18   1.195305 T    
O18   Cr6   2.054994 S    
O16   Cr5   2.056225 S    
Cr6   O26   1.976353 S    
O7    Cr1   2.052808 S    
C29   C42   1.446882 S    
O12   C6    1.263470 A    
C32   H9    1.083173 S    
O23   C41   1.263409 A    
O19   Cr6   1.936824 S    
C5    C19   1.397003 S    
C27   H8    1.112124 S    
C2    C14   1.464195 S    
Cr2   O13   1.976606 S    
C10   C14   1.403679 A    
N4    O34   1.300611 A    
C22   C23   1.356802 A    
C1    O3    1.254165 A    
Cr4   O26   1.984109 S    
C24   C25   1.408710 A    
C30   C34   1.507565 S    
C9    C14   1.399261 A    
C26   C27   1.507606 S    
O9    Cr2   2.049272 S    
O2    Cr1   1.934287 S    
N1    O27   1.301580 A    
C8    C12   1.499236 S    
O14   C39   1.275802 A    
C6    C28   1.436701 S    
O8    C4    1.270277 A    
N3    O32   1.302529 A    
O22   Cr5   2.057332 S    
C29   C30   1.396309 A    
C2    O5    1.301316 A    
C26   H6    1.108522 S    
Cr5   O26   1.966638 S    
O15   C37   1.283797 A    
O2    C1    1.279870 A    
O20   C42   1.269567 A    
O25   Cr6   1.934328 S    
O7    C6    1.266840 A    
C13   H4    1.112304 S    
C35   F2    1.382189 S    
C20   C41   1.396380 S    
C34   N2    1.463213 S    
O15   Cr4   1.929928 S    
O25   C42   1.272869 A    
O3    Cr2   2.053275 S    
C4    O9    1.264556 A    
C1    C17   1.413983 S    
O17   Cr5   1.940677 S    
N4    O33   1.301605 A    
C3    C15   1.430655 S    
C21   C25   1.414220 A    
O10   C5    1.258589 A    
C11   F4    1.358263 S    
C35   F3    1.384859 S    
N2    O29   1.301716 A    
C31   C36   1.391511 A    
C23   C27   1.486400 S    
C24   C28   1.413047 A    
