data_mof_unit_24374.cif
_audit_creation_date              2012-12-10T17:22:23-0500
_audit_creation_method            fapswitch 2.2
_symmetry_space_group_name_H-M    P1
_symmetry_Int_Tables_number       1
_space_group_crystal_system       triclinic
_cell_length_a                    18.166414
_cell_length_b                    18.798292
_cell_length_c                    19.191786
_cell_angle_alpha                 110.000864
_cell_angle_beta                  108.821933
_cell_angle_gamma                 107.772783
_cell_volume                      5153.85129008

loop_
_atom_site_label
_atom_site_type_symbol
_atom_type_description
_atom_site_fract_x
_atom_site_fract_y
_atom_site_fract_z
_atom_type_partial_charge
C1    C     C_R   0.380334 0.380105 0.500818 0.894363
C2    C     C_3   0.808248 0.499838 0.807913 -0.000285
C3    C     C_3   0.849755 0.579531 0.796473 -0.308402
C4    C     C_3   0.730768 0.499945 0.825365 -0.312280
C5    C     C_R   0.388638 0.391494 0.658151 -0.175579
C6    C     C_R   0.385498 0.404945 0.732907 -0.234587
C7    C     C_R   0.312186 0.349713 0.731118 0.516436
C8    C     C_R   0.245254 0.278479 0.654359 -0.150888
C9    C     C_R   0.249360 0.261862 0.578125 -0.004255
C10   C     C_R   0.317849 0.322855 0.578898 0.052049
C11   C     C_R   0.187199 0.185401 0.501635 -0.106171
C12   C     C_R   0.618797 0.496949 0.619003 0.853193
C13   C     C_R   0.188558 0.170741 0.425000 0.063376
C14   C     C_R   0.248033 0.237264 0.422970 0.006079
C15   C     C_R   0.314075 0.313038 0.500881 -0.159468
C16   C     C_R   0.130832 0.090823 0.349790 -0.199828
C17   C     C_R   0.127010 0.079328 0.273076 -0.242470
C18   C     C_R   0.179691 0.147491 0.268625 0.487046
C19   C     C_R   0.238956 0.225291 0.342551 -0.064679
C20   C     C_R   0.214721 0.503773 0.384146 -0.015397
C21   C     C_R   0.153649 0.530016 0.396569 -0.208420
C22   C     C_R   0.103314 0.547089 0.339218 -0.029894
C23   C     C_R   0.624200 0.618003 0.502870 0.925499
C24   C     C_R   0.113846 0.536120 0.268098 -0.219886
C25   C     C_R   0.180126 0.516019 0.256586 0.074826
C26   C     C_R   0.236837 0.507474 0.319580 0.020685
C27   C     C_R   0.190249 0.504802 0.183490 -0.145734
C28   C     C_R   0.269791 0.507589 0.181553 -0.064378
C29   C     C_R   0.333553 0.513954 0.252846 0.088221
C30   C     C_R   0.313621 0.505780 0.316495 -0.150651
C31   C     C_R   0.292060 0.506661 0.114707 -0.081275
C32   C     C_R   0.375892 0.518334 0.124263 0.479337
C33   C     C_R   0.438146 0.530960 0.197850 -0.242805
C34   C     C_R   0.377180 0.499716 0.380777 0.862588
C35   C     C_R   0.417959 0.529228 0.260400 -0.206114
C36   C     C_R   0.575952 0.719036 0.437679 -0.234069
C37   C     C_R   0.550767 0.771073 0.410566 -0.238328
C38   C     C_R   0.614424 0.847527 0.427450 0.476550
C39   C     C_R   0.703984 0.869161 0.469373 -0.137423
C40   C     C_R   0.729357 0.806401 0.480661 -0.027479
C41   C     C_R   0.664716 0.734858 0.471891 0.045577
C42   C     C_R   0.814594 0.811019 0.499225 -0.019787
C43   C     C_R   0.837464 0.750013 0.518688 -0.098498
C44   C     C_R   0.772099 0.682651 0.515565 0.019084
C45   C     C_3   0.691675 0.408883 0.652312 -0.151807
C46   C     C_R   0.688296 0.679127 0.496212 -0.111379
C47   C     C_R   0.924184 0.754604 0.545575 -0.077309
C48   C     C_R   0.947453 0.711496 0.588505 0.419106
C49   C     C_R   0.880919 0.639687 0.574289 -0.256390
C50   C     C_R   0.793166 0.619741 0.530362 0.478966
C51   C     C_R   0.997629 0.380671 0.877077 0.939223
C52   C     C_R   0.876124 0.499688 0.876405 0.792702
C53   C     C_R   0.999981 0.619760 0.120693 0.832578
C54   C     C_R   0.119638 0.497441 0.114019 0.869644
C55   C     C_R   0.002834 0.881290 0.382705 0.827191
C56   C     C_3   0.769424 0.415752 0.724182 -0.487550
C57   C     C_R   0.120114 0.120254 0.501210 0.818645
C58   C     C_R   0.992357 0.113200 0.618738 0.837708
C59   C     C_R   0.879787 0.878912 0.499028 0.827826
C60   C     C_R   0.993926 0.387212 0.728527 -0.198852
C61   C     C_R   0.006088 0.399011 0.664379 0.457092
C62   C     C_R   0.030316 0.345119 0.615289 -0.097083
C63   C     C_R   0.028172 0.273666 0.624179 -0.235723
C64   C     C_R   0.007168 0.256873 0.684016 0.081000
C65   C     C_R   0.001182 0.320005 0.743118 -0.023029
C66   C     C_R   0.994361 0.179762 0.687058 -0.040525
C67   C     C_3   0.780336 0.571963 0.716237 0.270963
C68   C     C_R   0.993419 0.171919 0.759623 -0.110823
C69   C     C_R   0.005934 0.244783 0.827103 -0.025723
C70   C     C_R   0.003008 0.314826 0.815191 -0.062363
C71   C     C_R   0.981776 0.097102 0.770827 -0.112281
C72   C     C_R   0.974693 0.095085 0.841324 0.289785
C73   C     C_R   0.992211 0.169692 0.908084 0.250468
C74   C     C_R   0.020356 0.246062 0.905543 0.452964
C75   C     C_R   0.169387 0.776383 0.259546 0.451364
C76   C     C_R   0.240778 0.858958 0.307238 0.512940
C77   C     C_R   0.232889 0.926750 0.357936 -0.340516
C78   C     C_3   0.665670 0.507569 0.758562 -0.458268
C79   C     C_R   0.156019 0.911630 0.363521 -0.222547
C80   C     C_R   0.081732 0.829469 0.313156 0.021779
C81   C     C_R   0.084753 0.762171 0.254347 -0.135277
C82   C     C_R   0.004681 0.813887 0.320872 -0.076873
C83   C     C_R   0.927783 0.735220 0.267808 0.066103
C84   C     C_R   0.924032 0.674152 0.198327 0.054086
C85   C     C_R   0.003281 0.685766 0.192284 -0.113956
C86   C     C_R   0.852608 0.717890 0.280416 -0.131559
C87   C     C_R   0.776305 0.639481 0.226521 -0.011901
C88   C     C_R   0.769357 0.583835 0.152164 -0.242494
C89   C     C_3   0.687588 0.496220 0.684739 -0.037844
C90   C     C_R   0.839093 0.606230 0.134523 0.015244
H1    H     H_    0.705109 0.397852 0.598034 0.177603
H2    H     H_    0.752014 0.553871 0.885760 0.248968
H3    H     H_    0.448108 0.434950 0.664297 0.167354
H4    H     H_    0.440118 0.458850 0.792087 0.153264
H5    H     H_    0.190321 0.236669 0.655766 0.167270
H6    H     H_    0.087724 0.035826 0.348781 0.165033
H7    H     H_    0.081636 0.017664 0.216943 0.159351
H8    H     H_    0.275460 0.275507 0.333780 0.219011
H9    H     H_    0.502907 0.541140 0.206601 0.192280
H10   H     H_    0.139498 0.529791 0.447273 0.227118
H11   H     H_    0.070782 0.546425 0.223493 0.172996
H12   H     H_    0.471613 0.540985 0.315334 0.170547
H13   H     H_    0.897597 0.595285 0.591212 0.183296
H14   H     H_    0.747972 0.359219 0.733683 0.217990
H15   H     H_    0.523893 0.665008 0.429546 0.156559
H16   H     H_    0.481662 0.754422 0.381509 0.171713
H17   H     H_    0.977217 0.431008 0.765554 0.165182
H18   H     H_    0.821607 0.415066 0.706043 0.158935
H19   H     H_    0.047350 0.233621 0.586364 0.186994
H20   H     H_    0.706243 0.529058 0.103657 0.205280
H21   H     H_    0.287792 0.990805 0.396391 0.172991
H22   H     H_    0.155639 0.965684 0.407552 0.166287
H23   H     H_    0.853909 0.763531 0.334164 0.187749
H24   H     H_    0.904899 0.575663 0.784523 0.183724
H25   H     H_    0.667066 0.570226 0.788390 0.268549
H26   H     H_    0.597730 0.459469 0.735806 0.195624
H27   H     H_    0.696609 0.440237 0.826174 0.259210
O1    O     O_R   0.408690 0.356690 0.448570 -0.623807
O2    O     O_R   0.049540 0.460090 0.906170 -0.634599
O3    O     O_R   0.853530 0.448360 0.905250 -0.587514
O4    O     O_R   0.956970 0.551730 0.905180 -0.621067
O5    O     O_R   0.945170 0.540000 0.088470 -0.612634
O6    O     O_R   0.048600 0.643370 0.088400 -0.556137
O7    O     O_R   0.037740 0.448360 0.089460 -0.587050
O8    O     O_R   0.141170 0.551730 0.089390 -0.577773
O9    O     O_R   0.948510 0.908450 0.356890 -0.626847
O10   O     O_R   0.052500 0.908420 0.460860 -0.615568
O11   O     O_R   0.039610 0.091640 0.448030 -0.594978
O12   O     O_R   0.408090 0.460090 0.551440 -0.619180
O13   O     O_R   0.143600 0.091610 0.551990 -0.621101
O14   O     O_R   0.947500 0.091600 0.539170 -0.569414
O15   O     O_R   0.051490 0.091570 0.643140 -0.610783
O16   O     O_R   0.856400 0.908420 0.448030 -0.606722
O17   O     O_R   0.960390 0.908390 0.552000 -0.627064
O18   O     O_R   0.592400 0.448300 0.540670 -0.566152
O19   O     O_R   0.591800 0.551700 0.643540 -0.617863
O20   O     O_R   0.591910 0.539910 0.448560 -0.568196
O21   O     O_R   0.591310 0.643310 0.551430 -0.621197
O22   O     O_R   0.408200 0.448300 0.356460 -0.607914
O23   O     O_R   0.407600 0.551700 0.459330 -0.627759
O24   O     O_R   0.946100 0.356720 0.906240 -0.591624
Zn1   Zn    Zn3+2 0.500400 0.430960 0.431310 1.078605
Zn2   Zn    Zn3+2 0.499600 0.569040 0.568690 1.041030
Zn3   Zn    Zn3+2 0.928290 0.431030 0.997370 1.080504
Zn4   Zn    Zn3+2 0.066410 0.569060 0.997270 1.105297
Zn5   Zn    Zn3+2 0.930570 0.000030 0.430590 1.080097
Zn6   Zn    Zn3+2 0.069430 0.999990 0.569430 1.052877
C91   C     C_2   0.780771 0.658367 0.732349 0.988116
O25   O     O_2   0.823622 0.703620 0.712124 -0.581555
O26   O     O_R   0.735977 0.688187 0.772397 -0.781478
H28   H     H_    0.742889 0.746123 0.779167 0.359980
C92   C     C_2   0.894014 0.666183 0.876137 0.903976
O27   O     O_2   0.973614 0.710965 0.910279 -0.568291
O28   O     O_R   0.844609 0.696175 0.909039 -0.765231
H29   H     H_    0.882029 0.755243 0.960614 0.374091
O29   O     O_3   0.175372 0.140274 0.193233 -0.731159
H30   H     H_    0.130314 0.081586 0.147096 0.345750
O30   O     O_3   0.304870 0.362250 0.803230 -0.718308
H31   H     H_    0.357351 0.415267 0.851965 0.355481
C93   C     C_2   0.605567 0.330508 0.617899 0.910618
O31   O     O_2   0.580827 0.314274 0.665375 -0.627839
O32   O     O_R   0.555014 0.275674 0.530750 -0.777145
H32   H     H_    0.498922 0.225952 0.514868 0.346846
C94   C     C_2   0.236207 0.456047 0.427443 0.919165
O33   O     O_2   0.232644 0.387717 0.387765 -0.685849
O34   O     O_R   0.250469 0.484139 0.510451 -0.755948
H33   H     H_    0.253231 0.440756 0.529805 0.354394
C95   C     C_2   0.034869 0.569925 0.350209 0.942835
O35   O     O_2   0.033164 0.589670 0.417184 -0.581862
O36   O     O_R   0.971453 0.568063 0.283717 -0.808225
H34   H     H_    0.927476 0.583099 0.298483 0.374716
C96   C     C_2   0.235362 0.494656 0.032546 1.054791
O37   O     O_2   0.191594 0.423022 0.971363 -0.585518
O38   O     O_R   0.246712 0.566597 0.021905 -0.732449
H35   H     H_    0.213523 0.551148 0.960809 0.352662
O39   O     O_3   0.395743 0.517895 0.060192 -0.731639
H36   H     H_    0.456936 0.526954 0.076983 0.350399
O40   O     O_3   0.591261 0.905451 0.409924 -0.716455
H37   H     H_    0.526246 0.880692 0.381411 0.355481
C97   C     C_2   0.764257 0.962482 0.517731 1.001071
O41   O     O_2   0.772282 0.002950 0.480274 -0.492328
O42   O     O_R   0.802839 0.006619 0.605478 -0.811471
H38   H     H_    0.780965 0.968887 0.628978 0.333460
C98   C     C_2   0.980846 0.773252 0.507077 1.038120
O43   O     O_2   0.951547 0.730576 0.431423 -0.689790
O44   O     O_R   0.070940 0.829561 0.558903 -0.707980
H39   H     H_    0.105490 0.827000 0.526663 0.354287
O45   O     O_3   0.034486 0.729600 0.628959 -0.682387
H40   H     H_    0.038902 0.692830 0.655221 0.362611
O46   O     O_3   0.729298 0.537719 0.498006 -0.707157
H41   H     H_    0.756112 0.498928 0.497713 0.354018
O47   O     O_3   0.984425 0.170823 0.977715 -0.748522
H42   H     H_    0.937302 0.114467 0.959882 0.359743
O48   O     O_3   0.994434 0.464089 0.652848 -0.753377
H43   H     H_    0.976426 0.448991 0.593139 0.353724
C99   C     C_2   0.061603 0.362972 0.557378 0.901126
O49   O     O_2   0.094671 0.436007 0.569021 -0.576798
O50   O     O_R   0.056775 0.296401 0.491275 -0.795670
H44   H     H_    0.082147 0.316684 0.457618 0.356927
C100  C     C_2   0.985447 0.020764 0.719861 1.088626
O51   O     O_2   0.918400 0.952381 0.675323 -0.620233
O52   O     O_R   0.067534 0.022991 0.738766 -0.741360
H45   H     H_    0.062797 0.964477 0.708539 0.367104
O53   O     O_3   0.958153 0.020434 0.846382 -0.712142
H46   H     H_    0.989436 0.035258 0.906179 0.361428
O54   O     O_3   0.062733 0.322808 0.979581 -0.734496
H47   H     H_    0.081691 0.313929 0.029092 0.378432
O55   O     O_3   0.188320 0.711431 0.226168 -0.678947
H48   H     H_    0.154589 0.663929 0.232150 0.295129
O56   O     O_3   0.319126 0.870398 0.306134 -0.703617
H49   H     H_    0.363099 0.931721 0.343506 0.333816
O57   O     O_3   0.803392 0.550274 0.651268 -0.797113
H50   H     H_    0.829827 0.511359 0.651660 0.339078
C101  C     C_2   0.701135 0.619152 0.243852 0.920130
O58   O     O_2   0.643205 0.545218 0.207262 -0.637716
O59   O     O_R   0.696121 0.684337 0.301841 -0.815766
H51   H     H_    0.641025 0.662493 0.307164 0.339853
C102  C     C_2   0.815650 0.581392 0.046993 0.898358
O60   O     O_2   0.763646 0.507753 0.991121 -0.625628
O61   O     O_R   0.856759 0.644331 0.030175 -0.804052
H52   H     H_    0.882038 0.623816 0.992642 0.321634

loop_
_geom_bond_atom_site_label_1
_geom_bond_atom_site_label_2
_ccdc_geom_bond_type
C66   C68   A    
O20   Zn1   S    
O46   H41   S    
C38   O40   S    
C10   C15   A    
C73   C74   A    
C88   C90   A    
C23   O21   A    
C78   H25   S    
O3    Zn3   S    
O23   Zn2   S    
O5    Zn3   S    
C87   C88   A    
C35   H12   S    
C11   C57   S    
C57   O11   A    
C39   C97   S    
O9    Zn5   S    
C27   C54   S    
C7    C8    A    
C7    O30   S    
C97   O41   D    
O17   Zn6   S    
C45   C93   S    
C3    C92   S    
C37   C38   A    
C79   H22   S    
C60   C61   A    
C86   H23   S    
C28   C29   A    
C91   O26   S    
C48   O45   S    
O19   Zn2   S    
C1    O12   A    
O21   Zn2   S    
C5    C6    A    
O22   Zn1   S    
C101  O59   S    
C95   O36   S    
C16   C17   A    
C31   C96   S    
C44   C50   A    
C65   C70   A    
C20   C94   S    
C34   O22   A    
C99   O49   D    
C98   O43   D    
O14   Zn5   S    
C18   C19   A    
C75   O55   S    
C42   C43   A    
C77   H21   S    
O42   H38   S    
C56   H18   S    
O38   H35   S    
C58   C66   S    
O18   Zn1   S    
O36   H34   S    
C83   C84   A    
C45   C56   S    
C96   O38   S    
C8    C9    A    
C6    H4    S    
C12   O18   A    
C45   H1    S    
C51   O2    A    
C41   C46   A    
O50   H44   S    
C1    C15   S    
C51   C70   S    
C62   C99   S    
C45   C89   S    
C9    C10   A    
C72   O53   S    
C22   C95   S    
C40   C42   A    
O48   H43   S    
C36   H15   S    
C23   C46   S    
C13   C14   A    
O53   H46   S    
C94   O33   D    
C36   C41   A    
C69   C70   A    
C8    H5    S    
C84   C90   A    
O6    Zn4   S    
O61   H52   S    
C19   H8    S    
C44   C46   A    
O40   H37   S    
C76   C77   A    
C51   O24   A    
C78   C89   S    
C54   O8    A    
C3    C67   S    
C16   H6    S    
C61   O48   S    
O52   H45   S    
C30   C34   S    
C23   O20   A    
C95   O35   D    
C12   C89   S    
C71   C100  S    
C24   C25   A    
C56   H14   S    
C72   C73   A    
C99   O50   S    
C53   O6    A    
O24   Zn3   S    
O55   H48   S    
C39   C40   A    
C21   H10   S    
O54   H47   S    
C100  O51   D    
C25   C26   A    
C59   O16   A    
C79   C80   A    
C32   C33   A    
O45   H40   S    
C33   H9    S    
O29   H30   S    
C63   H19   S    
C2    C4    S    
C75   C76   A    
C4    C78   S    
C29   C30   A    
C32   O39   S    
C52   O4    A    
C57   O13   A    
C102  O61   S    
C47   C48   A    
C14   C15   A    
C55   O9    A    
C58   O14   A    
O59   H51   S    
C20   C21   A    
C62   C63   A    
C17   C18   A    
C77   C79   A    
C69   C74   A    
C67   O57   S    
C84   C85   A    
C55   C82   S    
C9    C11   A    
O28   H29   S    
C60   H17   S    
C2    C52   S    
C52   O3    A    
C80   C82   A    
O39   H36   S    
C92   O28   S    
C60   C65   A    
C49   C50   A    
C43   C47   A    
C28   C31   A    
C43   C44   A    
O30   H31   S    
C22   C24   A    
C4    H27   S    
C47   C98   S    
O2    Zn4   S    
C53   O5    A    
C93   O32   S    
C67   C91   S    
C18   O29   S    
C96   O37   D    
O32   H32   S    
C74   O54   S    
C76   O56   S    
C54   O7    A    
C40   C41   A    
C97   O42   S    
O13   Zn6   S    
C86   C87   A    
O15   Zn6   S    
C14   C19   A    
C68   C69   A    
C31   C32   A    
C78   H26   S    
C55   O10   A    
C80   C81   A    
O1    Zn1   S    
C3    H24   S    
C42   C59   S    
C49   H13   S    
C5    H3    S    
C26   C30   A    
C6    C7    A    
O12   Zn2   S    
C75   C81   A    
C25   C27   A    
C29   C35   A    
C59   O17   A    
C24   H11   S    
O47   H42   S    
O16   Zn5   S    
C94   O34   S    
C2    C3    S    
C88   H20   S    
C5    C10   A    
C2    C56   S    
C64   C65   A    
C11   C13   A    
O11   Zn5   S    
C102  O60   D    
C38   C39   A    
O34   H33   S    
C20   C26   A    
C68   C71   A    
C48   C49   A    
C101  O58   D    
C34   O23   A    
C33   C35   A    
C87   C101  S    
C98   O44   S    
O4    Zn4   S    
C1    O1    A    
O56   H49   S    
C61   C62   A    
C50   O46   S    
C93   O31   D    
C90   C102  S    
C73   O47   S    
C53   C85   S    
C58   O15   A    
C63   C64   A    
C37   H16   S    
C83   C86   A    
C71   C72   A    
O57   H50   S    
C36   C37   A    
C82   C83   A    
C12   O19   A    
C13   C16   A    
O10   Zn6   S    
C27   C28   A    
C67   C89   S    
O26   H28   S    
O7    Zn3   S    
O8    Zn4   S    
C92   O27   D    
O44   H39   S    
C21   C22   A    
C17   H7    S    
C91   O25   D    
C100  O52   S    
C81   C85   A    
C64   C66   A    
C4    H2    S    
