data_mof_unit_67811.cif
_audit_creation_date              2013-03-05T15:41:23-0500
_audit_creation_method            fapswitch 2.2
_symmetry_space_group_name_H-M    P1
_symmetry_Int_Tables_number       1
_space_group_crystal_system       triclinic
_cell_length_a                    8.067103
_cell_length_b                    8.812767
_cell_length_c                    10.909194
_cell_angle_alpha                 96.08153
_cell_angle_beta                  85.512861
_cell_angle_gamma                 91.158787
_cell_volume                      768.788430049

loop_
_atom_site_label
_atom_site_type_symbol
_atom_site_description
_atom_site_fract_x
_atom_site_fract_y
_atom_site_fract_z
_atom_type_partial_charge
O1    O     O_R   0.389250 0.738570 0.508370 -0.589211
O2    O     O_R   0.678390 0.711620 0.486510 -0.559672
C1    C     C_R   0.541631 0.791898 0.496639 0.903543
O3    O     O_R   0.355430 0.513500 0.696140 -0.551206
O4    O     O_R   0.644580 0.486550 0.674270 -0.548853
C2    C     C_R   0.500058 0.489956 0.740135 0.905921
Zn1   Zn    Zn3+2 0.306940 0.517990 0.514600 1.216544
Zn2   Zn    Zn3+2 0.693060 0.482010 0.485400 1.203867
O5    O     O_R   0.321610 0.288380 0.513490 -0.546911
O6    O     O_R   0.610750 0.261430 0.491630 -0.554018
O7    O     O_R   0.355420 0.513450 0.325730 -0.587185
O8    O     O_R   0.644570 0.486500 0.303860 -0.620382
C3    C     C_R   0.458051 0.207782 0.501696 0.931285
C4    C     C_R   0.500499 0.496285 0.258443 0.947462
C5    C     C_3   0.388519 0.606898 0.946832 0.019065
H1    H     H_    0.461303 0.714017 0.933737 0.146367
C6    C     C_3   0.365602 0.592043 0.086219 -0.333162
H2    H     H_    0.243052 0.544716 0.110429 0.265095
C7    C     C_3   0.448276 0.303271 0.913306 0.327175
C8    C     C_3   0.685426 0.513873 0.916885 -0.005886
C9    C     C_3   0.501921 0.473137 0.875366 -0.286939
H3    H     H_    0.726843 0.621248 0.876958 0.194115
C10   C     C_3   0.505044 0.484877 0.120260 -0.246769
C11   C     C_3   0.469441 0.308317 0.062780 -0.029028
C12   C     C_3   0.674088 0.554482 0.058755 -0.461092
H4    H     H_    0.648122 0.677717 0.063807 0.193585
C13   C     C_2   0.564552 0.951165 0.489381 0.013230
C14   C     C_2   0.433915 0.047484 0.502780 -0.017246
N1    N     N_2   0.950330 0.457950 0.465890 0.034611
N2    N     N_2   0.049670 0.542050 0.534110 0.039645
N3    N     N_R   0.227455 0.633738 0.900697 0.274155
O9    O     O_R   0.102449 0.544661 0.923964 -0.291470
O10   O     O_R   0.198576 0.766710 0.865784 -0.226402
C15   C     C_2   0.839207 0.577629 0.119760 1.144497
O11   O     O_2   0.905972 0.703826 0.126131 -0.474875
O12   O     O_R   0.917386 0.463841 0.171467 -0.685696
H5    H     H_    0.860696 0.361631 0.160747 0.383049
N4    N     N_R   0.549746 0.180834 0.840814 0.227242
O13   O     O_R   0.510264 0.038691 0.853078 -0.289421
O14   O     O_R   0.637107 0.205350 0.739878 -0.328172
C16   C     C_2   0.607909 0.205052 0.101173 0.937076
O15   O     O_2   0.622728 0.200518 0.211417 -0.603507
O16   O     O_R   0.701904 0.101766 0.019464 -0.652119
H6    H     H_    0.779770 0.039197 0.062148 0.411147
N5    N     N_R   0.733210 0.998512 0.461424 0.260724
O17   O     O_R   0.807968 0.943765 0.356378 -0.237456
O18   O     O_R   0.823546 0.043152 0.552444 -0.187169
N6    N     N_R   0.263263 0.997284 0.515208 0.253457
O19   O     O_R   0.167483 0.057016 0.608711 -0.180713
O20   O     O_R   0.194503 0.935131 0.417835 -0.259798
N7    N     N_R   0.006519 0.322474 0.402237 0.341213
O21   O     O_R   0.896682 0.229579 0.355534 -0.236506
O22   O     O_R   0.153461 0.313242 0.348631 -0.277661
N8    N     N_R   0.992148 0.677621 0.598659 0.333027
O23   O     O_R   0.102943 0.775582 0.636493 -0.221865
O24   O     O_R   0.849682 0.685127 0.661312 -0.324598
C17   C     C_2   0.355347 0.750927 0.156446 0.991001
O25   O     O_2   0.229550 0.825071 0.153868 -0.407283
O26   O     O_R   0.486769 0.813149 0.222181 -0.827102
H7    H     H_    0.467928 0.922876 0.256406 0.382245
N9    N     N_R   0.274801 0.259647 0.883221 0.267698
O27   O     O_R   0.212479 0.130591 0.915272 -0.167792
O28   O     O_R   0.214988 0.303704 0.786436 -0.252737
N10   N     N_R   0.313825 0.248512 0.124330 0.245669
O29   O     O_R   0.170196 0.305787 0.112788 -0.262728
O30   O     O_R   0.311720 0.120023 0.173162 -0.282550
N11   N     N_R   0.814359 0.400479 0.870374 0.310001
O31   O     O_R   0.876121 0.312471 0.942471 -0.271913
O32   O     O_R   0.897483 0.412067 0.764671 -0.216622

loop_
_geom_bond_atom_site_label_1
_geom_bond_atom_site_label_2
_geom_bond_distance
_ccdc_geom_bond_type
C4    C10   1.497763 S    
C5    H1    1.117747 S    
O4    Zn2   2.063241 S    
Zn1   O7    2.063240 S    
O16   H6    1.014703 S    
N3    O10   1.300804 A    
C3    C14   1.423282 S    
C5    N3    1.462006 S    
N1    N2    1.303006 D    
C7    N4    1.487730 S    
C16   O16   1.395819 S    
C16   O15   1.222772 D    
C8    N11   1.479846 S    
N3    O9    1.291418 A    
Zn2   O8    2.053104 S    
C12   C15   1.535503 S    
C10   C11   1.643210 S    
N10   O29   1.293477 A    
C13   N5    1.434358 S    
C1    C13   1.421710 S    
C6    H2    1.089449 S    
O8    C4    1.306489 A    
O26   H7    1.009033 S    
C11   N10   1.490275 S    
Zn1   N2    2.082489 S    
O1    Zn1   2.047700 S    
N5    O17   1.302386 A    
N4    O14   1.295637 A    
C11   C16   1.564118 S    
N2    N8    1.389845 S    
C17   O25   1.221791 D    
C6    C10   1.574126 S    
C7    N9    1.495765 S    
O3    Zn1   2.053105 S    
Zn2   N1    2.082489 S    
N6    O20   1.301040 A    
O12   H5    1.001776 S    
C7    C9    1.636038 S    
C8    H3    1.117389 S    
O2    C1    1.313705 A    
C15   O12   1.386594 S    
C10   C12   1.611320 S    
N1    N7    1.382054 S    
O4    C2    1.319930 A    
O7    C4    1.334422 A    
N8    O24   1.289568 A    
C17   O26   1.396812 S    
O3    C2    1.324073 A    
N9    O27   1.304681 A    
N11   O32   1.300387 A    
N11   O31   1.294071 A    
C5    C9    1.603629 S    
N4    O13   1.304320 A    
C8    C9    1.604505 S    
Zn2   O6    2.047698 S    
C15   O11   1.223534 D    
C8    C12   1.547133 S    
N5    O18   1.300258 A    
O2    Zn2   2.028046 S    
C13   C14   1.355842 D    
Zn1   O5    2.028046 S    
O5    C3    1.312502 A    
N8    O23   1.290550 A    
N6    O19   1.301525 A    
N7    O22   1.280280 A    
C12   H4    1.105044 S    
C5    C6    1.536469 S    
C2    C9    1.499494 S    
C7    C11   1.648643 S    
N9    O28   1.293270 A    
C14   N6    1.438121 S    
N7    O21   1.291447 A    
C6    C17   1.523765 S    
O1    C1    1.308863 A    
O6    C3    1.311220 A    
N10   O30   1.300731 A    
