data_mof_unit_30731.cif
_audit_creation_date              2012-12-11T14:01:34-0500
_audit_creation_method            fapswitch 2.2
_symmetry_space_group_name_H-M    P1
_symmetry_Int_Tables_number       1
_space_group_crystal_system       triclinic
_cell_length_a                    19.220689
_cell_length_b                    10.867852
_cell_length_c                    18.831503
_cell_angle_alpha                 89.985784
_cell_angle_beta                  89.726446
_cell_angle_gamma                 89.936377
_cell_volume                      3933.62015473

loop_
_atom_site_label
_atom_site_type_symbol
_atom_type_description
_atom_site_fract_x
_atom_site_fract_y
_atom_site_fract_z
_atom_type_partial_charge
C1    C     C_R   0.272858 0.042788 0.853259 0.524910
C2    C     C_R   0.974603 0.663970 0.974063 0.005764
C3    C     C_3   0.374895 0.779414 0.180598 -0.447013
C4    C     C_R   0.526208 0.163631 0.025588 0.006346
C5    C     C_R   0.474637 0.163900 0.974069 0.005501
C6    C     C_2   0.250440 0.574634 0.919260 0.269823
C7    C     C_2   0.749709 0.574463 0.080852 0.270492
C8    C     C_2   0.750387 0.074457 0.919186 0.269997
C9    C     C_2   0.249648 0.074645 0.080779 0.269924
C10   C     C_2   0.248898 0.591421 0.078381 -0.113686
C11   C     C_2   0.751130 0.591255 0.921658 -0.114419
C12   C     C_2   0.748886 0.091370 0.078364 -0.114110
C13   C     C_R   0.727159 0.042873 0.146755 0.525998
C14   C     C_2   0.251120 0.091309 0.921642 -0.113676
C15   C     C_2   0.296112 0.532823 0.038637 -0.149960
C16   C     C_2   0.704120 0.532494 0.961491 -0.149973
C17   C     C_2   0.795994 0.032589 0.038577 -0.149937
C18   C     C_2   0.203996 0.032742 0.961434 -0.149802
C19   C     C_2   0.304660 0.566696 0.964227 -0.130265
C20   C     C_2   0.695527 0.566516 0.035859 -0.129547
C21   C     C_2   0.804571 0.066540 0.964191 -0.129901
C22   C     C_2   0.195432 0.066725 0.035818 -0.130034
C23   C     C_2   0.512098 0.839768 0.584493 -0.112453
C24   C     C_R   0.772853 0.542800 0.853254 0.527384
C25   C     C_2   0.514108 0.829610 0.428592 -0.105006
C26   C     C_2   0.954152 0.329483 0.565620 -0.108156
C27   C     C_2   0.982271 0.338192 0.412621 -0.113431
C28   C     C_2   0.545616 0.748294 0.471982 -0.150910
C29   C     C_2   0.531037 0.740970 0.547450 -0.166128
C30   C     C_2   0.956889 0.239038 0.446288 -0.155392
C31   C     C_2   0.932374 0.243224 0.520096 -0.163282
C32   C     C_2   0.255376 0.611541 0.569569 -0.089681
C33   C     C_2   0.752216 0.568144 0.417985 -0.109710
C34   C     C_2   0.747909 0.067455 0.582180 -0.110311
C35   C     C_R   0.227157 0.542868 0.146753 0.524705
C36   C     C_2   0.244716 0.111449 0.430396 -0.092012
C37   C     C_2   0.254941 0.603909 0.414228 -0.112302
C38   C     C_2   0.761764 0.572170 0.573015 -0.090756
C39   C     C_2   0.737896 0.071404 0.427185 -0.090712
C40   C     C_2   0.245084 0.103866 0.585718 -0.109366
C41   C     C_R   0.440466 0.817799 0.862017 0.534209
C42   C     C_R   0.559562 0.817737 0.137985 0.534801
C43   C     C_R   0.940419 0.317804 0.862011 0.536661
C44   C     C_R   0.059500 0.317746 0.137981 0.534025
C45   C     C_2   0.214534 0.678331 0.452223 -0.167641
C46   C     C_R   0.548875 0.051222 0.052320 -0.090727
C47   C     C_2   0.816566 0.564837 0.528492 -0.149434
C48   C     C_2   0.683414 0.060485 0.471902 -0.146225
C49   C     C_2   0.285486 0.178160 0.547719 -0.167919
C50   C     C_2   0.227200 0.698059 0.527018 -0.147802
C51   C     C_2   0.811233 0.587640 0.453021 -0.159686
C52   C     C_2   0.688636 0.085209 0.547253 -0.160979
C53   C     C_2   0.272846 0.197898 0.472925 -0.148005
C54   C     C_R   0.261338 0.636126 0.851351 0.544272
C55   C     C_R   0.738693 0.636150 0.148676 0.542814
C56   C     C_R   0.761323 0.136073 0.851324 0.545027
C57   C     C_R   0.451752 0.051723 0.947333 -0.091850
C58   C     C_R   0.238681 0.136186 0.148657 0.543970
C59   C     C_R   0.271613 0.048271 0.649645 0.552548
C60   C     C_R   0.725761 0.042722 0.353514 0.548685
C61   C     C_R   0.774182 0.542852 0.646558 0.541804
C62   C     C_R   0.228398 0.548316 0.350339 0.552929
C63   C     C_R   0.472498 0.824749 0.649394 0.556363
C64   C     C_R   0.531917 0.823495 0.353968 0.547791
C65   C     C_R   0.936845 0.319613 0.640293 0.568844
C66   C     C_R   0.027035 0.324416 0.350513 0.556138
C67   C     C_R   0.262104 0.642116 0.643889 0.548671
C68   C     C_R   0.048746 0.551256 0.052383 -0.091270
C69   C     C_R   0.739490 0.634630 0.352906 0.546968
C70   C     C_R   0.760550 0.134595 0.647068 0.540845
C71   C     C_R   0.237921 0.142118 0.356091 0.547327
C72   C     C_R   0.534656 0.824955 0.064873 -0.017502
C73   C     C_R   0.465477 0.825077 0.935070 -0.016545
C74   C     C_R   0.034488 0.324984 0.064919 -0.016656
C75   C     C_R   0.965342 0.325117 0.935100 -0.018376
C76   C     C_R   0.521339 0.938155 0.029902 0.001822
C77   C     C_R   0.478976 0.938307 0.969901 0.002174
C78   C     C_R   0.021182 0.438197 0.029961 0.001921
C79   C     C_R   0.951711 0.551805 0.947317 -0.091088
C80   C     C_R   0.978853 0.438361 0.969932 0.001955
C81   C     C_R   0.483951 0.714252 0.967761 -0.176456
C82   C     C_R   0.516124 0.714195 0.032260 -0.176502
C83   C     C_R   0.983755 0.214293 0.967820 -0.176809
C84   C     C_R   0.015916 0.214230 0.032321 -0.176250
C85   C     C_1   0.054858 0.776289 0.053537 0.197848
C86   C     C_1   0.946211 0.776943 0.946074 0.198539
C87   C     C_1   0.554915 0.276262 0.053505 0.198510
C88   C     C_1   0.446179 0.276853 0.946126 0.197544
C89   C     C_3   0.174651 0.413905 0.916381 -0.000314
C90   C     C_R   0.026128 0.663673 0.025625 0.006186
C91   C     C_3   0.134987 0.411161 0.846093 -0.256204
C92   C     C_3   0.125083 0.279620 0.819746 -0.443702
C93   C     C_3   0.825673 0.413717 0.084316 0.001477
C94   C     C_3   0.865005 0.411577 0.154833 -0.257924
C95   C     C_3   0.874933 0.280254 0.181631 -0.447724
C96   C     C_3   0.674612 0.913728 0.915755 0.001396
C97   C     C_3   0.634794 0.911695 0.845526 -0.257902
C98   C     C_3   0.624953 0.780432 0.818723 -0.447389
C99   C     C_3   0.325551 0.913784 0.083749 0.001069
C100  C     C_3   0.365013 0.910968 0.154170 -0.257565
Cr1   Cr    Cr6+3 0.230530 0.836340 0.748870 1.024660
Cr2   Cr    Cr6+3 0.614360 0.677860 0.250770 1.021543
Cr3   Cr    Cr6+3 0.885640 0.177860 0.749230 1.019164
Cr4   Cr    Cr6+3 0.114360 0.177860 0.250770 1.023660
Cr5   Cr    Cr6+3 0.769470 0.836340 0.251130 1.021045
Cr6   Cr    Cr6+3 0.730530 0.336340 0.748870 1.015929
Cr7   Cr    Cr6+3 0.269470 0.336340 0.251130 1.021456
Cr8   Cr    Cr6+3 0.387420 0.989430 0.750820 1.012611
Cr9   Cr    Cr6+3 0.612580 0.989430 0.249180 1.015590
Cr10  Cr    Cr6+3 0.887420 0.489430 0.750820 1.013416
Cr11  Cr    Cr6+3 0.112580 0.489430 0.249180 1.013615
Cr12  Cr    Cr6+3 0.385640 0.677860 0.749230 1.023594
H1    H     H_    0.474214 0.625856 0.943303 0.167455
H2    H     H_    0.855672 0.631329 0.427594 0.154279
H3    H     H_    0.643992 0.128571 0.572573 0.154309
H4    H     H_    0.292586 0.283992 0.451414 0.156842
H5    H     H_    0.303867 0.569703 0.435242 0.106087
H6    H     H_    0.708966 0.587668 0.554845 0.089486
H7    H     H_    0.790342 0.090634 0.445184 0.086722
H8    H     H_    0.196193 0.069749 0.564685 0.108702
H9    H     H_    0.275837 0.524931 0.549717 0.088611
H10   H     H_    0.709397 0.517466 0.441889 0.104066
H11   H     H_    0.790899 0.017017 0.558304 0.104065
H12   H     H_    0.525800 0.625770 0.056785 0.167298
H13   H     H_    0.224319 0.024863 0.450260 0.087932
H14   H     H_    0.590192 0.052311 0.087893 0.184878
H15   H     H_    0.410593 0.053478 0.911560 0.185676
H16   H     H_    0.090052 0.552357 0.087978 0.185269
H17   H     H_    0.910626 0.553612 0.911475 0.185186
H18   H     H_    0.328217 0.459522 0.060089 0.168236
H19   H     H_    0.672160 0.459064 0.940119 0.168251
H20   H     H_    0.828016 0.959134 0.059989 0.167929
H21   H     H_    0.171954 0.959438 0.940030 0.168554
H22   H     H_    0.356552 0.591253 0.947002 0.124859
H23   H     H_    0.974030 0.125899 0.943357 0.167523
H24   H     H_    0.643618 0.591282 0.053011 0.124875
H25   H     H_    0.856452 0.091271 0.947030 0.124645
H26   H     H_    0.143521 0.091403 0.053019 0.124967
H27   H     H_    0.218655 0.666355 0.055765 0.142750
H28   H     H_    0.781245 0.666267 0.944218 0.142045
H29   H     H_    0.718709 0.166412 0.055772 0.142343
H30   H     H_    0.281306 0.166217 0.944224 0.142464
H31   H     H_    0.579596 0.677004 0.450786 0.155732
H32   H     H_    0.530269 0.649714 0.571055 0.153794
H33   H     H_    0.959854 0.148677 0.421788 0.153489
H34   H     H_    0.025602 0.125799 0.056837 0.167250
H35   H     H_    0.902107 0.165612 0.539439 0.135288
H36   H     H_    0.480258 0.902300 0.448017 0.093427
H37   H     H_    0.516790 0.931629 0.562142 0.102302
H38   H     H_    0.975581 0.430071 0.434170 0.097909
H39   H     H_    0.985912 0.406727 0.548823 0.105792
H40   H     H_    0.143335 0.365566 0.957370 0.155368
H41   H     H_    0.224091 0.360329 0.911410 0.122456
H42   H     H_    0.083442 0.455550 0.853554 0.203850
H43   H     H_    0.164034 0.463567 0.804964 0.170913
H44   H     H_    0.099529 0.222412 0.861157 0.173051
H45   H     H_    0.167477 0.718241 0.430183 0.155958
H46   H     H_    0.176201 0.238310 0.805823 0.144083
H47   H     H_    0.092052 0.280087 0.771539 0.192492
H48   H     H_    0.857295 0.365109 0.043646 0.155806
H49   H     H_    0.776304 0.360086 0.089157 0.122663
H50   H     H_    0.916539 0.455898 0.147498 0.201976
H51   H     H_    0.835711 0.464279 0.195686 0.167595
H52   H     H_    0.823779 0.238940 0.195249 0.145857
H53   H     H_    0.907593 0.281139 0.230106 0.174878
H54   H     H_    0.900888 0.222784 0.140569 0.174871
H55   H     H_    0.643397 0.864879 0.956643 0.155398
H56   H     H_    0.868778 0.549025 0.548428 0.147719
H57   H     H_    0.724083 0.860253 0.910467 0.122494
H58   H     H_    0.583218 0.955839 0.853262 0.201939
H59   H     H_    0.663691 0.964619 0.804519 0.168291
H60   H     H_    0.676102 0.739379 0.804569 0.146309
H61   H     H_    0.591844 0.781400 0.770570 0.175740
H62   H     H_    0.599500 0.722710 0.859980 0.174554
H63   H     H_    0.357054 0.865465 0.042869 0.155568
H64   H     H_    0.276156 0.860215 0.088545 0.122597
H65   H     H_    0.416563 0.955235 0.146852 0.202737
H66   H     H_    0.335827 0.963436 0.195206 0.168926
H67   H     H_    0.631562 0.040530 0.452131 0.155487
H68   H     H_    0.323751 0.738208 0.194351 0.144595
H69   H     H_    0.407761 0.779830 0.228928 0.179203
H70   H     H_    0.400615 0.722143 0.139291 0.174561
H71   H     H_    0.332510 0.217981 0.569764 0.155077
H72   H     H_    0.207402 0.784172 0.548524 0.156521
N1    N     N_1   0.077780 0.866311 0.076278 -0.336057
N2    N     N_1   0.923557 0.867252 0.923283 -0.334167
N3    N     N_1   0.577816 0.366299 0.076251 -0.335023
N4    N     N_1   0.423472 0.367147 0.923370 -0.335795
O1    O     O_R   0.215090 0.709860 0.828130 -0.492644
O2    O     O_R   0.543740 0.718170 0.330000 -0.510162
O3    O     O_R   0.956260 0.218170 0.670000 -0.498472
O4    O     O_R   0.043740 0.218170 0.330000 -0.509658
O5    O     O_R   0.320940 0.626760 0.674370 -0.493974
O6    O     O_R   0.679060 0.626760 0.325630 -0.504250
O7    O     O_R   0.820940 0.126760 0.674370 -0.518661
O8    O     O_R   0.179060 0.126760 0.325630 -0.492800
O9    O     O_3   0.334530 0.834540 0.749640 -0.265267
O10   O     O_3   0.665470 0.834540 0.250360 -0.266406
O11   O     O_3   0.834530 0.334540 0.749640 -0.286979
O12   O     O_R   0.784910 0.709860 0.171870 -0.495619
O13   O     O_3   0.165470 0.334540 0.250360 -0.264527
O14   O     O_R   0.236990 0.958390 0.823710 -0.496419
O15   O     O_R   0.763010 0.958390 0.176290 -0.496699
O16   O     O_R   0.736990 0.458390 0.823710 -0.494745
O17   O     O_R   0.263010 0.458390 0.176290 -0.496713
O18   O     O_R   0.332380 0.074750 0.830850 -0.542636
O19   O     O_R   0.667620 0.074750 0.169150 -0.540575
O20   O     O_R   0.832380 0.574750 0.830850 -0.539820
O21   O     O_R   0.167620 0.574750 0.169150 -0.542576
O22   O     O_R   0.445800 0.917770 0.825070 -0.521555
O23   O     O_R   0.715090 0.209860 0.828130 -0.494073
O24   O     O_R   0.554200 0.917770 0.174930 -0.518688
O25   O     O_R   0.945800 0.417770 0.825070 -0.513507
O26   O     O_R   0.054200 0.417770 0.174930 -0.521518
O27   O     O_R   0.456410 0.716580 0.829970 -0.520580
O28   O     O_R   0.543590 0.716580 0.170030 -0.517950
O29   O     O_R   0.956410 0.216580 0.829970 -0.514455
O30   O     O_R   0.043590 0.216580 0.170030 -0.520993
O31   O     O_R   0.321080 0.625290 0.822650 -0.535921
O32   O     O_R   0.678920 0.625290 0.177350 -0.535509
O33   O     O_R   0.821080 0.125290 0.822650 -0.534563
O34   O     O_R   0.284910 0.209860 0.171870 -0.493223
O35   O     O_R   0.178920 0.125290 0.177350 -0.535999
O36   O     O_R   0.214930 0.711450 0.668160 -0.514730
O37   O     O_R   0.785070 0.711450 0.331840 -0.513191
O38   O     O_R   0.714930 0.211450 0.668160 -0.512130
O39   O     O_R   0.285070 0.211450 0.331840 -0.516965
O40   O     O_R   0.236850 0.959870 0.675420 -0.503921
O41   O     O_R   0.763150 0.959870 0.324580 -0.493810
O42   O     O_R   0.736850 0.459870 0.675420 -0.495466
O43   O     O_R   0.263150 0.459870 0.324580 -0.504506
O44   O     O_R   0.332230 0.076350 0.670880 -0.509437
O45   O     O_R   0.445660 0.919250 0.676780 -0.493761
O46   O     O_R   0.667770 0.076350 0.329120 -0.511302
O47   O     O_R   0.832230 0.576350 0.670880 -0.517102
O48   O     O_R   0.167770 0.576350 0.329120 -0.508689
O49   O     O_3   0.184353 0.536925 0.939146 -0.576439
O50   O     O_3   0.815832 0.536504 0.061089 -0.576423
O51   O     O_3   0.684314 0.036502 0.938967 -0.576697
O52   O     O_3   0.315768 0.036810 0.060929 -0.576328
O53   O     O_R   0.554340 0.919250 0.323220 -0.495314
O54   O     O_R   0.945660 0.419250 0.676780 -0.497175
O55   O     O_R   0.054340 0.419250 0.323220 -0.492210
O56   O     O_R   0.456260 0.718170 0.670000 -0.509937

loop_
_geom_bond_atom_site_label_1
_geom_bond_atom_site_label_2
_ccdc_geom_bond_type
C14   H30   S    
C93   C94   S    
C54   O1    A    
Cr7   O43   S    
C7    C20   D    
C14   C18   D    
C36   H13   S    
Cr11  O26   S    
C21   H25   S    
C72   C76   A    
C100  H66   S    
C8    C56   S    
C41   C73   S    
C46   C76   A    
C37   C62   S    
C58   O34   A    
C54   O31   A    
C4    C87   S    
C4    C46   A    
C19   H22   S    
C15   C19   S    
C6    C19   D    
C34   H11   S    
C92   H47   S    
C44   O26   A    
C23   C29   D    
C28   C29   S    
Cr7   O13   S    
C48   C52   S    
Cr1   O1    S    
Cr1   O14   S    
Cr2   O10   S    
C30   C31   S    
C41   O27   A    
C58   O35   A    
C78   C80   A    
C9    C22   D    
C52   H3    S    
C66   O55   A    
C100  H65   S    
C40   C49   D    
Cr4   O4    S    
Cr2   O6    S    
C11   C24   S    
C12   H29   S    
C18   H21   S    
C92   H46   S    
C9    C58   S    
Cr12  O27   S    
C73   C81   A    
Cr8   O9    S    
Cr9   O19   S    
C16   H19   S    
C2    C79   A    
C49   H71   S    
C5    C88   S    
C3    C100  S    
C35   O17   A    
Cr5   O12   S    
C24   O16   A    
C99   H64   S    
C99   C100  S    
C70   O7    A    
Cr7   O39   S    
C12   C17   D    
C68   C90   A    
Cr6   O38   S    
C98   H62   S    
C10   C35   S    
C36   C53   D    
Cr5   O37   S    
C89   C91   S    
Cr9   O24   S    
C75   C80   A    
C94   H50   S    
Cr4   O35   S    
C83   H23   S    
C36   C71   S    
Cr2   O32   S    
C97   C98   S    
C38   C61   S    
C98   H60   S    
Cr9   O46   S    
C23   C63   S    
C23   H37   S    
C26   C31   D    
C40   C59   S    
C27   C30   D    
C68   C78   A    
Cr8   O22   S    
Cr11  O13   S    
Cr9   O10   S    
C43   O29   A    
Cr3   O7    S    
C6    C54   S    
C44   O30   A    
C1    O14   A    
C95   H53   S    
C82   H12   S    
C33   C69   S    
C57   H15   S    
C81   C82   A    
C89   H40   S    
C43   C75   S    
C6    O49   S    
C51   H2    S    
C62   O48   A    
C60   O41   A    
C3    H68   S    
C89   O49   S    
Cr10  O25   S    
C45   H45   S    
C76   C77   A    
C91   H42   S    
Cr8   O18   S    
C91   C92   S    
C98   H61   S    
C47   C51   S    
C64   O53   A    
C29   H32   S    
Cr6   O23   S    
C24   O20   A    
C17   C21   S    
C97   H58   S    
Cr6   O42   S    
C66   O4    A    
C25   C28   D    
C25   C64   S    
Cr5   O41   S    
C93   H48   S    
C11   H28   S    
Cr11  O21   S    
C91   H43   S    
C1    O18   A    
C57   C77   A    
C63   O45   A    
C11   C16   D    
Cr10  O54   S    
C89   H41   S    
C83   C84   A    
C7    O50   S    
Cr9   O53   S    
C93   O50   S    
C16   C20   S    
Cr4   O30   S    
C96   C97   S    
C9    O52   S    
C42   C72   S    
C61   O42   A    
Cr4   O8    S    
C96   H55   S    
C60   O46   A    
C92   H44   S    
C28   H31   S    
Cr3   O11   S    
C20   H24   S    
C44   C74   S    
C59   O40   A    
C3    H69   S    
C32   C50   D    
C38   C47   D    
Cr3   O29   S    
C32   C67   S    
C7    C55   S    
C68   H16   S    
Cr1   O36   S    
Cr2   O28   S    
Cr5   O10   S    
C40   H8    S    
C93   H49   S    
C86   N2    T    
C27   H38   S    
C96   H57   S    
Cr1   O40   S    
C65   O3    A    
C33   H10   S    
C61   O47   A    
C96   O51   S    
Cr3   O3    S    
C10   H27   S    
C41   O22   A    
C37   C45   D    
C39   H7    S    
C95   H54   S    
C59   O44   A    
Cr12  O9    S    
C42   O24   A    
Cr10  O47   S    
Cr12  O56   S    
C30   H33   S    
C56   O23   A    
Cr8   O44   S    
C8    O51   S    
C34   C70   S    
Cr8   O45   S    
C26   H39   S    
Cr11  O55   S    
C37   H5    S    
Cr5   O15   S    
Cr10  O11   S    
C18   C22   S    
C26   C65   S    
C71   O39   A    
C32   H9    S    
C46   H14   S    
C50   H72   S    
C70   O38   A    
C74   C84   A    
C4    C5    A    
C8    C21   D    
C69   O37   A    
C42   O28   A    
C87   N3    T    
C85   C90   S    
C53   H4    S    
C55   O32   A    
C84   H34   S    
C33   C51   D    
C65   O54   A    
C22   H26   S    
C34   C52   D    
C97   H59   S    
C5    C57   A    
C10   C15   D    
Cr4   O13   S    
Cr7   O34   S    
C79   H17   S    
C99   O52   S    
C35   O21   A    
C31   H35   S    
C27   C66   S    
C85   N1    T    
C95   H52   S    
Cr3   O33   S    
C47   H56   S    
C75   C83   A    
C71   O8    A    
C56   O33   A    
C15   H18   S    
C63   O56   A    
C45   C50   S    
C49   C53   S    
C39   C60   S    
C69   O6    A    
Cr2   O2    S    
Cr12  O31   S    
C2    C86   S    
C25   H36   S    
Cr1   O9    S    
C94   C95   S    
C3    H70   S    
Cr12  O5    S    
Cr7   O17   S    
Cr11  O48   S    
C13   O19   A    
Cr6   O16   S    
C79   C80   A    
C38   H6    S    
C13   O15   A    
C88   N4    T    
C99   H63   S    
C64   O2    A    
C55   O12   A    
C2    C90   A    
C62   O43   A    
C74   C78   A    
C81   H1    S    
C73   C77   A    
Cr6   O11   S    
Cr10  O20   S    
C1    C14   S    
C67   O36   A    
C12   C13   S    
C67   O5    A    
C94   H51   S    
C48   H67   S    
C72   C82   A    
C39   C48   D    
C17   H20   S    
C43   O25   A    
