data_mof_unit_35075.cif
_audit_creation_date              2013-03-05T15:55:53-0500
_audit_creation_method            fapswitch 2.2
_symmetry_space_group_name_H-M    P1
_symmetry_Int_Tables_number       1
_space_group_crystal_system       triclinic
_cell_length_a                    12.322453
_cell_length_b                    13.104848
_cell_length_c                    15.855616
_cell_angle_alpha                 77.837033
_cell_angle_beta                  101.063455
_cell_angle_gamma                 116.299946
_cell_volume                      2229.63110506

loop_
_atom_site_label
_atom_site_type_symbol
_atom_site_description
_atom_site_fract_x
_atom_site_fract_y
_atom_site_fract_z
_atom_type_partial_charge
O1    O     O_R   0.972510 0.318130 0.524770 -0.570621
O2    O     O_R   0.806530 0.359650 0.491510 -0.614712
C1    C     C_R   0.855143 0.286441 0.505811 0.799631
O3    O     O_R   0.082970 0.479240 0.637550 -0.577595
O4    O     O_R   0.916990 0.520750 0.604290 -0.578717
C2    C     C_R   0.999460 0.499838 0.659914 0.823166
Cu1   Cu    Cu3+1 0.098270 0.475420 0.519690 0.983355
Cu2   Cu    Cu3+1 0.901730 0.524580 0.480310 0.955646
O5    O     O_R   0.193470 0.640350 0.508490 -0.590549
O6    O     O_R   0.027490 0.681870 0.475230 -0.580014
O7    O     O_R   0.083010 0.479250 0.395710 -0.549162
O8    O     O_R   0.917030 0.520760 0.362450 -0.600164
C3    C     C_R   0.145083 0.714440 0.488189 0.818682
C4    C     C_R   0.000379 0.499932 0.340090 0.812623
C5    C     C_3   0.936301 0.390895 0.037599 -0.235310
C6    C     C_3   0.886398 0.460593 0.962663 0.028106
H1    H     H_    0.882902 0.302286 0.068915 0.172203
H2    H     H_    0.905977 0.623442 0.017555 0.173389
C7    C     C_1   0.998775 0.499944 0.749425 -0.140896
C8    C     C_1   0.000699 0.499229 0.250617 -0.122868
C9    C     C_3   0.051562 0.430508 0.990699 -0.207429
C10   C     C_3   0.999865 0.499724 0.916783 0.076989
C11   C     C_3   0.113078 0.537766 0.036926 0.398417
C12   C     C_3   0.000715 0.499027 0.083474 0.060091
C13   C     C_3   0.064366 0.607997 0.962347 -0.204616
C14   C     C_3   0.949078 0.568131 0.009262 -0.235198
C15   C     C_1   0.998993 0.499902 0.824987 -0.000160
C16   C     C_1   0.000657 0.498893 0.175134 0.043199
H3    H     H_    0.118381 0.696581 0.931324 0.179079
H4    H     H_    0.095312 0.375661 0.982604 0.175758
C17   C     C_R   0.271018 0.040941 0.426665 0.293228
C18   C     C_R   0.227750 0.838488 0.475121 -0.150562
C19   C     C_R   0.817787 0.081699 0.548328 -0.239329
C20   C     C_R   0.739447 0.965138 0.562848 0.383421
C21   C     C_R   0.614271 0.931105 0.538195 -0.264763
C22   C     C_R   0.566569 0.010783 0.492626 0.051344
C23   C     C_R   0.649463 0.125943 0.470415 0.077316
C24   C     C_R   0.439159 0.981071 0.470990 0.058237
C25   C     C_R   0.397165 0.067429 0.431817 -0.005909
C26   C     C_R   0.482882 0.175392 0.396418 -0.059408
C27   C     C_R   0.606295 0.200838 0.412882 -0.222434
C28   C     C_R   0.352618 0.867578 0.487092 -0.234134
C29   C     C_R   0.186971 0.926802 0.449568 -0.154716
C30   C     C_R   0.773605 0.163155 0.505501 -0.156932
H5    H     H_    0.380762 0.798686 0.506789 0.166755
H6    H     H_    0.913308 0.109427 0.572739 0.203366
H7    H     H_    0.557038 0.842137 0.557353 0.172470
H8    H     H_    0.668485 0.280281 0.379289 0.171159
C31   C     C_R   0.344564 0.326166 0.638520 -0.088561
H9    H     H_    0.166328 0.308933 0.651500 0.128799
H10   H     H_    0.550523 0.294495 0.666189 0.168261
N1    N     N_R   0.246280 0.438200 0.549540 -0.191339
C32   C     C_R   0.758561 0.644780 0.382800 0.108624
C33   C     C_R   0.661883 0.676409 0.357523 -0.195986
C34   C     C_R   0.558983 0.621742 0.401935 -0.139057
C35   C     C_R   0.551385 0.534045 0.472736 0.016907
C36   C     C_R   0.653293 0.505130 0.496483 0.298986
C37   C     C_R   0.447107 0.474263 0.520707 -0.010827
C38   C     C_R   0.446558 0.386469 0.591068 0.142612
C39   C     C_R   0.547658 0.360494 0.612786 -0.236840
C40   C     C_R   0.648081 0.418612 0.567108 -0.160038
C41   C     C_R   0.342496 0.497648 0.501902 0.075816
C42   C     C_R   0.245326 0.354182 0.616047 0.080759
N2    N     N_R   0.754330 0.561180 0.450980 -0.211112
H11   H     H_    0.335171 0.562684 0.449873 0.123014
H12   H     H_    0.837970 0.687591 0.347867 0.132976
H13   H     H_    0.487070 0.649845 0.379325 0.149231
H14   H     H_    0.666682 0.743516 0.303252 0.165800
H15   H     H_    0.719959 0.392281 0.590121 0.201968
C43   C     C_1   0.760747 0.417830 0.920287 0.274454
N3    N     N_1   0.661706 0.384121 0.886725 -0.251583
N4    N     N_R   0.786155 0.881914 0.606055 0.139143
O9    O     O_R   0.900928 0.914662 0.635394 -0.344930
O10   O     O_R   0.715261 0.772354 0.614103 -0.359307
C44   C     C_1   0.338544 0.235304 0.709937 0.250723
N5    N     N_1   0.333652 0.162558 0.767076 -0.232902
N6    N     N_R   0.239172 0.580576 0.076532 0.130587
O11   O     O_R   0.326562 0.611046 0.028979 -0.334212
O12   O     O_R   0.265307 0.588170 0.159066 -0.347782
C45   C     C_1   0.060495 0.903556 0.449257 0.404602
N7    N     N_1   0.959728 0.885844 0.449151 -0.216730
C46   C     C_1   0.449204 0.260197 0.337965 0.336963
N8    N     N_1   0.423078 0.328538 0.291172 -0.192793
N9    N     N_R   0.228533 0.130187 0.404769 0.112625
O13   O     O_R   0.264752 0.208681 0.454951 -0.366818
O14   O     O_R   0.145585 0.127188 0.339480 -0.343461

loop_
_geom_bond_atom_site_label_1
_geom_bond_atom_site_label_2
_geom_bond_distance
_ccdc_geom_bond_type
C37   C41   1.417225 A    
C34   C35   1.411062 A    
C31   C42   1.390178 A    
C3    C18   1.481537 S    
C21   C22   1.421554 A    
H2    C14   1.110345 S    
C21   H7    1.073933 S    
Cu1   Cu2   2.702407 S    
C32   C33   1.391407 A    
Cu1   O7    1.930565 S    
C2    C7    1.421194 S    
C17   C29   1.408738 A    
C22   C23   1.411746 A    
C12   C14   1.543951 S    
Cu1   N1    2.036683 S    
C24   C28   1.397670 A    
O4    C2    1.298711 A    
C32   N2    1.357778 A    
C33   H14   1.082551 S    
C5    C6    1.544055 S    
C35   C36   1.429110 A    
C5    H1    1.110537 S    
C20   C21   1.401206 A    
O5    C3    1.307470 A    
C27   H8    1.082044 S    
C35   C37   1.440613 A    
C10   C13   1.542450 S    
C11   C12   1.526745 S    
C31   C44   1.446153 S    
C43   N3    1.157505 T    
C7    C15   1.197451 T    
C38   C39   1.395795 A    
C9    C10   1.542621 S    
C13   H3    1.110387 S    
H9    C42   1.083168 S    
O3    Cu1   1.926980 S    
N6    O12   1.300332 A    
C6    C14   1.543931 S    
C1    C30   1.477442 S    
C26   C46   1.446842 S    
C6    C43   1.467422 S    
N9    O13   1.300846 A    
O3    C2    1.297707 A    
C25   C26   1.414593 A    
C45   N7    1.157437 T    
C8    C16   1.197662 T    
C37   C38   1.422492 A    
N6    O11   1.300486 A    
N1    C42   1.352211 A    
C17   N9    1.436717 S    
C39   C40   1.382851 A    
O1    C1    1.306906 A    
C28   H5    1.072361 S    
C44   N5    1.157300 T    
C4    C8    1.421393 S    
Cu2   O8    1.926980 S    
C19   C20   1.395923 A    
O7    C4    1.298904 A    
C11   N6    1.457697 S    
C32   H12   1.081491 S    
Cu2   N2    2.024645 S    
N4    O10   1.301919 A    
C26   C27   1.388158 A    
O8    C4    1.297686 A    
C10   C15   1.452984 S    
C9    C11   1.537622 S    
C20   N4    1.442283 S    
C36   N2    1.386077 A    
C40   H15   1.063217 S    
Cu1   O5    1.936662 S    
C33   C34   1.393553 A    
C5    C12   1.543751 S    
C6    C10   1.531306 S    
C41   H11   1.076296 S    
O1    Cu1   1.950419 S    
C19   C30   1.401665 A    
O2    Cu2   1.936662 S    
C12   C16   1.453103 S    
N9    O14   1.301297 A    
N4    O9    1.301752 A    
O6    C3    1.303350 A    
O4    Cu2   1.930565 S    
C34   H13   1.077535 S    
C36   C40   1.404156 A    
C9    H4    1.110176 S    
C19   H6    1.082917 S    
C31   C38   1.415069 A    
C23   C30   1.419162 A    
C22   C24   1.429011 A    
O2    C1    1.302358 A    
C13   C14   1.558393 S    
N1    C41   1.363961 A    
C24   C25   1.426083 A    
C29   C45   1.448689 S    
C18   C29   1.412695 A    
C17   C25   1.424265 A    
C11   C13   1.537591 S    
C23   C27   1.406265 A    
C5    C9    1.558536 S    
Cu2   O6    1.950419 S    
C46   N8    1.157599 T    
C18   C28   1.395531 A    
H10   C39   1.083162 S    
