data_mof_unit_20663.cif
_audit_creation_date              2012-10-26T19:04:20-0400
_audit_creation_method            fapswitch 2.2
_symmetry_space_group_name_H-M    P1
_symmetry_Int_Tables_number       1
_space_group_crystal_system       triclinic
_cell_length_a                    14.553518
_cell_length_b                    16.263246
_cell_length_c                    9.650229
_cell_angle_alpha                 89.82071
_cell_angle_beta                  92.766201
_cell_angle_gamma                 89.688469
_cell_volume                      2281.37968975

loop_
_atom_site_label
_atom_site_type_symbol
_atom_type_description
_atom_site_fract_x
_atom_site_fract_y
_atom_site_fract_z
_atom_type_partial_charge
C1    C     C_R   0.372023 0.889557 0.498742 0.537748
C2    C     C_R   0.679180 0.243396 0.390082 -0.127342
C3    C     C_R   0.171289 0.249998 0.395079 -0.118852
C4    C     C_R   0.179180 0.743396 0.390082 -0.127342
C5    C     C_R   0.666517 0.799526 0.512274 -0.014987
C6    C     C_R   0.667615 0.200416 0.514657 -0.017255
C7    C     C_R   0.166517 0.299526 0.512274 -0.014987
C8    C     C_R   0.167615 0.700416 0.514656 -0.017255
C9    C     C_R   0.666363 0.994475 0.164180 -0.052957
C10   C     C_R   0.166363 0.494475 0.164180 -0.052957
C11   C     C_R   0.751285 0.988863 0.109318 -0.025802
C12   C     C_R   0.380755 0.118986 0.497283 0.520335
C13   C     C_R   0.251285 0.488863 0.109318 -0.025802
C14   C     C_R   0.757312 0.989282 0.968991 -0.165602
C15   C     C_R   0.257312 0.489282 0.968991 -0.165602
C16   C     C_R   0.678773 0.993435 0.879478 -0.022180
C17   C     C_R   0.178773 0.493435 0.879478 -0.022180
C18   C     C_R   0.585510 0.995234 0.932421 0.153694
C19   C     C_R   0.085510 0.495234 0.932421 0.153694
C20   C     C_R   0.583086 0.996000 0.082618 0.142201
C21   C     C_R   0.083086 0.496000 0.082618 0.142201
C22   C     C_R   0.421838 0.006228 0.067635 0.017778
C23   C     C_R   0.872023 0.389557 0.498742 0.537748
C24   C     C_R   0.921838 0.506228 0.067635 0.017778
C25   C     C_R   0.613710 0.123061 0.503586 0.558061
C26   C     C_R   0.610891 0.875550 0.502900 0.574036
C27   C     C_R   0.113710 0.623061 0.503586 0.558061
C28   C     C_R   0.110891 0.375550 0.502900 0.574036
C29   C     C_R   0.421849 0.007933 0.920827 0.029149
C30   C     C_R   0.921849 0.507933 0.920827 0.029149
C31   C     C_R   0.382839 0.252587 0.700017 -0.078702
C32   C     C_R   0.279832 0.851460 0.755141 -0.087739
C33   C     C_R   0.882839 0.752587 0.700017 -0.078702
C34   C     C_R   0.880755 0.618986 0.497283 0.520335
C35   C     C_R   0.779833 0.351460 0.755141 -0.087738
C36   C     C_R   0.367741 0.282042 0.832305 -0.116374
C37   C     C_R   0.292640 0.810070 0.878640 -0.095160
C38   C     C_R   0.867741 0.782042 0.832305 -0.116374
C39   C     C_R   0.792640 0.310069 0.878640 -0.095160
C40   C     C_R   0.777837 0.793786 0.871856 -0.023109
C41   C     C_R   0.754304 0.233217 0.890752 -0.004242
C42   C     C_R   0.277837 0.293786 0.871856 -0.023109
C43   C     C_R   0.254304 0.733217 0.890752 -0.004242
C44   C     C_R   0.704867 0.795239 0.770185 -0.004058
C45   C     C_R   0.238726 0.188823 0.389270 -0.017234
C46   C     C_R   0.693957 0.205227 0.782128 -0.000775
C47   C     C_R   0.204867 0.295239 0.770185 -0.004058
C48   C     C_R   0.193957 0.705227 0.782128 -0.000775
C49   C     C_R   0.724995 0.780707 0.629740 0.001238
C50   C     C_R   0.705173 0.235341 0.642836 -0.003576
C51   C     C_R   0.224995 0.280707 0.629740 0.001238
C52   C     C_R   0.205173 0.735341 0.642836 -0.003576
C53   C     C_R   0.308096 0.240406 0.605474 0.000407
C54   C     C_R   0.258842 0.807527 0.632709 0.005773
C55   C     C_R   0.808096 0.740406 0.605474 0.000407
C56   C     C_R   0.239074 0.809852 0.383254 -0.021512
C57   C     C_R   0.758842 0.307527 0.632709 0.005773
C58   C     C_R   0.311576 0.186020 0.492236 -0.014571
C59   C     C_R   0.288663 0.835758 0.503060 -0.017267
C60   C     C_R   0.811576 0.686020 0.492236 -0.014571
C61   C     C_R   0.788663 0.335758 0.503060 -0.017267
C62   C     C_1   0.228489 0.130193 0.278120 0.244338
C63   C     C_1   0.237897 0.857344 0.257191 0.239423
C64   C     C_1   0.728489 0.630193 0.278120 0.244338
C65   C     C_1   0.737897 0.357344 0.257191 0.239423
C66   C     C_1   0.711452 0.998160 0.741681 0.271609
C67   C     C_R   0.738726 0.688823 0.389270 -0.017234
C68   C     C_1   0.211452 0.498160 0.741681 0.271609
C69   C     C_1   0.762507 0.799546 0.017379 0.201529
C70   C     C_1   0.761285 0.195496 0.026035 0.204957
C71   C     C_1   0.262508 0.299546 0.017379 0.201529
C72   C     C_1   0.261285 0.695496 0.026034 0.204957
C73   C     C_1   0.610870 0.793598 0.813534 0.235086
C74   C     C_1   0.605538 0.184149 0.831693 0.210736
C75   C     C_1   0.110870 0.293598 0.813534 0.235086
C76   C     C_1   0.105538 0.684149 0.831693 0.210737
C77   C     C_1   0.833793 0.984865 0.198702 0.249673
C78   C     C_R   0.739074 0.309852 0.383254 -0.021512
C79   C     C_1   0.333794 0.484865 0.198702 0.249673
C80   C     C_R   0.671289 0.749998 0.395079 -0.118852
Cu1   Cu    Cu3+1 0.499990 1.000000 0.640660 0.984390
Cu2   Cu    Cu3+1 0.999990 0.500000 0.640660 0.984390
Cu3   Cu    Cu3+1 0.500010 0.000000 0.359340 0.976601
Cu4   Cu    Cu3+1 0.000010 0.500000 0.359340 0.976601
H1    H     H_    0.826247 0.986775 0.929572 0.134537
H2    H     H_    0.327664 0.839905 0.965947 0.153689
H3    H     H_    0.924827 0.788413 0.907539 0.153889
H4    H     H_    0.827664 0.339904 0.965947 0.153689
H5    H     H_    0.620835 0.757819 0.309477 0.164000
H6    H     H_    0.641333 0.224684 0.296008 0.166922
H7    H     H_    0.120835 0.257819 0.309477 0.164000
H8    H     H_    0.141333 0.724684 0.296008 0.166922
H9    H     H_    0.357733 0.011182 0.117441 0.167726
H10   H     H_    0.857733 0.511182 0.117441 0.167726
H11   H     H_    0.670567 0.999228 0.273090 0.203144
H12   H     H_    0.326247 0.486775 0.929572 0.134537
H13   H     H_    0.170567 0.499228 0.273090 0.203144
H14   H     H_    0.357717 0.018247 0.862752 0.110572
H15   H     H_    0.857717 0.518247 0.862752 0.110572
H16   H     H_    0.451737 0.237005 0.672075 0.151460
H17   H     H_    0.291031 0.916645 0.754203 0.134764
H18   H     H_    0.951737 0.737005 0.672075 0.151460
H19   H     H_    0.791031 0.416645 0.754204 0.134764
H20   H     H_    0.424827 0.288414 0.907538 0.153889
N1    N     N_R   0.501200 0.000000 0.147910 -0.253719
N2    N     N_1   0.245040 0.501192 0.635236 -0.288230
N3    N     N_1   0.751054 0.804107 0.134579 -0.307969
N4    N     N_1   0.768612 0.166990 0.135791 -0.310317
N5    N     N_1   0.251054 0.304107 0.134579 -0.307969
N6    N     N_1   0.268613 0.666991 0.135791 -0.310317
N7    N     N_1   0.535931 0.791964 0.848520 -0.272185
N8    N     N_1   0.535810 0.168873 0.877505 -0.313694
N9    N     N_1   0.035931 0.291964 0.848520 -0.272185
N10   N     N_1   0.035810 0.668873 0.877505 -0.313694
N11   N     N_1   0.899810 0.981612 0.270361 -0.257472
N12   N     N_R   0.001200 0.500000 0.147910 -0.253719
N13   N     N_1   0.399810 0.481612 0.270361 -0.257472
N14   N     N_R   0.501270 0.000000 0.852040 -0.225814
N15   N     N_R   0.001270 0.500000 0.852040 -0.225814
N16   N     N_1   0.217636 0.083967 0.188174 -0.285507
N17   N     N_1   0.234565 0.896274 0.156713 -0.316371
N18   N     N_1   0.717636 0.583967 0.188174 -0.285507
N19   N     N_1   0.734565 0.396274 0.156713 -0.316371
N20   N     N_1   0.745040 0.001192 0.635236 -0.288230
O1    O     O_R   0.409820 0.909830 0.618810 -0.507713
O2    O     O_R   0.590170 0.909830 0.618760 -0.494214
O3    O     O_R   0.090170 0.590170 0.618760 -0.497409
O4    O     O_R   0.090170 0.409830 0.618760 -0.494214
O5    O     O_R   0.590190 0.090180 0.381190 -0.523220
O6    O     O_R   0.590190 0.909820 0.381190 -0.520998
O7    O     O_R   0.090190 0.590180 0.381190 -0.523220
O8    O     O_R   0.090190 0.409820 0.381190 -0.520998
O9    O     O_R   0.409820 0.090170 0.618810 -0.509400
O10   O     O_R   0.909820 0.409830 0.618810 -0.507713
O11   O     O_R   0.909820 0.590170 0.618810 -0.509400
O12   O     O_R   0.409840 0.909830 0.381240 -0.489534
O13   O     O_R   0.409840 0.090170 0.381240 -0.496402
O14   O     O_R   0.909840 0.409830 0.381240 -0.489534
O15   O     O_R   0.909840 0.590170 0.381240 -0.496402
O16   O     O_R   0.590170 0.090170 0.618760 -0.497409

loop_
_geom_bond_atom_site_label_1
_geom_bond_atom_site_label_2
_ccdc_geom_bond_type
C44   C49   A    
C33   C55   A    
Cu1   O16   S    
C13   C79   S    
C37   C43   A    
C43   C72   S    
C22   C29   A    
Cu1   O2    S    
C27   O7    A    
C48   C76   S    
C23   O14   A    
C36   C42   A    
Cu3   O13   S    
C4    C8    A    
C25   O5    A    
C69   N3    T    
C39   C41   A    
C29   H14   S    
Cu2   N15   S    
C19   C21   A    
C1    O1    A    
Cu3   O5    S    
C3    C7    A    
C1    C59   S    
C74   N8    T    
C11   C14   A    
C6    C25   S    
C30   N15   A    
C79   N13   T    
C45   C62   S    
Cu2   O11   S    
C18   C20   A    
C3    H7    S    
C26   O2    A    
C80   H5    S    
C2    H6    S    
C11   C77   S    
C63   N17   T    
C27   O3    A    
Cu4   O15   S    
C76   N10   T    
C41   C46   A    
C75   N9    T    
C1    O12   A    
C43   C48   A    
C9    H11   S    
C40   C44   A    
C62   N16   T    
C26   O6    A    
C12   C58   S    
C19   N15   A    
C31   C36   A    
Cu4   N12   S    
C55   C60   A    
C4    C56   A    
C34   C60   S    
C5    C49   A    
C2    C6    A    
C68   N2    T    
C39   H4    S    
C21   N12   A    
C32   C54   A    
Cu1   Cu3   S    
C52   C54   A    
C73   N7    T    
C54   C59   A    
C10   C21   A    
C72   N6    T    
C45   C58   A    
C32   C37   A    
C40   C69   S    
C33   H18   S    
C30   H15   S    
C64   C67   S    
C37   H2    S    
C25   O16   A    
C60   C67   A    
Cu3   O6    S    
C15   H12   S    
C47   C51   A    
C49   C55   A    
Cu1   N14   S    
C3    C45   A    
C31   C53   A    
C7    C28   S    
Cu3   N1    S    
C28   O8    A    
Cu2   O10   S    
C10   H13   S    
C35   C39   A    
C2    C78   A    
C24   H10   S    
C9    C20   A    
C34   O15   A    
C23   C61   S    
C61   C78   A    
C56   C63   S    
C31   H16   S    
C6    C50   A    
C5    C80   A    
C57   C61   A    
C9    C11   A    
Cu2   O4    S    
Cu3   O12   S    
C24   N12   A    
Cu2   Cu4   S    
C12   O9    A    
C13   C15   A    
C22   H9    S    
C66   N20   T    
C16   C66   S    
C46   C74   S    
C20   N1    A    
C15   C17   A    
C8    C52   A    
C17   C68   S    
C65   C78   S    
C23   O10   A    
Cu1   O1    S    
C12   O13   A    
C50   C57   A    
C67   C80   A    
C14   H1    S    
C10   C13   A    
C53   C58   A    
Cu1   O9    S    
C18   N14   A    
C22   N1    A    
C29   N14   A    
C46   C50   A    
Cu4   O7    S    
C35   H19   S    
C33   C38   A    
Cu4   O14   S    
C56   C59   A    
C36   H20   S    
C38   H3    S    
C35   C57   A    
C7    C51   A    
C70   N4    T    
C38   C40   A    
C34   O11   A    
C64   N18   T    
C71   N5    T    
C42   C71   S    
C17   C19   A    
Cu4   O8    S    
C14   C16   A    
C42   C47   A    
C65   N19   T    
C44   C73   S    
C24   C30   A    
Cu2   O3    S    
C47   C75   S    
C5    C26   S    
C48   C52   A    
C16   C18   A    
C8    C27   S    
C32   H17   S    
C51   C53   A    
C77   N11   T    
C28   O4    A    
C41   C70   S    
C4    H8    S    
