data_mof_unit_12653.cif
_audit_creation_date              2013-03-05T15:58:18-0500
_audit_creation_method            fapswitch 2.2
_symmetry_space_group_name_H-M    P1
_symmetry_Int_Tables_number       1
_space_group_crystal_system       triclinic
_cell_length_a                    14.819414
_cell_length_b                    15.015105
_cell_length_c                    15.198135
_cell_angle_alpha                 110.23649
_cell_angle_beta                  108.509017
_cell_angle_gamma                 108.723335
_cell_volume                      2632.70192439

loop_
_atom_site_label
_atom_site_type_symbol
_atom_site_description
_atom_site_fract_x
_atom_site_fract_y
_atom_site_fract_z
_atom_type_partial_charge
C1    C     C_R   0.975759 0.249567 0.062082 -0.099811
C2    C     C_R   0.066033 0.787949 0.978672 -0.095754
H1    H     H_    0.933384 0.226115 0.102911 0.110501
H2    H     H_    0.126196 0.820320 0.956838 0.125457
N1    N     N_R   0.947560 0.293820 0.002910 -0.039020
N2    N     N_R   0.052440 0.706180 0.997090 -0.042672
C3    C     C_R   0.312823 0.777938 0.219938 -0.071680
C4    C     C_R   0.704452 0.196161 0.794653 -0.107050
N3    N     N_R   0.208960 0.706170 0.152110 -0.060231
N4    N     N_R   0.791040 0.293830 0.847890 -0.061572
C5    C     C_R   0.214344 0.410666 0.908407 -0.127377
C6    C     C_R   0.774024 0.590866 0.026520 -0.122532
H3    H     H_    0.189426 0.329113 0.853631 0.119232
H4    H     H_    0.788327 0.672957 0.064379 0.124807
N5    N     N_R   0.154330 0.443160 0.946140 -0.044772
N6    N     N_R   0.845670 0.556840 0.053860 -0.044778
C7    C     C_R   0.998666 0.591128 0.299428 -0.144550
C8    C     C_R   0.951639 0.409842 0.687148 -0.128518
H5    H     H_    0.024678 0.674589 0.353610 0.105000
H6    H     H_    0.909683 0.326817 0.623090 0.106745
N7    N     N_R   0.002190 0.556820 0.208880 -0.046137
N8    N     N_R   0.997810 0.443180 0.791120 -0.040113
C9    C     C_R   0.303890 0.590657 0.000681 -0.112813
C10   C     C_R   0.685902 0.409051 0.933478 -0.073557
H7    H     H_    0.358403 0.672821 0.026095 0.129817
H8    H     H_    0.622294 0.325647 0.883137 0.099636
N9    N     N_R   0.210550 0.556810 0.002910 -0.045359
N10   N     N_R   0.789450 0.443190 0.997090 -0.023222
C11   C     C_R   0.912375 0.409403 0.211757 -0.078554
C12   C     C_R   0.036121 0.592807 0.780031 -0.101456
H9    H     H_    0.861719 0.325792 0.186696 0.120863
H10   H     H_    0.068680 0.676689 0.800921 0.109570
N11   N     N_R   0.945970 0.443180 0.152110 -0.035998
N12   N     N_R   0.054030 0.556820 0.847890 -0.041772
C13   C     C_R   0.220717 0.763806 0.312265 -0.082503
C14   C     C_R   0.791737 0.200605 0.699630 -0.068572
H11   H     H_    0.198740 0.774954 0.374880 0.122766
H12   H     H_    0.817424 0.178415 0.640750 0.130596
N13   N     N_R   0.151530 0.706170 0.208880 -0.055855
N14   N     N_R   0.848470 0.293830 0.791120 -0.051770
C15   C     C_R   0.080330 0.268492 0.985515 -0.132874
C16   C     C_R   0.970339 0.785344 0.065847 -0.152982
H13   H     H_    0.148263 0.279716 0.971257 0.128115
H14   H     H_    0.940399 0.811610 0.119063 0.126252
N15   N     N_R   0.004980 0.293810 0.946140 -0.039800
N16   N     N_R   0.995020 0.706190 0.053860 -0.045431
C17   C     C_R   0.059304 0.230618 0.050683 0.057695
C18   C     C_R   0.006906 0.833741 0.012647 0.076034
C19   C     C_R   0.322362 0.810827 0.321244 -0.048948
C20   C     C_R   0.701413 0.138067 0.700073 -0.043996
C21   C     C_R   0.306903 0.500592 0.942050 0.007459
C22   C     C_R   0.675048 0.499985 0.949877 -0.017571
C23   C     C_R   0.944667 0.500905 0.303826 0.030128
C24   C     C_R   0.976495 0.503013 0.679520 0.037263
H15   H     H_    0.284172 0.164919 0.753635 0.143956
H16   H     H_    0.604331 0.854474 0.074741 0.127938
C25   C     C_R   0.042644 0.962352 0.947966 -0.039480
C26   C     C_R   0.049747 0.111984 0.126710 -0.032811
C27   C     C_R   0.134319 0.123734 0.761706 -0.068549
C28   C     C_R   0.772611 0.894602 0.160632 0.010542
Ni1   Ni    Ni4+2 0.869690 0.369690 0.000000 0.260169
Ni2   Ni    Ni4+2 0.130310 0.630310 0.000000 0.257570
Ni3   Ni    Ni4+2 0.001390 0.369680 0.869810 0.241654
Ni4   Ni    Ni4+2 0.998610 0.630320 0.130190 0.226007
C29   C     C_R   0.081287 0.094953 0.817326 -0.240663
C30   C     C_R   0.876030 0.941579 0.169609 -0.260231
H17   H     H_    0.382353 0.161896 0.914964 0.120089
H18   H     H_    0.628315 0.904707 0.942731 0.131930
H19   H     H_    0.473743 0.122204 0.041404 0.105275
H20   H     H_    0.442665 0.858078 0.938492 0.103216
C31   C     C_R   0.590160 0.293042 0.137766 -0.086790
C32   C     C_R   0.329809 0.691463 0.815745 -0.128919
H21   H     H_    0.544104 0.315436 0.086795 0.104842
H22   H     H_    0.380763 0.660888 0.848288 0.114099
C33   C     C_R   0.689532 0.373058 0.229413 -0.116841
C34   C     C_R   0.228605 0.619633 0.723560 -0.115124
H23   H     H_    0.718936 0.456979 0.248839 0.108984
H24   H     H_    0.201580 0.533403 0.685728 0.116506
C35   C     C_R   0.749853 0.344655 0.296071 0.094815
C36   C     C_R   0.161947 0.659213 0.681584 0.090008
C37   C     C_R   0.709250 0.235064 0.269281 -0.152489
C38   C     C_R   0.198548 0.771318 0.732037 -0.174051
H25   H     H_    0.754659 0.211258 0.319171 0.122822
H26   H     H_    0.147409 0.802725 0.701243 0.151611
C39   C     C_R   0.610118 0.155423 0.177551 -0.077730
C40   C     C_R   0.299384 0.842685 0.824649 -0.057302
H27   H     H_    0.579561 0.071208 0.157141 0.120280
H28   H     H_    0.326440 0.928839 0.864237 0.138652
C41   C     C_R   0.550364 0.184403 0.112200 -0.131955
C42   C     C_R   0.364907 0.802772 0.866528 -0.064874
C43   C     C_R   0.866919 0.431836 0.490785 -0.241678
C44   C     C_R   0.037637 0.583725 0.493379 -0.233902
H29   H     H_    0.800919 0.374638 0.492004 0.143641
H30   H     H_    0.106172 0.639998 0.494207 0.145431
C45   C     C_R   0.965069 0.507416 0.584861 0.070965
C46   C     C_R   0.941182 0.505770 0.397962 0.063656
C47   C     C_R   0.052270 0.583658 0.586721 0.017638
C48   C     C_R   0.853828 0.428849 0.395270 0.020810
H31   H     H_    0.996936 0.075713 0.790061 0.175642
H32   H     H_    0.946094 0.955638 0.234646 0.141767
H33   H     H_    0.407724 0.376830 0.988780 0.120833
H34   H     H_    0.566103 0.623193 0.870857 0.130464
H35   H     H_    0.294163 0.126618 0.021984 0.125293
H36   H     H_    0.805916 0.967013 0.946949 0.117282
C49   C     C_R   0.139919 0.101053 0.914453 0.115587
C50   C     C_R   0.887972 0.961838 0.089584 0.123631
C51   C     C_R   0.298867 0.144574 0.889078 -0.103623
C52   C     C_R   0.697014 0.913266 0.005149 -0.131270
H37   H     H_    0.056084 0.019851 0.411651 0.164060
H38   H     H_    0.914110 0.840306 0.592885 0.117814
C53   C     C_R   0.185105 0.030836 0.372279 -0.156430
C54   C     C_R   0.787061 0.848883 0.628901 -0.112120
H39   H     H_    0.155285 0.051651 0.311770 0.114856
H40   H     H_    0.792413 0.804297 0.671319 0.114832
C55   C     C_R   0.279592 0.021938 0.394213 -0.119399
C56   C     C_R   0.710706 0.884977 0.617540 -0.132961
H41   H     H_    0.322159 0.036016 0.350069 0.126574
H42   H     H_    0.657050 0.866900 0.650866 0.132967
C57   C     C_R   0.318474 0.993802 0.471806 0.022515
C58   C     C_R   0.699851 0.939688 0.559670 0.006046
C59   C     C_R   0.261057 0.973885 0.527943 -0.129551
C60   C     C_R   0.769247 0.960932 0.514295 -0.008507
C61   C     C_R   0.166151 0.983465 0.504619 -0.130240
C62   C     C_R   0.846599 0.924585 0.528061 -0.122626
H43   H     H_    0.119326 0.966494 0.544470 0.142964
H44   H     H_    0.901738 0.940003 0.495905 0.164656
C63   C     C_R   0.128908 0.012227 0.427834 -0.001334
C64   C     C_R   0.854685 0.868305 0.583945 -0.152660
C65   C     C_R   0.511928 0.060029 0.583306 -0.140444
C66   C     C_R   0.509990 0.880293 0.442638 -0.084032
H45   H     H_    0.513045 0.130731 0.637370 0.104611
H46   H     H_    0.507197 0.808748 0.387922 0.144013
C67   C     C_R   0.605237 0.048587 0.606390 0.130602
C68   C     C_R   0.417834 0.893201 0.419252 0.098149
C69   C     C_R   0.605451 0.958785 0.536097 0.050701
C70   C     C_R   0.417143 0.981998 0.490496 0.063075
C71   C     C_R   0.242334 0.144780 0.796364 -0.077045
C72   C     C_R   0.684029 0.885563 0.080730 -0.207694
C73   C     C_R   0.994225 0.001472 0.090840 -0.064915
C74   C     C_R   0.085269 0.070447 0.974320 -0.025801
C75   C     C_R   0.248914 0.125249 0.949398 -0.189412
C76   C     C_R   0.797723 0.948604 0.007846 -0.120450
C77   C     C_R   0.007086 0.930689 0.012583 0.038193
C78   C     C_R   0.080877 0.144801 0.060124 0.035118
C79   C     C_3   0.460423 0.398072 0.862123 -0.145374
C80   C     C_3   0.510861 0.600179 0.995502 -0.162624
C81   C     C_3   0.413013 0.466526 0.828882 -0.129986
C82   C     C_3   0.556493 0.531812 0.028477 -0.105090
H47   H     H_    0.350805 0.439937 0.747708 0.128708
H48   H     H_    0.616837 0.558812 0.110781 0.124031
H49   H     H_    0.443355 0.316306 0.806855 0.107257
H50   H     H_    0.527542 0.681770 0.049472 0.150499
C83   C     C_3   0.398419 0.499840 0.928527 0.170731
C84   C     C_3   0.573036 0.498864 0.929847 0.183152
C85   C     C_3   0.443717 0.431413 0.961176 -0.168473
C86   C     C_3   0.528442 0.567507 0.896725 -0.192179
C87   C     C_2   0.083369 0.148235 0.678795 0.948658
O1    O     O_2   0.122800 0.161002 0.621785 -0.665298
O2    O     O_R   0.996851 0.168497 0.673679 -0.833483
H51   H     H_    0.978405 0.198023 0.623791 0.324353
C88   C     C_2   0.756471 0.846793 0.228385 0.997988
O3    O     O_2   0.673756 0.824404 0.236668 -0.663281
O4    O     O_R   0.834784 0.823722 0.280342 -0.838553
H52   H     H_    0.811251 0.783886 0.317647 0.313047
C89   C     C_2   0.386196 0.836808 0.189075 0.940744
O5    O     O_2   0.347315 0.841280 0.107693 -0.684042
O6    O     O_R   0.498735 0.888315 0.252111 -0.754256
H53   H     H_    0.539068 0.925447 0.221441 0.339391
C90   C     C_2   0.649638 0.148877 0.845980 0.945774
O7    O     O_2   0.572741 0.056769 0.793363 -0.647374
O8    O     O_R   0.689124 0.208334 0.956160 -0.822684
H54   H     H_    0.648574 0.165543 0.982834 0.320417
C91   C     C_2   0.294148 0.937228 0.606164 0.985507
O9    O     O_2   0.270543 0.957231 0.678100 -0.682441
O10   O     O_R   0.349192 0.877214 0.596447 -0.791959
H55   H     H_    0.365432 0.856058 0.653858 0.346460
C92   C     C_2   0.765915 0.022450 0.455243 1.015829
O11   O     O_2   0.696461 0.050405 0.435828 -0.646318
O12   O     O_R   0.845415 0.051929 0.424579 -0.822294
H56   H     H_    0.835612 0.094450 0.386378 0.307801
N17   N     N_3   0.028847 0.882149 0.851331 -0.223512
H57   H     H_    0.979468 0.884142 0.786438 0.115202
H58   H     H_    0.104364 0.901333 0.854030 0.115658
N18   N     N_3   0.063608 0.190513 0.224168 -0.210895
H59   H     H_    0.988591 0.170774 0.222659 0.114071
H60   H     H_    0.112751 0.186049 0.287439 0.115056

loop_
_geom_bond_atom_site_label_1
_geom_bond_atom_site_label_2
_geom_bond_distance
_ccdc_geom_bond_type
C26   C73   1.393023 A    
C10   C22   1.372333 A    
C60   C92   1.495246 S    
C31   C33   1.398688 A    
C19   C68   1.419252 S    
N6    N10   1.401030 A    
C87   O1    1.222035 D    
H34   C86   1.110087 S    
C36   C47   1.484687 S    
C90   O8    1.397069 S    
C90   O7    1.222831 D    
C35   C48   1.483702 S    
C13   N13   1.317525 A    
O4    H52   1.013455 S    
N3    N13   1.391032 A    
C32   C34   1.399137 A    
C25   N17   1.441097 S    
C88   O3    1.222342 D    
C66   C68   1.392281 A    
C52   C76   1.395836 A    
N13   Ni4   1.882285 S    
C12   C24   1.373118 A    
C89   O5    1.223170 D    
N14   Ni3   1.882282 S    
C82   C84   1.532977 S    
C1    N1    1.333394 A    
C26   N18   1.438592 S    
C13   H11   1.077613 S    
C34   H24   1.083173 S    
C62   H44   1.081885 S    
C49   C75   1.402911 A    
C40   H28   1.082402 S    
C61   H43   1.083217 S    
C5    H3    1.066863 S    
N7    N11   1.400908 A    
H33   C85   1.109729 S    
C22   C84   1.437454 S    
C11   N11   1.330173 A    
C44   C46   1.397056 A    
C32   C42   1.397914 A    
N18   H59   1.044903 S    
C8    H6    1.080248 S    
N4    N14   1.391034 A    
C16   N16   1.323288 A    
C30   H32   1.078424 S    
N7    Ni4   1.887170 S    
C88   O4    1.398542 S    
N8    Ni3   1.887171 S    
C73   C77   1.407114 A    
H37   C63   1.080993 S    
C59   C91   1.487451 S    
C9    C21   1.362052 A    
C6    N6    1.332669 A    
N18   H60   1.044435 S    
C92   O12   1.399158 S    
C46   C48   1.408989 A    
C13   C19   1.380637 A    
C66   H46   1.085753 S    
C82   C85   1.530493 S    
C9    N9    1.327837 A    
C83   C85   1.528571 S    
C84   C86   1.528870 S    
C62   C64   1.395257 A    
N10   Ni1   1.864609 S    
N17   H58   1.045374 S    
C3    C89   1.475550 S    
C28   C30   1.404159 A    
C89   O6    1.393669 S    
C23   C46   1.425457 S    
C15   H13   1.069447 S    
C2    N2    1.319511 A    
C16   H14   1.061149 S    
C30   C50   1.400398 A    
H19   C41   1.080545 S    
H35   C75   1.082992 S    
C29   C49   1.408340 A    
C79   C81   1.550099 S    
C58   C60   1.423655 A    
C44   C47   1.365779 A    
C50   C76   1.405411 A    
C80   C82   1.532532 S    
C91   O10   1.398412 S    
N8    N12   1.400907 A    
C54   C64   1.393236 A    
C12   N12   1.315236 A    
C39   H27   1.082633 S    
N3    Ni2   1.901463 S    
C12   H10   1.075137 S    
C10   N10   1.327561 A    
C14   N14   1.324921 A    
C29   H31   1.083608 S    
C36   C38   1.404427 A    
C40   C42   1.397225 A    
O6    H53   1.013956 S    
C31   H21   1.082053 S    
C25   C77   1.399590 A    
C1    C17   1.404300 A    
C68   C70   1.402593 A    
C2    C18   1.391258 A    
C91   O9    1.221050 D    
N1    N15   1.390910 A    
C17   C78   1.465058 S    
N15   Ni3   1.886885 S    
C7    N7    1.316957 A    
C56   C58   1.403252 A    
C25   C74   1.387520 A    
N16   Ni4   1.886885 S    
C1    H1    1.077037 S    
C79   C85   1.540473 S    
N17   H57   1.041789 S    
C2    H2    1.078197 S    
N9    Ni2   1.864611 S    
C51   C71   1.393751 A    
C43   H29   1.085269 S    
C65   C70   1.370269 A    
H16   C72   1.081449 S    
N5    N9    1.401031 A    
O2    H51   1.012389 S    
C31   C41   1.399312 A    
C44   H30   1.085915 S    
C28   C88   1.479976 S    
C15   C17   1.368679 A    
N1    Ni1   1.864899 S    
C53   H39   1.080796 S    
C16   C18   1.381050 A    
C15   N15   1.324822 A    
C81   C86   1.556195 S    
C33   H23   1.083183 S    
O8    H54   1.012557 S    
C3    C19   1.387603 A    
C24   C45   1.421636 S    
C79   H49   1.108667 S    
C57   C59   1.419655 A    
C80   H50   1.102919 S    
C79   C84   1.531410 S    
C82   H48   1.111281 S    
C32   H22   1.080783 S    
C66   C69   1.379708 A    
C6    H4    1.076800 S    
C5    N5    1.329187 A    
C53   C63   1.394567 A    
C65   C67   1.396738 A    
N4    Ni1   1.901464 S    
C51   C75   1.396301 A    
C60   C62   1.408553 A    
N12   Ni2   1.901341 S    
C7    C23   1.371397 A    
C61   C63   1.394894 A    
C54   C56   1.392231 A    
C14   C20   1.369916 A    
C4    C90   1.479059 S    
C35   C37   1.407439 A    
C3    N3    1.323736 A    
C55   H41   1.083485 S    
C21   C83   1.437667 S    
C39   C41   1.395673 A    
N2    N16   1.390911 A    
C81   H47   1.110019 S    
C8    N8    1.327455 A    
C4    N4    1.328052 A    
C34   C36   1.405374 A    
C10   H8    1.078727 S    
C20   C67   1.422175 S    
C37   H25   1.083279 S    
C45   C47   1.409242 A    
H18   C52   1.082313 S    
C6    C22   1.378771 A    
C38   H26   1.082901 S    
C57   C70   1.479086 S    
H15   C71   1.081056 S    
N5    Ni3   1.881439 S    
C58   C69   1.475828 S    
N2    Ni2   1.864898 S    
C14   H12   1.071515 S    
C11   H9    1.080430 S    
O10   H55   1.013742 S    
C38   C40   1.398421 A    
C27   C29   1.405496 A    
C49   C74   1.487654 S    
C52   C72   1.396076 A    
C27   C87   1.479268 S    
H17   C51   1.080142 S    
C50   C73   1.485052 S    
C80   C83   1.527441 S    
C11   C23   1.377467 A    
N11   Ni1   1.901340 S    
H20   C42   1.082050 S    
C55   C57   1.403804 A    
C7    H5    1.082385 S    
C56   H42   1.083835 S    
C4    C20   1.376738 A    
H36   C76   1.083749 S    
C9    H7    1.075284 S    
C43   C48   1.384747 A    
C81   C83   1.530953 S    
C59   C61   1.404670 A    
C5    C21   1.361663 A    
C8    C24   1.383745 A    
C43   C45   1.394694 A    
O12   H56   1.014007 S    
C54   H40   1.081802 S    
C26   C78   1.405406 A    
C80   C86   1.543725 S    
C18   C77   1.455169 S    
C87   O2    1.394992 S    
C92   O11   1.221823 D    
C28   C72   1.405654 A    
C67   C69   1.402791 A    
C27   C71   1.401579 A    
C53   C55   1.394354 A    
N6    Ni4   1.881437 S    
C74   C78   1.429889 A    
C33   C35   1.405689 A    
C37   C39   1.396518 A    
H38   C64   1.082566 S    
C65   H45   1.085837 S    
