data_mof_unit_29646.cif
_audit_creation_date              2012-12-10T17:18:57-0500
_audit_creation_method            fapswitch 2.2
_symmetry_space_group_name_H-M    P1
_symmetry_Int_Tables_number       1
_space_group_crystal_system       triclinic
_cell_length_a                    9.74394
_cell_length_b                    10.855436
_cell_length_c                    13.521897
_cell_angle_alpha                 96.40568
_cell_angle_beta                  73.985671
_cell_angle_gamma                 93.256409
_cell_volume                      1365.67969836

loop_
_atom_site_label
_atom_site_type_symbol
_atom_type_description
_atom_site_fract_x
_atom_site_fract_y
_atom_site_fract_z
_atom_type_partial_charge
C1    C     C_R   0.506728 0.737537 0.494930 0.841196
C2    C     C_R   0.449710 0.427184 0.966694 0.098870
C3    C     C_R   0.493010 0.437656 0.858919 0.072011
C4    C     C_R   0.551534 0.456365 0.024912 0.074724
C5    C     C_R   0.694067 0.491702 0.972556 0.015413
C6    C     C_R   0.739825 0.463531 0.864457 -0.004895
C7    C     C_R   0.639698 0.432344 0.809971 -0.215925
C8    C     C_R   0.515495 0.456963 0.133189 -0.205849
C9    C     C_R   0.747157 0.545109 0.137174 -0.278683
C10   C     C_R   0.388731 0.442987 0.803303 -0.126070
C11   C     C_R   0.370350 0.869352 0.365741 -0.129673
C12   C     C_R   0.424903 0.484019 0.696783 0.812880
C13   C     C_R   0.235560 0.904142 0.359212 0.435771
C14   C     C_R   0.170470 0.007410 0.422458 -0.213287
C15   C     C_R   0.246433 0.084720 0.479882 -0.230231
C16   C     C_R   0.381113 0.049775 0.484748 0.075086
C17   C     C_R   0.421315 0.927725 0.447773 -0.025990
C18   C     C_R   0.521349 0.873005 0.485640 -0.094511
C19   C     C_R   0.618141 0.951958 0.526221 -0.007145
C20   C     C_R   0.595795 0.078889 0.543077 -0.261761
C21   C     C_R   0.481032 0.129991 0.520068 -0.121556
C22   C     C_R   0.909324 0.310240 0.360774 0.490539
C23   C     C_R   0.492347 0.263920 0.509177 0.765687
C24   C     C_R   0.014268 0.226016 0.301818 -0.276006
C25   C     C_R   0.152615 0.237486 0.304594 -0.320182
C26   C     C_R   0.192112 0.328133 0.369994 -0.175625
C27   C     C_R   0.095686 0.411696 0.436711 0.158906
C28   C     C_R   0.946927 0.408423 0.434398 0.084194
C29   C     C_R   0.911339 0.585753 0.562109 0.033180
C30   C     C_R   0.060098 0.586829 0.556053 -0.101639
C31   C     C_R   0.575490 0.498805 0.301161 0.834061
C32   C     C_R   0.786289 0.547232 0.030534 -0.029197
C33   C     C_R   0.614895 0.496971 0.188440 -0.037213
C34   C     C_R   0.248840 0.404214 0.850152 -0.118861
C35   C     C_R   0.209982 0.372378 0.951226 -0.071622
C36   C     C_R   0.307652 0.387161 0.010307 -0.182564
Cu1   Cu    Cu3+1 0.359340 0.500010 0.500010 0.939026
Cu2   Cu    Cu3+1 0.640660 0.499990 0.499990 1.019614
H1    H     H_    0.813877 0.592247 0.181837 0.173566
H2    H     H_    0.066420 0.034032 0.419552 0.193957
H3    H     H_    0.197093 0.168454 0.522049 0.210474
H4    H     H_    0.674408 0.139590 0.568553 0.196876
H5    H     H_    0.994509 0.152918 0.246259 0.178275
H6    H     H_    0.231330 0.175120 0.254485 0.196087
H7    H     H_    0.302444 0.329842 0.363593 0.222934
H8    H     H_    0.106838 0.657419 0.600770 0.200822
H9    H     H_    0.410646 0.427982 0.176401 0.141021
H10   H     H_    0.171020 0.392772 0.806982 0.185903
H11   H     H_    0.270887 0.361906 0.088147 0.133383
H12   H     H_    0.102291 0.338470 0.984666 0.142181
H13   H     H_    0.679597 0.396514 0.729947 0.182670
N1    N     N_R   0.852480 0.498790 0.499000 -0.221653
N2    N     N_R   0.148360 0.498710 0.498970 -0.215685
O1    O     O_R   0.381190 0.680360 0.500010 -0.600894
O2    O     O_R   0.618760 0.680340 0.500000 -0.502701
O3    O     O_R   0.323240 0.499990 0.650990 -0.591929
O4    O     O_R   0.560820 0.499960 0.650980 -0.552734
O5    O     O_R   0.381240 0.319660 0.500000 -0.617370
O6    O     O_R   0.618810 0.319640 0.499990 -0.551116
O7    O     O_R   0.439180 0.500040 0.349020 -0.627941
O8    O     O_R   0.676760 0.500010 0.349010 -0.520487
C37   C     C_2   0.474743 0.804153 0.274968 0.827657
O9    O     O_2   0.436549 0.751486 0.201974 -0.574699
O10   O     O_R   0.620614 0.813945 0.268755 -0.785996
H14   H     H_    0.682673 0.783169 0.198058 0.334828
O11   O     O_3   0.176839 0.852586 0.281775 -0.587540
C38   C     C_3   0.132250 0.728924 0.298504 0.080579
H15   H     H_    0.030953 0.727210 0.360627 0.190631
H16   H     H_    0.211167 0.675762 0.321485 0.158847
C39   C     C_3   0.108450 0.664444 0.198608 -0.237793
H17   H     H_    0.026623 0.714830 0.177045 0.234233
H18   H     H_    0.209358 0.665939 0.135399 0.278443
C40   C     C_3   0.058652 0.531079 0.212242 -0.933921
H19   H     H_    0.140577 0.480647 0.232960 0.254510
H20   H     H_    0.039513 0.484293 0.140153 0.281306
H21   H     H_    0.957335 0.529620 0.274078 0.277314
C41   C     C_2   0.829196 0.681297 0.643716 0.916525
O12   O     O_2   0.892525 0.748882 0.696361 -0.577036
O13   O     O_R   0.683619 0.696924 0.664020 -0.709538
H22   H     H_    0.645126 0.763662 0.722444 0.334004
O14   O     O_3   0.782608 0.310408 0.332744 -0.566608
C42   C     C_3   0.735838 0.196785 0.287253 0.070229
H23   H     H_    0.617503 0.192610 0.312512 0.142823
H24   H     H_    0.768574 0.113473 0.315400 0.151683
C43   C     C_3   0.776649 0.193362 0.168775 -0.418128
H25   H     H_    0.708122 0.257189 0.146290 0.224274
H26   H     H_    0.888945 0.225517 0.137629 0.223677
C44   C     C_3   0.755818 0.063099 0.118806 -0.805276
H27   H     H_    0.826814 0.997652 0.137123 0.264110
H28   H     H_    0.782740 0.063940 0.033556 0.271581
H29   H     H_    0.642907 0.030682 0.147141 0.266236
C45   C     C_2   0.890219 0.447941 0.806426 0.784330
O15   O     O_2   0.934389 0.343767 0.774414 -0.608538
O16   O     O_R   0.977598 0.551905 0.780900 -0.730796
H30   H     H_    0.077007 0.530143 0.738786 0.344802
C46   C     C_2   0.905975 0.631806 0.986748 0.869437
O17   O     O_2   0.026377 0.613550 0.991501 -0.620680
O18   O     O_R   0.879708 0.734528 0.941486 -0.694313
H31   H     H_    0.969255 0.786770 0.915000 0.358801
C47   C     C_2   0.757264 0.913414 0.534057 0.847023
O19   O     O_2   0.828233 0.840339 0.466923 -0.614334
O20   O     O_R   0.814825 0.971834 0.611782 -0.750965
H32   H     H_    0.916898 0.947876 0.602743 0.349966

loop_
_geom_bond_atom_site_label_1
_geom_bond_atom_site_label_2
_ccdc_geom_bond_type
C23   O5    A    
C16   C21   A    
C28   N1    A    
C40   H19   S    
C31   O8    A    
C35   C36   A    
C4    C8    A    
C11   C37   S    
O14   C42   S    
C41   O12   D    
C23   O6    A    
C26   C27   A    
Cu1   Cu2   S    
C18   C19   A    
C3    C7    A    
C5    C6    A    
Cu2   N1    S    
C15   C16   A    
C9    H1    S    
C34   C35   A    
C45   O15   D    
C37   O10   S    
C9    C32   A    
Cu1   O3    S    
Cu2   O2    S    
C19   C20   A    
C16   C17   A    
C46   O18   S    
C31   C33   S    
C39   H17   S    
Cu1   O5    S    
C26   H7    S    
Cu2   O8    S    
Cu1   N2    S    
C43   H26   S    
O11   C38   S    
C22   C28   A    
C13   C14   A    
C9    C33   A    
C40   H20   S    
O16   H30   S    
C39   C40   S    
C25   H6    S    
C45   O16   S    
C13   O11   S    
C41   O13   S    
C30   N2    A    
C38   H15   S    
C22   O14   S    
C24   C25   A    
C15   H3    S    
C25   C26   A    
C43   H25   S    
Cu2   O6    S    
C38   H16   S    
C31   O7    A    
C2    C4    A    
C1    O1    A    
C29   C30   A    
Cu2   O4    S    
C44   H29   S    
C46   O17   D    
C35   H12   S    
C47   O20   S    
C17   C18   A    
C1    C18   S    
C10   C34   A    
C44   H27   S    
C12   O3    A    
C10   C12   S    
Cu1   O1    S    
C32   C46   S    
C44   H28   S    
C42   H23   S    
C42   H24   S    
C21   C23   S    
C40   H21   S    
C22   C24   A    
C34   H10   S    
C12   O4    A    
C43   C44   S    
C2    C36   A    
C11   C17   A    
C30   H8    S    
C4    C5    A    
C20   H4    S    
C19   C47   S    
C27   N2    A    
C6    C7    A    
C42   C43   S    
C38   C39   S    
O10   H14   S    
C5    C32   A    
C2    C3    A    
C1    O2    A    
C8    H9    S    
C7    H13   S    
C3    C10   A    
C11   C13   A    
C6    C45   S    
C47   O19   D    
C8    C33   A    
O20   H32   S    
Cu1   O7    S    
C14   H2    S    
O13   H22   S    
C29   C41   S    
C20   C21   A    
O18   H31   S    
C27   C28   A    
C24   H5    S    
C14   C15   A    
C39   H18   S    
C37   O9    D    
C36   H11   S    
C29   N1    A    
