data_mof_unit_22186.cif
_audit_creation_date              2012-12-10T20:51:47-0500
_audit_creation_method            fapswitch 2.2
_symmetry_space_group_name_H-M    P1
_symmetry_Int_Tables_number       1
_space_group_crystal_system       triclinic
_cell_length_a                    8.113845
_cell_length_b                    8.918029
_cell_length_c                    16.626119
_cell_angle_alpha                 89.492651
_cell_angle_beta                  96.271433
_cell_angle_gamma                 90.146149
_cell_volume                      1195.80969474

loop_
_atom_site_label
_atom_site_type_symbol
_atom_type_description
_atom_site_fract_x
_atom_site_fract_y
_atom_site_fract_z
_atom_type_partial_charge
Br1   Br    Br    0.512034 0.182270 0.078038 -0.404063
Br2   Br    Br    0.485383 0.821260 0.920505 -0.403039
Br3   Br    Br    0.693958 0.206666 0.730252 -0.460543
Br4   Br    Br    0.308747 0.795428 0.271049 -0.462428
C1    C     C_R   0.499841 0.218036 0.500020 0.951545
C2    C     C_R   0.472156 0.364487 0.134107 0.258205
C3    C     C_R   0.587420 0.511140 0.909477 0.161115
C4    C     C_R   0.413040 0.492916 0.090472 0.161151
C5    C     C_R   0.647717 0.387833 0.869799 -0.131111
C6    C     C_R   0.354003 0.616162 0.130673 -0.131826
C7    C     C_R   0.625451 0.382336 0.785327 0.199746
C8    C     C_R   0.375957 0.620213 0.215176 0.199270
C9    C     C_1   0.499790 0.065224 0.500014 -0.118566
C10   C     C_1   0.500215 0.934776 0.499983 -0.118216
C11   C     C_1   0.560635 0.237823 0.263764 0.301665
C12   C     C_R   0.500160 0.781964 0.499982 0.952024
C13   C     C_1   0.436862 0.762709 0.735131 0.302152
C14   C     C_1   0.731345 0.266509 0.915654 0.385205
C15   C     C_1   0.271871 0.738827 0.085357 0.385200
C16   C     C_R   0.524185 0.497210 0.654043 0.936753
C17   C     C_R   0.475817 0.502828 0.345962 0.936773
C18   C     C_R   0.547214 0.502838 0.741467 -0.187213
C19   C     C_R   0.452800 0.498485 0.258518 -0.186807
C20   C     C_R   0.503393 0.633355 0.780935 -0.164292
C21   C     C_R   0.495448 0.368235 0.218489 -0.164533
C22   C     C_R   0.526871 0.638490 0.865285 0.258522
N1    N     N_1   0.073640 0.500030 0.499990 -0.008901
N2    N     N_1   0.926360 0.499970 0.500010 -0.008895
N3    N     N_2   0.574130 0.500628 0.992975 -0.116517
N4    N     N_2   0.426260 0.504154 0.006999 -0.115977
N5    N     N_1   0.612695 0.133687 0.299954 -0.143870
N6    N     N_1   0.383727 0.866028 0.698550 -0.144811
N7    N     N_1   0.799695 0.169382 0.951818 -0.081100
N8    N     N_1   0.204692 0.837055 0.049643 -0.079665
O1    O     O_R   0.636850 0.285340 0.500000 -0.603835
O2    O     O_R   0.363150 0.714660 0.500000 -0.603619
O3    O     O_R   0.363100 0.285350 0.500000 -0.614263
O4    O     O_R   0.636900 0.714650 0.500000 -0.614352
O5    O     O_R   0.652140 0.498630 0.616140 -0.593610
O6    O     O_R   0.347860 0.501370 0.383860 -0.593627
O7    O     O_R   0.378390 0.498650 0.616130 -0.613451
O8    O     O_R   0.621610 0.501350 0.383870 -0.613322
Zn1   Zn    Zn3+2 0.682780 0.499990 0.500010 1.046546
Zn2   Zn    Zn3+2 0.317220 0.500010 0.499990 1.046581

loop_
_geom_bond_atom_site_label_1
_geom_bond_atom_site_label_2
_ccdc_geom_bond_type
C2    C4    A    
C11   N5    T    
N3    N4    D    
C3    N3    S    
C1    O3    A    
Br4   C8    S    
O1    Zn1   S    
N2    Zn1   S    
C1    C9    S    
C6    C15   S    
C4    N4    S    
O3    Zn2   S    
C19   C21   A    
C16   O7    A    
O4    Zn1   S    
Br2   C22   S    
C9    C10   T    
C12   O2    A    
C5    C7    A    
C8    C19   A    
C17   O6    A    
C3    C22   A    
C6    C8    A    
O7    Zn2   S    
C16   C18   S    
C10   C12   S    
C17   C19   S    
C13   N6    T    
C14   N7    T    
C18   C20   A    
O2    Zn2   S    
C13   C20   S    
C11   C21   S    
O8    Zn1   S    
Br1   C2    S    
C2    C21   A    
C1    O1    A    
C5    C14   S    
O6    Zn2   S    
Br3   C7    S    
C4    C6    A    
N1    N2    T    
C3    C5    A    
C16   O5    A    
O5    Zn1   S    
C7    C18   A    
N1    Zn2   S    
C17   O8    A    
C12   O4    A    
C20   C22   A    
C15   N8    T    
