data_mof_unit_48499.cif
_audit_creation_date              2012-12-10T18:33:45-0500
_audit_creation_method            fapswitch 2.2
_symmetry_space_group_name_H-M    P1
_symmetry_Int_Tables_number       1
_space_group_crystal_system       triclinic
_cell_length_a                    10.561923
_cell_length_b                    14.937999
_cell_length_c                    15.3807
_cell_angle_alpha                 81.307872
_cell_angle_beta                  89.672275
_cell_angle_gamma                 105.081202
_cell_volume                      2313.60352009

loop_
_atom_site_label
_atom_site_type_symbol
_atom_type_description
_atom_site_fract_x
_atom_site_fract_y
_atom_site_fract_z
_atom_type_partial_charge
C1    C     C_R   0.481607 0.440565 0.662871 0.849833
C2    C     C_R   0.409306 0.470569 0.050861 0.078228
C3    C     C_R   0.402416 0.376014 0.085087 -0.229830
C4    C     C_R   0.369940 0.583534 0.929638 -0.219406
C5    C     C_R   0.400840 0.310970 0.029381 -0.214439
C6    C     C_R   0.377637 0.649386 0.985813 -0.202968
C7    C     C_R   0.709344 0.844810 0.629865 0.034212
C8    C     C_R   0.289082 0.153737 0.372350 0.032573
C9    C     C_R   0.675633 0.756107 0.605026 -0.048787
C10   C     C_R   0.334539 0.246108 0.387362 -0.062216
C11   C     C_R   0.503917 0.791493 0.520264 -0.054021
C12   C     C_R   0.515082 0.559335 0.337051 0.850157
C13   C     C_R   0.481318 0.204637 0.491554 -0.034410
C14   C     C_R   0.528769 0.881680 0.544558 -0.043581
C15   C     C_R   0.438504 0.109062 0.481961 -0.049659
C16   C     C_R   0.742160 0.501235 0.500273 0.917662
C17   C     C_R   0.257974 0.498837 0.499638 0.914864
C18   C     C_R   0.631195 0.907684 0.603516 0.132180
C19   C     C_R   0.334650 0.082332 0.424216 0.129983
C20   C     C_R   0.457883 0.947007 0.509442 0.092176
C21   C     C_R   0.497163 0.040470 0.526905 0.098590
C22   C     C_R   0.591688 0.062023 0.590304 -0.286983
C23   C     C_R   0.426488 0.459798 0.812045 -0.260605
C24   C     C_R   0.346669 0.920825 0.459351 -0.295291
C25   C     C_R   0.653625 0.996421 0.631346 -0.014751
C26   C     C_R   0.282316 0.985712 0.419893 0.015349
C27   C     C_3   0.930956 0.430598 0.560121 0.005685
C28   C     C_3   0.069706 0.569720 0.439500 -0.008870
C29   C     C_3   0.046652 0.510465 0.579126 0.079727
C30   C     C_3   0.953855 0.489916 0.420460 0.046242
C31   C     C_3   0.123663 0.497134 0.498990 -0.103624
C32   C     C_3   0.876770 0.503197 0.500713 -0.100503
C33   C     C_3   0.007123 0.417348 0.479939 0.076160
C34   C     C_R   0.484353 0.528069 0.187227 -0.251967
C35   C     C_3   0.993539 0.583031 0.519632 0.106997
C36   C     C_R   0.458401 0.401581 0.757108 -0.159896
C37   C     C_R   0.499267 0.594565 0.243783 -0.169815
C38   C     C_R   0.434406 0.278348 0.883431 -0.169830
C39   C     C_R   0.434753 0.700136 0.126315 -0.169108
C40   C     C_R   0.463159 0.309280 0.793106 -0.000120
C41   C     C_R   0.476385 0.683355 0.212510 -0.017291
C42   C     C_2   0.496975 0.760396 0.265892 0.398913
C43   C     C_2   0.507819 0.246603 0.740632 0.404794
C44   C     C_2   0.733614 0.023578 0.706742 0.502850
C45   C     C_R   0.405648 0.431338 0.902922 0.093598
C46   C     C_2   0.155123 0.946295 0.381675 0.431576
C47   C     C_R   0.433651 0.541800 0.104344 0.091209
C48   C     C_R   0.411152 0.339387 0.938506 0.120808
C49   C     C_R   0.414287 0.630588 0.072250 0.113770
C50   C     C_R   0.392842 0.495043 0.960016 0.072912
H1    H     H_    0.557900 0.231525 0.533678 0.120143
H2    H     H_    0.425626 0.529894 0.783012 0.172821
H3    H     H_    0.439705 0.208547 0.912153 0.182807
H4    H     H_    0.419585 0.768136 0.100769 0.181336
H5    H     H_    0.397277 0.350639 0.154964 0.141469
H6    H     H_    0.343184 0.602931 0.863216 0.154023
H7    H     H_    0.023516 0.524257 0.707049 0.204396
H8    H     H_    0.128743 0.461214 0.689069 0.174672
H9    H     H_    0.976908 0.475072 0.292840 0.195730
H10   H     H_    0.873514 0.539724 0.310047 0.170147
H11   H     H_    0.821127 0.823652 0.733179 0.215500
H12   H     H_    0.431773 0.766905 0.474218 0.154597
H13   H     H_    0.905994 0.867208 0.635822 0.193861
H14   H     H_    0.121243 0.158735 0.311787 0.219902
H15   H     H_    0.253129 0.174358 0.242999 0.170127
H16   H     H_    0.917986 0.319496 0.656783 0.182897
H17   H     H_    0.788541 0.308760 0.593018 0.175778
H18   H     H_    0.084403 0.680412 0.341974 0.184713
H19   H     H_    0.187045 0.614228 0.327878 0.192510
H20   H     H_    0.920429 0.289163 0.448277 0.195422
H21   H     H_    0.048449 0.291456 0.512654 0.192490
H22   H     H_    0.081050 0.711610 0.550124 0.199786
H23   H     H_    0.296497 0.300775 0.351325 0.145175
H24   H     H_    0.951771 0.708790 0.486908 0.192785
H25   H     H_    0.571025 0.768360 0.314550 0.102187
H26   H     H_    0.570894 0.275280 0.681934 0.068258
H27   H     H_    0.795602 0.094681 0.702932 0.032866
H28   H     H_    0.144423 0.887702 0.345775 0.070527
H29   H     H_    0.732356 0.706595 0.626108 0.153887
H30   H     H_    0.614495 0.128527 0.613634 0.138824
H31   H     H_    0.301813 0.848299 0.454371 0.143821
H32   H     H_    0.399936 0.239752 0.057608 0.154232
H33   H     H_    0.360089 0.716631 0.960433 0.163251
H34   H     H_    0.513563 0.464580 0.209090 0.169153
N1    N     N_R   0.574200 0.731700 0.552740 -0.114173
N2    N     N_3   0.985383 0.672857 0.541777 -0.444935
N3    N     N_R   0.425800 0.268300 0.447260 -0.107680
N4    N     N_3   0.100263 0.521945 0.665009 -0.441289
N5    N     N_3   0.900434 0.478483 0.334541 -0.436180
N6    N     N_3   0.827851 0.871922 0.675390 -0.418182
N7    N     N_3   0.204072 0.135020 0.301258 -0.413855
N8    N     N_3   0.853801 0.355796 0.626290 -0.475128
N9    N     N_3   0.148304 0.645220 0.374529 -0.444112
N10   N     N_3   0.015815 0.327734 0.457575 -0.436594
O1    O     O_R   0.462600 0.383110 0.605620 -0.628947
O2    O     O_2   0.477170 0.161623 0.763896 -0.570281
O3    O     O_2   0.723151 0.969398 0.775904 -0.541780
O4    O     O_2   0.058817 0.973696 0.395850 -0.567943
O5    O     O_R   0.537400 0.616890 0.394380 -0.637512
O6    O     O_R   0.510210 0.531900 0.639510 -0.603193
O7    O     O_R   0.489790 0.468100 0.360490 -0.606593
O8    O     O_R   0.662240 0.425610 0.483080 -0.613894
O9    O     O_R   0.337760 0.574390 0.516920 -0.600758
O10   O     O_R   0.709860 0.574400 0.516970 -0.622757
O11   O     O_R   0.290140 0.425600 0.483030 -0.616444
O12   O     O_2   0.433012 0.818183 0.254179 -0.585543
Zn1   Zn    Zn3+2 0.468210 0.400660 0.477370 0.947000
Zn2   Zn    Zn3+2 0.531790 0.599340 0.522630 0.947605

loop_
_geom_bond_atom_site_label_1
_geom_bond_atom_site_label_2
_ccdc_geom_bond_type
O7    Zn1   S    
C30   C32   S    
C23   C45   A    
C27   C29   S    
C34   C37   A    
C41   C42   S    
C14   C18   A    
C11   H12   S    
C33   N10   S    
C39   C41   A    
H21   N10   S    
H10   N5    S    
C27   C33   S    
C15   C19   A    
O5    Zn2   S    
O11   Zn1   S    
C42   H25   S    
C44   H27   S    
H20   N10   S    
C24   C26   A    
H19   N9    S    
C9    H29   S    
C11   C14   A    
C39   H4    S    
C1    O6    A    
H15   N7    S    
H9    N5    S    
C12   C37   S    
C19   C26   A    
C12   O5    A    
C2    C50   A    
C9    N1    A    
C13   H1    S    
C3    H5    S    
C16   O10   A    
C40   C43   S    
C20   C24   A    
C28   C35   S    
C29   N4    S    
C22   C25   A    
C31   C33   S    
O9    Zn2   S    
N1    Zn2   S    
C38   C48   A    
C46   O4    D    
C21   C22   A    
C4    H6    S    
C18   C25   A    
C34   H34   S    
C30   N5    S    
C25   C44   S    
C5    C48   A    
C10   N3    A    
O6    Zn2   S    
C8    C19   A    
C32   C35   S    
C14   C20   A    
C27   N8    S    
C47   C49   A    
C46   H28   S    
H16   N8    S    
C7    N6    S    
C4    C50   A    
C28   N9    S    
C24   H31   S    
C17   O11   A    
C44   O3    D    
C36   C40   A    
C1    O1    A    
C7    C18   A    
C13   N3    A    
C43   O2    D    
O8    Zn1   S    
C8    N7    S    
H24   N2    S    
C42   O12   D    
O1    Zn1   S    
C4    C6    A    
C39   C49   A    
C13   C15   A    
C17   C31   S    
O10   Zn2   S    
H11   N6    S    
C45   C48   A    
C16   O8    A    
C43   H26   S    
C7    C9    A    
C6    H33   S    
C30   C33   S    
C27   C32   S    
C28   C31   S    
C3    C5    A    
H8    N4    S    
H22   N2    S    
C2    C47   A    
C16   C32   S    
C29   C35   S    
H18   N9    S    
H7    N4    S    
C28   C30   S    
C2    C3    A    
C17   O9    A    
C22   H30   S    
C12   O7    A    
C29   C31   S    
C38   C40   A    
C5    H32   S    
C23   H2    S    
C38   H3    S    
C45   C50   A    
C11   N1    A    
H13   N6    S    
H17   N8    S    
C10   H23   S    
C6    C49   A    
C37   C41   A    
C26   C46   S    
C15   C21   A    
N3    Zn1   S    
C20   C21   A    
C8    C10   A    
C23   C36   A    
C34   C47   A    
H14   N7    S    
C35   N2    S    
C1    C36   S    
