data_mof_unit_28042.cif
_audit_creation_date              2012-10-26T21:00:33-0400
_audit_creation_method            fapswitch 2.2
_symmetry_space_group_name_H-M    P1
_symmetry_Int_Tables_number       1
_space_group_crystal_system       triclinic
_cell_length_a                    10.798062
_cell_length_b                    9.528902
_cell_length_c                    10.794293
_cell_angle_alpha                 89.85466
_cell_angle_beta                  90.869262
_cell_angle_gamma                 89.67997
_cell_volume                      1110.51551062

loop_
_atom_site_label
_atom_site_type_symbol
_atom_type_description
_atom_site_fract_x
_atom_site_fract_y
_atom_site_fract_z
_atom_type_partial_charge
C1    C     C_R   0.262440 0.500259 0.503124 0.549151
C2    C     C_R   0.494215 0.499928 0.737400 0.557259
C3    C     C_R   0.304887 0.663914 0.125873 -0.109789
C4    C     C_R   0.305231 0.664471 0.867421 -0.084025
C5    C     C_R   0.217945 0.743863 0.059592 -0.118567
C6    C     C_R   0.218163 0.744203 0.930774 -0.096883
C7    C     C_R   0.395853 0.584466 0.932645 0.032725
C8    C     C_R   0.395815 0.584449 0.063823 0.031390
C9    C     C_R   0.483735 0.500062 0.128706 0.002426
C10   C     C_R   0.483277 0.499284 0.870977 0.013431
C11   C     C_R   0.562884 0.410349 0.065238 -0.144063
C12   C     C_R   0.737881 0.499540 0.504299 0.571255
C13   C     C_R   0.561857 0.409234 0.937664 -0.134036
C14   C     C_R   0.068066 0.415714 0.596510 0.099368
C15   C     C_R   0.938128 0.414449 0.596187 0.095120
C16   C     C_R   0.872062 0.499041 0.509988 0.008896
C17   C     C_R   0.129033 0.500780 0.509908 0.005178
C18   C     C_R   0.934512 0.587189 0.428720 -0.154501
C19   C     C_R   0.062421 0.588013 0.428623 -0.158431
C20   C     C_R   0.432689 0.075080 0.413555 0.030068
C21   C     C_R   0.566104 0.073534 0.587178 0.037481
C22   C     C_R   0.432514 0.926344 0.413695 0.024269
C23   C     C_R   0.566702 0.924899 0.586829 0.026857
C24   C     C_R   0.494063 0.500228 0.262513 0.534780
Cu1   Cu    Cu3+1 0.500000 0.640660 0.500000 0.943774
Cu2   Cu    Cu3+1 0.500000 0.359340 0.500000 0.990342
H1    H     H_    0.627947 0.342846 0.114823 0.142183
H2    H     H_    0.618083 0.128559 0.657759 0.145238
H3    H     H_    0.378169 0.871092 0.344699 0.105957
H4    H     H_    0.620351 0.868475 0.656400 0.128141
H5    H     H_    0.625054 0.339797 0.890801 0.162129
H6    H     H_    0.297667 0.662496 0.225509 0.121196
H7    H     H_    0.298118 0.663624 0.767499 0.150745
H8    H     H_    0.148836 0.804013 0.108434 0.117397
H9    H     H_    0.149218 0.804650 0.879622 0.139919
H10   H     H_    0.883981 0.653497 0.363486 0.138146
H11   H     H_    0.109578 0.654803 0.363276 0.119092
H12   H     H_    0.378544 0.131543 0.344388 0.119771
I1    I     I_    0.172191 0.299132 0.733744 -0.312475
I2    I     I_    0.843663 0.293948 0.731894 -0.385300
N1    N     N_R   0.500000 0.852070 0.500000 -0.230864
N2    N     N_R   0.500000 0.147940 0.500000 -0.224536
O1    O     O_R   0.319640 0.618740 0.499990 -0.521540
O2    O     O_R   0.680360 0.618740 0.500010 -0.498470
O3    O     O_R   0.319620 0.381170 0.499990 -0.475095
O4    O     O_R   0.680380 0.381170 0.500010 -0.476258
O5    O     O_R   0.500000 0.618810 0.319650 -0.511130
O6    O     O_R   0.500000 0.618810 0.680350 -0.516479
O7    O     O_R   0.499970 0.381240 0.319640 -0.509062
O8    O     O_R   0.500030 0.381240 0.680360 -0.482185

loop_
_geom_bond_atom_site_label_1
_geom_bond_atom_site_label_2
_ccdc_geom_bond_type
C7    C10   A    
C20   N2    A    
C9    C24   S    
C22   H3    S    
C20   H12   S    
Cu1   O5    S    
C1    C17   S    
C23   N1    A    
C11   H1    S    
C5    H8    S    
Cu1   O1    S    
C21   C23   A    
C14   I1    S    
C7    C8    A    
C12   O2    A    
C9    C11   A    
C14   C17   A    
C1    O3    A    
C3    H6    S    
C1    O1    A    
C18   H10   S    
C4    C7    A    
Cu1   O2    S    
C12   O4    A    
C17   C19   A    
C21   H2    S    
C20   C22   A    
C3    C8    A    
Cu2   O8    S    
C2    O8    A    
C5    C6    A    
C15   I2    S    
C22   N1    A    
C15   C16   A    
Cu2   O4    S    
C4    C6    A    
C21   N2    A    
C2    C10   S    
C23   H4    S    
C11   C13   A    
C6    H9    S    
Cu2   N2    S    
C16   C18   A    
C18   C19   A    
Cu2   O7    S    
Cu1   N1    S    
C24   O7    A    
C14   C15   A    
C19   H11   S    
Cu2   O3    S    
C2    O6    A    
Cu1   Cu2   S    
C4    H7    S    
C24   O5    A    
Cu1   O6    S    
C13   H5    S    
C12   C16   S    
C8    C9    A    
C3    C5    A    
C10   C13   A    
