data_mof_unit_24642.cif
_audit_creation_date              2012-12-10T19:46:56-0500
_audit_creation_method            fapswitch 2.2
_symmetry_space_group_name_H-M    P1
_symmetry_Int_Tables_number       1
_space_group_crystal_system       triclinic
_cell_length_a                    10.897418
_cell_length_b                    10.898648
_cell_length_c                    13.12081
_cell_angle_alpha                 90.381016
_cell_angle_beta                  90.12929
_cell_angle_gamma                 90.122118
_cell_volume                      1558.27884062

loop_
_atom_site_label
_atom_site_type_symbol
_atom_type_description
_atom_site_fract_x
_atom_site_fract_y
_atom_site_fract_z
_atom_type_partial_charge
C1    C     C_R   0.492316 0.259645 0.499430 0.819943
C2    C     C_R   0.507696 0.740355 0.500570 0.819937
C3    C     C_R   0.872925 0.492230 0.501072 -0.096543
C4    C     C_R   0.127075 0.507727 0.498924 -0.096546
C5    C     C_R   0.940018 0.456210 0.588059 -0.002756
C6    C     C_R   0.059983 0.543737 0.411935 -0.002759
C7    C     C_R   0.274783 0.227921 0.214507 -0.120353
C8    C     C_R   0.725186 0.771976 0.785490 -0.120345
C9    C     C_R   0.314340 0.177031 0.306382 -0.109930
C10   C     C_R   0.685636 0.822859 0.693610 -0.109784
C11   C     C_R   0.427455 0.115697 0.311476 0.120827
C12   C     C_R   0.572583 0.884303 0.688531 0.120794
C13   C     C_R   0.499502 0.104785 0.223216 -0.156716
C14   C     C_R   0.500600 0.895336 0.776814 -0.156805
C15   C     C_R   0.459728 0.156249 0.131564 -0.147760
C16   C     C_R   0.540369 0.843882 0.868471 -0.147748
C17   C     C_R   0.347443 0.217775 0.127228 -0.115996
C18   C     C_R   0.652586 0.782241 0.872790 -0.116033
C19   C     C_R   0.479609 0.932755 0.410785 -0.252303
C20   C     C_R   0.520438 0.067245 0.589214 -0.252306
C21   C     C_R   0.508722 0.873030 0.501627 -0.093245
C22   C     C_R   0.491314 0.126969 0.498374 -0.093231
C23   C     C_R   0.259663 0.506864 0.499692 0.820456
C24   C     C_R   0.740336 0.493119 0.500307 0.820422
C25   C     C_R   0.531653 0.940777 0.591819 0.001898
C26   C     C_R   0.468391 0.059222 0.408182 0.001868
C27   C     C_1   0.500022 0.500075 0.173573 0.159931
C28   C     C_1   0.499975 0.499929 0.826427 0.159928
C29   C     C_1   0.500012 0.500050 0.050683 -0.101667
C30   C     C_1   0.499984 0.499957 0.949317 -0.101659
C31   C     C_R   0.237390 0.753440 0.235579 -0.130608
C32   C     C_R   0.762537 0.246617 0.764465 -0.130585
C33   C     C_R   0.184836 0.705102 0.323875 -0.106398
C34   C     C_R   0.815121 0.294899 0.676162 -0.106370
C35   C     C_R   0.117920 0.594773 0.319146 0.128245
C36   C     C_R   0.882080 0.405205 0.680863 0.128240
C37   C     C_R   0.103100 0.534787 0.224798 -0.156930
C38   C     C_R   0.896925 0.465218 0.775192 -0.157002
C39   C     C_R   0.157222 0.582567 0.137034 -0.141540
C40   C     C_R   0.842773 0.417496 0.862963 -0.141551
C41   C     C_R   0.224373 0.691789 0.142431 -0.113412
C42   C     C_R   0.775573 0.308300 0.857592 -0.113412
C43   C     C_R   0.933172 0.534113 0.413925 -0.244183
C44   C     C_R   0.066829 0.465833 0.586068 -0.244183
Cu1   Cu    Cu3+1 0.499990 0.499990 0.592680 0.978653
Cu2   Cu    Cu3+1 0.500010 0.500010 0.407320 0.978667
H1    H     H_    0.265742 0.729016 0.074342 0.122301
H2    H     H_    0.734175 0.271122 0.925683 0.122292
H3    H     H_    0.586529 0.057048 0.225633 0.124141
H4    H     H_    0.413626 0.943164 0.774412 0.124161
H5    H     H_    0.515848 0.148292 0.063870 0.126245
H6    H     H_    0.484298 0.851938 0.936183 0.126268
H7    H     H_    0.461967 0.880376 0.341821 0.152771
H8    H     H_    0.538087 0.119628 0.658175 0.152745
H9    H     H_    0.195716 0.753683 0.395635 0.104374
H10   H     H_    0.804221 0.246297 0.604416 0.104372
H11   H     H_    0.050093 0.450846 0.219444 0.113741
H12   H     H_    0.949967 0.549140 0.780522 0.113751
H13   H     H_    0.880971 0.563381 0.347936 0.156778
H14   H     H_    0.119031 0.436569 0.652058 0.156773
H15   H     H_    0.316700 0.257505 0.056248 0.125984
H16   H     H_    0.683324 0.742515 0.943774 0.125990
N1    N     N_1   0.500030 0.500030 0.268070 -0.130963
N2    N     N_1   0.499970 0.499970 0.731930 -0.130966
O1    O     O_R   0.499980 0.319630 0.578260 -0.586591
O2    O     O_R   0.500020 0.680370 0.421740 -0.586575
O3    O     O_R   0.500000 0.319650 0.421740 -0.567545
O4    O     O_R   0.500000 0.680350 0.578260 -0.567550
O5    O     O_R   0.319630 0.500000 0.578260 -0.588095
O6    O     O_R   0.680370 0.500000 0.421740 -0.588100
O7    O     O_R   0.319650 0.500020 0.421740 -0.567034
O8    O     O_R   0.680350 0.499980 0.578260 -0.567051
H17   H     H_    0.287604 0.839050 0.239058 0.124146
H18   H     H_    0.712277 0.161032 0.761005 0.124124
H19   H     H_    0.146593 0.535223 0.064754 0.124144
H20   H     H_    0.853413 0.464868 0.935223 0.124148
H21   H     H_    0.187518 0.274637 0.210855 0.120476
H22   H     H_    0.812401 0.725174 0.789131 0.120504
H23   H     H_    0.256962 0.185096 0.373403 0.105558
H24   H     H_    0.742969 0.814700 0.626573 0.105534

loop_
_geom_bond_atom_site_label_1
_geom_bond_atom_site_label_2
_ccdc_geom_bond_type
C33   H9    S    
C34   H10   S    
C27   C29   S    
C23   O5    A    
C24   O6    A    
C39   C41   A    
Cu1   Cu2   S    
C3    C43   A    
C35   C37   A    
Cu2   O2    S    
C2    O4    A    
C32   H18   S    
C31   H17   S    
C20   C25   A    
C5    C36   S    
C6    C35   S    
C15   C17   A    
C9    H23   S    
C19   C26   A    
C17   H15   S    
C38   H12   S    
C7    C17   A    
C1    O1    A    
C31   C33   A    
C39   H19   S    
C43   H13   S    
C7    H21   S    
C19   H7    S    
C40   C42   A    
C1    C22   S    
Cu1   O8    S    
C8    H22   S    
C3    C24   S    
C2    C21   S    
C10   C12   A    
Cu1   O5    S    
C23   O7    A    
C4    C6    A    
C4    C23   S    
C10   H24   S    
C18   H16   S    
C4    C44   A    
C11   C26   S    
C2    O2    A    
C8    C18   A    
C40   H20   S    
C32   C34   A    
C29   C30   T    
Cu1   O4    S    
C41   H1    S    
C16   C18   A    
C42   H2    S    
C9    C11   A    
Cu2   O7    S    
C27   N1    T    
C13   H3    S    
C28   N2    T    
C20   H8    S    
C5    C44   A    
C20   C22   A    
C15   H5    S    
C6    C43   A    
C13   C15   A    
Cu1   O1    S    
C14   C16   A    
C24   O8    A    
C7    C9    A    
C21   C25   A    
C31   C41   A    
C19   C21   A    
C16   H6    S    
C12   C14   A    
C3    C5    A    
C1    O3    A    
Cu2   N1    S    
Cu1   N2    S    
C12   C25   S    
C36   C38   A    
Cu2   O3    S    
C37   C39   A    
C38   C40   A    
C11   C13   A    
C14   H4    S    
C44   H14   S    
C28   C30   S    
C33   C35   A    
C34   C36   A    
Cu2   O6    S    
C8    C10   A    
C22   C26   A    
C32   C42   A    
C37   H11   S    
