data_mof_unit_63259.cif
_audit_creation_date              2012-12-10T16:41:32-0500
_audit_creation_method            fapswitch 2.2
_symmetry_space_group_name_H-M    P1
_symmetry_Int_Tables_number       1
_space_group_crystal_system       triclinic
_cell_length_a                    18.96552
_cell_length_b                    19.013528
_cell_length_c                    18.958758
_cell_angle_alpha                 109.817447
_cell_angle_beta                  109.386954
_cell_angle_gamma                 109.497705
_cell_volume                      5243.9050244

loop_
_atom_site_label
_atom_site_type_symbol
_atom_type_description
_atom_site_fract_x
_atom_site_fract_y
_atom_site_fract_z
_atom_type_partial_charge
C1    C     C_R   0.382161 0.384572 0.501756 0.835691
C2    C     C_R   0.496740 0.671295 0.758178 0.098179
C3    C     C_R   0.496055 0.679013 0.686201 -0.085665
C4    C     C_R   0.498612 0.751148 0.680689 -0.201344
C5    C     C_R   0.503058 0.816659 0.746126 -0.198646
C6    C     C_R   0.505513 0.811532 0.818574 -0.085204
C7    C     C_2   0.250736 0.257975 0.575070 -0.153831
C8    C     C_2   0.189880 0.181152 0.503581 -0.312288
C9    C     C_2   0.323626 0.318777 0.575169 -0.160911
C10   C     C_2   0.313331 0.322769 0.503459 -0.307807
C11   C     C_2   0.492361 0.174409 0.247968 -0.162525
C12   C     C_R   0.497915 0.615616 0.618426 0.788613
C13   C     C_2   0.508651 0.184519 0.187423 -0.311502
C14   C     C_2   0.504568 0.247580 0.321218 -0.148708
C15   C     C_2   0.490512 0.309219 0.311656 -0.315238
C16   C     C_2   0.757083 0.736704 0.425722 -0.170319
C17   C     C_2   0.807466 0.817989 0.493024 -0.355464
C18   C     C_2   0.679720 0.673770 0.419140 0.113295
C19   C     C_2   0.686197 0.674377 0.492703 -0.360234
C20   C     C_R   0.382619 0.995858 0.878147 0.854873
C21   C     C_R   0.502588 0.878738 0.881387 0.787828
C22   C     C_R   0.617851 0.999405 0.116584 0.824121
C23   C     C_R   0.617722 0.614420 0.497066 0.841985
C24   C     C_R   0.502189 0.115406 0.116914 0.840641
C25   C     C_R   0.880388 0.998235 0.382687 0.860020
C26   C     C_R   0.119448 0.117289 0.501745 0.850299
C27   C     C_R   0.115441 0.997772 0.617255 0.846490
C28   C     C_R   0.880485 0.882563 0.498188 0.856119
C29   C     C_2   0.180886 0.924039 0.675076 -0.152618
C30   C     C_2   0.177059 0.995846 0.686028 -0.313592
C31   C     C_2   0.241632 0.923650 0.747526 -0.154159
C32   C     C_2   0.318582 0.994625 0.808462 -0.318319
C33   C     C_2   0.759673 0.023959 0.331143 -0.170240
C34   C     C_R   0.497611 0.379878 0.381210 0.841139
C35   C     C_2   0.807199 0.989137 0.314308 -0.355020
C36   C     C_2   0.682655 0.009941 0.260079 0.118788
C37   C     C_2   0.686307 0.007872 0.189305 -0.345959
C38   C     C_R   0.487880 0.596397 0.762827 -0.209509
C39   C     C_R   0.493688 0.592356 0.836439 -0.176677
C40   C     C_R   0.508361 0.662745 0.907264 0.220335
C41   C     C_R   0.514210 0.736054 0.902372 -0.177364
C42   C     C_R   0.505114 0.740072 0.826892 0.048171
Cu1   Cu    Cu3+1 0.561020 0.499620 0.560640 0.949915
Cu2   Cu    Cu3+1 0.438980 0.500380 0.439360 0.940615
Cu3   Cu    Cu3+1 0.561070 0.057880 0.996780 0.950999
Cu4   Cu    Cu3+1 0.439050 0.935860 0.996810 0.937030
Cu5   Cu    Cu3+1 0.000000 0.061410 0.561410 0.945527
Cu6   Cu    Cu3+1 0.000000 0.938590 0.438590 0.948757
H1    H     H_    0.498197 0.757282 0.625778 0.154604
H2    H     H_    0.249827 0.284885 0.445646 0.155510
H3    H     H_    0.474622 0.113261 0.246657 0.156522
H4    H     H_    0.535362 0.248015 0.193853 0.153532
H5    H     H_    0.520605 0.248040 0.382022 0.161630
H6    H     H_    0.465236 0.303715 0.248368 0.151006
H7    H     H_    0.770953 0.717583 0.373421 0.165350
H8    H     H_    0.790865 0.839814 0.542807 0.158238
H9    H     H_    0.748411 0.715998 0.552370 0.148283
H10   H     H_    0.136066 0.863712 0.613683 0.163233
H11   H     H_    0.475226 0.539746 0.709517 0.152202
H12   H     H_    0.215016 0.053523 0.749851 0.152467
H13   H     H_    0.225014 0.863291 0.747792 0.163941
H14   H     H_    0.339091 0.052112 0.802842 0.153134
H15   H     H_    0.776059 0.060618 0.397790 0.165638
H16   H     H_    0.788462 0.947514 0.247804 0.161614
H17   H     H_    0.746511 0.022650 0.188633 0.144484
H18   H     H_    0.487315 0.534336 0.838288 0.128001
H19   H     H_    0.527217 0.789912 0.958862 0.159704
H20   H     H_    0.503269 0.871172 0.739556 0.154110
H21   H     H_    0.249888 0.274565 0.635425 0.159851
H22   H     H_    0.195985 0.160633 0.446071 0.154417
H23   H     H_    0.384650 0.363591 0.635745 0.152883
O1    O     O_R   0.462500 0.410660 0.551220 -0.589434
O2    O     O_R   0.359500 0.945890 0.908340 -0.575752
O3    O     O_R   0.551580 0.958790 0.907180 -0.583004
O4    O     O_R   0.448540 0.855750 0.907210 -0.592161
O5    O     O_R   0.640630 0.047850 0.085250 -0.579608
O6    O     O_R   0.537580 0.944800 0.085280 -0.600079
O7    O     O_R   0.551590 0.137990 0.086380 -0.587191
O8    O     O_R   0.448540 0.034950 0.086410 -0.582969
O9    O     O_R   0.910970 0.052410 0.463390 -0.585354
O10   O     O_R   0.910970 0.948690 0.359670 -0.588486
O11   O     O_R   0.089030 0.140870 0.551850 -0.580706
O12   O     O_R   0.359440 0.411300 0.448810 -0.584108
O13   O     O_R   0.089030 0.037160 0.448130 -0.586051
O14   O     O_R   0.089030 0.051310 0.640330 -0.590602
O15   O     O_R   0.089030 0.947590 0.536610 -0.580218
O16   O     O_R   0.910970 0.962840 0.551870 -0.589636
O17   O     O_R   0.910970 0.859130 0.448150 -0.588296
O18   O     O_R   0.551530 0.589280 0.640810 -0.588480
O19   O     O_R   0.448470 0.589920 0.538390 -0.582998
O20   O     O_R   0.640560 0.588700 0.551190 -0.577306
O21   O     O_R   0.537500 0.589340 0.448780 -0.593029
O22   O     O_R   0.551530 0.410080 0.461610 -0.578409
O23   O     O_R   0.448470 0.410720 0.359190 -0.592994
O24   O     O_R   0.462540 0.048930 0.908310 -0.588471
C43   C     C_3   0.597237 0.608014 0.331553 -0.343117
C44   C     C_3   0.603401 0.609554 0.253205 -0.382947
C45   C     C_3   0.516791 0.545002 0.169319 -0.839964
H24   H     H_    0.496114 0.478326 0.157956 0.252215
H25   H     H_    0.466517 0.561379 0.172565 0.253039
H26   H     H_    0.523304 0.547262 0.113921 0.243434
H27   H     H_    0.622782 0.675290 0.261996 0.230602
H28   H     H_    0.652347 0.592219 0.246935 0.218112
H29   H     H_    0.579217 0.541996 0.321569 0.191757
H30   H     H_    0.544704 0.621032 0.333191 0.218497
C46   C     C_3   0.603798 0.003200 0.268826 -0.343843
C47   C     C_3   0.613154 0.017188 0.356905 -0.386695
C48   C     C_3   0.530027 0.005671 0.358075 -0.839793
H31   H     H_    0.514407 0.053615 0.346888 0.247446
H32   H     H_    0.475363 0.939335 0.307245 0.253820
H33   H     H_    0.538543 0.015731 0.422223 0.246051
H34   H     H_    0.628132 0.969815 0.370406 0.227894
H35   H     H_    0.666332 0.083838 0.409001 0.219625
H36   H     H_    0.589659 0.051948 0.257606 0.188215
H37   H     H_    0.547644 0.937680 0.217846 0.218086
N1    N     N_3   0.517673 0.661126 0.984893 -0.595450
H38   H     H_    0.513715 0.603124 0.979341 0.207872
H39   H     H_    0.465114 0.662111 0.990890 0.213847

loop_
_geom_bond_atom_site_label_1
_geom_bond_atom_site_label_2
_ccdc_geom_bond_type
C43   H30   S    
Cu1   O1    S    
C25   O9    A    
C8    C26   S    
C41   C42   A    
C31   H13   S    
C34   O22   A    
C22   O5    A    
Cu2   O12   S    
C44   C45   S    
C7    C8    D    
C41   H19   S    
C40   N1    S    
Cu3   Cu4   S    
N1    H38   S    
Cu1   O18   S    
C46   H36   S    
Cu3   O5    S    
Cu5   O14   S    
C12   O19   A    
C36   C37   D    
C5    C6    A    
C11   C14   S    
C46   C47   S    
C11   C13   D    
C33   C36   S    
C18   C43   S    
C48   H31   S    
C18   C19   D    
C47   H34   S    
Cu5   O11   S    
C27   O14   A    
C47   H35   S    
C3    C12   S    
C33   C35   D    
Cu4   O8    S    
Cu5   Cu6   S    
Cu3   O7    S    
C48   H32   S    
C16   C17   D    
C30   H12   S    
C28   O17   A    
C47   C48   S    
Cu6   O17   S    
C35   H16   S    
C9    C10   D    
C15   C34   S    
C44   H27   S    
Cu2   O21   S    
C26   O11   A    
C27   C30   S    
C25   O10   A    
Cu5   O9    S    
C5    H20   S    
Cu4   O4    S    
C1    O1    A    
C36   C46   S    
C15   H6    S    
C34   O23   A    
C12   O18   A    
Cu2   O23   S    
C39   C40   A    
C6    C21   S    
C21   O3    A    
C19   H9    S    
Cu6   O13   S    
C13   C24   S    
C37   H17   S    
Cu3   O3    S    
Cu5   O16   S    
C27   O15   A    
C19   C23   S    
Cu1   Cu2   S    
C29   C30   D    
C13   H4    S    
C2    C38   A    
C24   O8    A    
C31   C32   D    
C33   H15   S    
C43   C44   S    
C28   O16   A    
C17   H8    S    
C44   H28   S    
C25   C35   S    
C24   O7    A    
C40   C41   A    
C20   O24   A    
C45   H25   S    
C43   H29   S    
C39   H18   S    
Cu6   O15   S    
C3    C4    A    
C10   H2    S    
Cu2   O19   S    
C20   C32   S    
C7    C9    S    
C26   O13   A    
C23   O21   A    
C17   C28   S    
C1    C10   S    
C9    H23   S    
C22   O6    A    
C4    C5    A    
C7    H21   S    
Cu4   O6    S    
C1    O12   A    
C45   H26   S    
C21   O4    A    
C8    H22   S    
C48   H33   S    
C46   H37   S    
Cu6   O10   S    
C16   H7    S    
C32   H14   S    
C29   C31   S    
C22   C37   S    
C38   C39   A    
C2    C42   A    
Cu1   O22   S    
N1    H39   S    
C20   O2    A    
C2    C3    A    
C23   O20   A    
Cu1   O20   S    
C11   H3    S    
C38   H11   S    
C14   H5    S    
C29   H10   S    
C16   C18   S    
C45   H24   S    
C6    C42   A    
C14   C15   D    
C4    H1    S    
Cu4   O2    S    
Cu3   O24   S    
