data_mof_unit_29380.cif
_audit_creation_date              2013-03-05T15:50:33-0500
_audit_creation_method            fapswitch 2.2
_symmetry_space_group_name_H-M    P1
_symmetry_Int_Tables_number       1
_space_group_crystal_system       triclinic
_cell_length_a                    9.602722
_cell_length_b                    10.823461
_cell_length_c                    13.354648
_cell_angle_alpha                 92.576901
_cell_angle_beta                  72.807582
_cell_angle_gamma                 90.407315
_cell_volume                      1324.62267984

loop_
_atom_site_label
_atom_site_type_symbol
_atom_site_description
_atom_site_fract_x
_atom_site_fract_y
_atom_site_fract_z
_atom_type_partial_charge
O1    O     O_R   0.381190 0.680360 0.500010 -0.600190
O2    O     O_R   0.618760 0.680340 0.500000 -0.528217
C1    C     C_R   0.503308 0.737096 0.491889 0.809426
O3    O     O_R   0.323240 0.499990 0.650990 -0.566574
O4    O     O_R   0.560820 0.499960 0.650980 -0.507720
C2    C     C_R   0.421162 0.500679 0.700244 0.886276
Cu1   Cu    Cu3+1 0.359340 0.500010 0.500010 0.973135
Cu2   Cu    Cu3+1 0.640660 0.499990 0.499990 1.001172
O5    O     O_R   0.381240 0.319660 0.500000 -0.564547
O6    O     O_R   0.618810 0.319640 0.499990 -0.612859
O7    O     O_R   0.439180 0.500040 0.349020 -0.584784
O8    O     O_R   0.676760 0.500010 0.349010 -0.614326
C3    C     C_R   0.495053 0.262881 0.508586 0.812876
C4    C     C_R   0.578014 0.503024 0.300327 0.807909
C5    C     C_R   0.726364 0.672850 0.055305 -0.153853
H1    H     H_    0.781275 0.665161 0.199037 0.174937
H2    H     H_    0.702927 0.768187 0.882018 0.156132
H3    H     H_    0.801569 0.747738 0.027839 0.159233
C6    C     C_R   0.620081 0.528598 0.189090 -0.121327
C7    C     C_R   0.252083 0.416168 0.858911 -0.178747
C8    C     C_R   0.215864 0.388909 0.964020 -0.150689
C9    C     C_R   0.304726 0.428909 0.024324 -0.091313
C10   C     C_R   0.430204 0.500642 0.980809 0.024200
C11   C     C_R   0.450024 0.546453 0.879734 -0.048517
C12   C     C_R   0.531437 0.534741 0.036285 -0.025561
C13   C     C_R   0.631514 0.631631 0.998838 0.009051
C14   C     C_R   0.632379 0.689883 0.907557 -0.263949
C15   C     C_R   0.540696 0.650023 0.849096 0.526268
C16   C     C_R   0.539012 0.475242 0.126865 0.442284
C17   C     C_R   0.717665 0.624026 0.151516 -0.263040
C18   C     C_R   0.371558 0.491982 0.814934 -0.117819
H4    H     H_    0.187423 0.376746 0.811652 0.215406
H5    H     H_    0.268085 0.408302 0.106123 0.199995
H6    H     H_    0.120674 0.333629 0.998304 0.187026
H7    H     H_    0.718412 0.890961 0.507320 0.170285
C19   C     C_R   0.282017 0.882269 0.426126 -0.161223
H8    H     H_    0.304469 0.795340 0.381023 0.168372
C20   C     C_R   0.150842 0.942018 0.434385 -0.233947
H9    H     H_    0.073172 0.899521 0.399169 0.169143
C21   C     C_R   0.114543 0.050737 0.495988 -0.174761
H10   H     H_    0.005518 0.088694 0.513199 0.166942
C22   C     C_R   0.217109 0.108561 0.537605 0.392401
C23   C     C_R   0.361682 0.060321 0.511047 0.013664
C24   C     C_R   0.383311 0.936386 0.473027 0.051717
C25   C     C_R   0.505186 0.871596 0.484070 -0.109339
C26   C     C_R   0.621218 0.937604 0.503071 -0.180736
H11   H     H_    0.710297 0.113988 0.522015 0.170487
C27   C     C_R   0.614573 0.065088 0.514932 -0.191936
C28   C     C_R   0.486430 0.128394 0.517983 -0.083545
C29   C     C_R   0.911271 0.334753 0.361585 -0.184767
H12   H     H_    0.804711 0.329809 0.353748 0.225888
C30   C     C_R   0.009773 0.252077 0.295054 0.345205
C31   C     C_R   0.152956 0.251110 0.295883 -0.235016
H13   H     H_    0.230172 0.186804 0.244144 0.198620
C32   C     C_R   0.198432 0.332994 0.362688 -0.141818
H14   H     H_    0.310779 0.325055 0.356024 0.233398
C33   C     C_R   0.101609 0.418129 0.432481 0.204601
C34   C     C_R   0.952293 0.418322 0.432395 0.051166
N1    N     N_R   0.852480 0.498790 0.499000 -0.227265
C35   C     C_R   0.900397 0.581346 0.562781 0.582306
H15   H     H_    0.086915 0.638347 0.617069 0.150325
C36   C     C_R   0.049354 0.577925 0.564008 -0.148691
N2    N     N_R   0.148360 0.498710 0.498970 -0.197707
Cl1   Cl    Cl    0.148024 0.217445 0.642760 -0.664536
O9    O     O_3   0.798389 0.661924 0.628795 -0.509709
C37   C     C_3   0.858533 0.777704 0.645783 -0.314816
H16   H     H_    0.933998 0.812354 0.572504 0.136075
H17   H     H_    0.912953 0.772921 0.708217 0.152525
H18   H     H_    0.768937 0.846494 0.674038 0.217825
Cl2   Cl    Cl    0.952833 0.149308 0.209649 -0.685870
O10   O     O_3   0.467868 0.365240 0.156231 -0.630361
C38   C     C_3   0.567791 0.267038 0.117893 -0.323172
H19   H     H_    0.656997 0.270500 0.155534 0.193667
H20   H     H_    0.613618 0.266781 0.030889 0.184736
H21   H     H_    0.509363 0.178475 0.137788 0.191952
O11   O     O_3   0.534593 0.717542 0.765052 -0.548167
C39   C     C_3   0.425953 0.809576 0.801182 -0.349356
H22   H     H_    0.452509 0.875461 0.859256 0.170645
H23   H     H_    0.316609 0.768170 0.835329 0.161760
H24   H     H_    0.420813 0.863075 0.733405 0.201736

loop_
_geom_bond_atom_site_label_1
_geom_bond_atom_site_label_2
_geom_bond_distance
_ccdc_geom_bond_type
C5    H3    1.083917 S    
C37   H17   1.110332 S    
C32   H14   1.059745 S    
C31   C32   1.387742 A    
Cu1   Cu2   2.701360 S    
C31   H13   1.082997 S    
C30   C31   1.378387 A    
Cu1   O7    1.933879 S    
C13   C14   1.395234 A    
C19   H8    1.081523 S    
O3    Cu1   1.942272 S    
Cu2   N1    2.030310 S    
C20   H9    1.082627 S    
O7    C4    1.300019 A    
C37   H18   1.108549 S    
H1    C17   1.083498 S    
C35   C36   1.436074 A    
O5    C3    1.294306 A    
C29   C30   1.388737 A    
C10   C11   1.418116 A    
C39   H22   1.113387 S    
C21   C22   1.397914 A    
C37   H16   1.110580 S    
N1    C35   1.375890 A    
C8    C9    1.390599 A    
C38   H21   1.109667 S    
C33   N2    1.382421 A    
C39   H23   1.113520 S    
C12   C16   1.416349 A    
C26   C27   1.381546 A    
C29   C34   1.416250 A    
O11   C39   1.409760 S    
C38   H20   1.114070 S    
C23   C28   1.425953 A    
C5    C13   1.402594 A    
C8    H6    1.082873 S    
C12   C13   1.422000 A    
C25   C26   1.398514 A    
C1    C25   1.463777 S    
O1    C1    1.297907 A    
H2    C14   1.083880 S    
C23   C24   1.407375 A    
C36   N2    1.360094 A    
H11   C27   1.083519 S    
Cu2   O8    1.942271 S    
C29   H12   1.059674 S    
Cu1   N2    2.030077 S    
C3    C28   1.466292 S    
O3    C2    1.296925 A    
C21   H10   1.083083 S    
O8    C4    1.299882 A    
C35   O9    1.389191 S    
C32   C33   1.415956 A    
C19   C24   1.414420 A    
C22   C23   1.424197 A    
C6    C16   1.401052 A    
C22   Cl1   1.764259 S    
C24   C25   1.416390 A    
C5    C17   1.390717 A    
C7    H4    1.081476 S    
C39   H24   1.109484 S    
Cu1   O5    1.964782 S    
C9    H5    1.077246 S    
C27   C28   1.401842 A    
O1    Cu1   1.961773 S    
C4    C6    1.458507 S    
O2    Cu2   1.964784 S    
C11   C15   1.413818 A    
C38   H19   1.113688 S    
O6    C3    1.310800 A    
O4    Cu2   1.933879 S    
C19   C20   1.392871 A    
O2    C1    1.305703 A    
C34   N1    1.380804 A    
C11   C18   1.413323 A    
O10   C38   1.409861 S    
C20   C21   1.390056 A    
C6    C17   1.396991 A    
C33   C34   1.434203 A    
O4    C2    1.307492 A    
C2    C18   1.470618 S    
C10   C12   1.423434 A    
H15   C36   1.079806 S    
C30   Cl2   1.755846 S    
C7    C8    1.387641 A    
Cu2   O6    1.961772 S    
O9    C37   1.413152 S    
C14   C15   1.393361 A    
C9    C10   1.416230 A    
H7    C26   1.081551 S    
C16   O10   1.382061 S    
C7    C18   1.402202 A    
C15   O11   1.382193 S    
