data_mof_unit_13604.cif
_audit_creation_date              2012-12-10T17:32:21-0500
_audit_creation_method            fapswitch 2.2
_symmetry_space_group_name_H-M    P1
_symmetry_Int_Tables_number       1
_space_group_crystal_system       triclinic
_cell_length_a                    12.384068
_cell_length_b                    13.222187
_cell_length_c                    15.044545
_cell_angle_alpha                 76.516435
_cell_angle_beta                  101.144399
_cell_angle_gamma                 117.283243
_cell_volume                      2118.39126488

loop_
_atom_site_label
_atom_site_type_symbol
_atom_type_description
_atom_site_fract_x
_atom_site_fract_y
_atom_site_fract_z
_atom_type_partial_charge
C1    C     C_R   0.854814 0.286517 0.508568 0.760039
C2    C     C_R   0.960361 0.576047 0.073003 0.112585
C3    C     C_R   0.094128 0.370862 0.086549 -0.209331
C4    C     C_R   0.093236 0.371729 0.993654 -0.186017
C5    C     C_R   0.049735 0.441324 0.926592 0.113492
C6    C     C_R   0.006549 0.511006 0.952548 0.019068
C7    C     C_R   0.964707 0.583249 0.885240 0.048288
C8    C     C_R   0.920933 0.650759 0.913712 -0.151391
C9    C     C_R   0.918215 0.646565 0.006561 -0.224242
C10   C     C_R   0.047774 0.441206 0.834005 -0.278970
C11   C     C_R   0.005714 0.511264 0.766547 -0.111319
C12   C     C_R   0.002358 0.504313 0.670444 0.856114
C13   C     C_R   0.967659 0.585928 0.791570 0.215302
C14   C     C_R   0.283527 0.014456 0.359271 -0.184765
C15   C     C_R   0.227832 0.835413 0.466424 -0.063602
C16   C     C_R   0.812216 0.082033 0.567534 -0.189608
C17   C     C_R   0.732407 0.965423 0.581415 -0.130917
C18   C     C_R   0.609955 0.929269 0.547806 -0.101959
C19   C     C_R   0.565365 0.009629 0.498717 0.090730
C20   C     C_R   0.650968 0.124320 0.470779 0.077981
C21   C     C_R   0.439581 0.977433 0.470020 0.028713
C22   C     C_R   0.405366 0.050307 0.396809 0.131702
C23   C     C_R   0.145020 0.713426 0.487090 0.883984
C24   C     C_R   0.493337 0.157576 0.361074 -0.217641
C25   C     C_R   0.614050 0.195166 0.398566 -0.188716
C26   C     C_R   0.346057 0.876208 0.511675 0.198656
C27   C     C_R   0.196131 0.905495 0.391504 -0.227159
C28   C     C_R   0.772361 0.162884 0.513366 -0.101774
C29   C     C_R   0.343113 0.325437 0.647066 -0.280949
C30   C     C_R   0.752751 0.630365 0.365355 0.090619
C31   C     C_R   0.643727 0.631703 0.322133 -0.256441
C32   C     C_R   0.538260 0.569018 0.366966 -0.133115
C33   C     C_R   0.542641 0.514558 0.459255 0.010025
C34   C     C_R   0.000681 0.500663 0.329114 0.809708
C35   C     C_R   0.651220 0.500929 0.494472 0.296964
C36   C     C_R   0.441012 0.463710 0.514342 -0.079303
C37   C     C_R   0.442209 0.381855 0.593858 0.133928
C38   C     C_R   0.543545 0.358199 0.620937 -0.241868
C39   C     C_R   0.646945 0.418614 0.573776 -0.149235
C40   C     C_R   0.342091 0.495273 0.498466 0.398514
C41   C     C_R   0.244805 0.353518 0.624500 0.034637
C42   C     C_R   0.957887 0.571914 0.165930 -0.241622
C43   C     C_R   0.002662 0.503087 0.232346 -0.054844
C44   C     C_R   0.049666 0.437347 0.206198 -0.229094
C45   C     C_R   0.050269 0.438619 0.113367 0.107028
C46   C     C_R   0.005761 0.508607 0.046279 0.081740
Cu1   Cu    Cu3+1 0.098270 0.475420 0.521130 0.997620
Cu2   Cu    Cu3+1 0.901730 0.524580 0.478870 0.954707
H1    H     H_    0.922877 0.623652 0.186667 0.142122
H2    H     H_    0.468552 0.213276 0.304480 0.144039
H3    H     H_    0.257065 0.068455 0.302167 0.139227
H4    H     H_    0.905228 0.108920 0.599380 0.161119
H5    H     H_    0.552097 0.837572 0.557182 0.197470
H6    H     H_    0.764911 0.902993 0.620114 0.178192
H7    H     H_    0.678728 0.277644 0.366449 0.173182
H8    H     H_    0.167911 0.309281 0.665143 0.128959
H9    H     H_    0.544525 0.294654 0.681105 0.159080
H10   H     H_    0.342275 0.260551 0.706564 0.153076
H11   H     H_    0.083746 0.383814 0.258039 0.154635
H12   H     H_    0.833644 0.675127 0.329040 0.118628
H13   H     H_    0.453160 0.558088 0.326201 0.185553
H14   H     H_    0.639706 0.676608 0.252406 0.152585
H15   H     H_    0.719819 0.394700 0.599855 0.198853
H16   H     H_    0.128380 0.316736 0.137376 0.141624
H17   H     H_    0.126718 0.318060 0.974205 0.142794
H18   H     H_    0.077964 0.385135 0.814258 0.158256
H19   H     H_    0.886818 0.706312 0.865126 0.193236
H20   H     H_    0.883217 0.698807 0.026415 0.146661
H21   H     H_    0.104618 0.874830 0.356486 0.155796
N1    N     N_R   0.246280 0.438190 0.553160 -0.191840
N2    N     N_R   0.754320 0.561190 0.447410 -0.200461
O1    O     O_R   0.972510 0.318130 0.526570 -0.588903
O2    O     O_R   0.806530 0.359650 0.490890 -0.607876
O3    O     O_R   0.082980 0.479210 0.647590 -0.576389
O4    O     O_R   0.917000 0.520730 0.611900 -0.566426
O5    O     O_R   0.193470 0.640350 0.509110 -0.507304
O6    O     O_R   0.027490 0.681870 0.473430 -0.579901
O7    O     O_R   0.083000 0.479270 0.388100 -0.552132
O8    O     O_R   0.917020 0.520790 0.352410 -0.613680
Br1   Br    Br    0.365396 0.808446 0.639360 -0.502757
Br2   Br    Br    0.352545 0.632209 0.411852 -0.535625
Br3   Br    Br    0.930008 0.698139 0.699320 -0.520054

loop_
_geom_bond_atom_site_label_1
_geom_bond_atom_site_label_2
_ccdc_geom_bond_type
C16   C28   A    
C21   C26   A    
C12   O3    A    
C19   C20   A    
Cu2   O4    S    
C23   O5    A    
C30   N2    A    
C7    C8    A    
C41   H8    S    
C3    H16   S    
C2    C46   A    
C40   N1    A    
Cu2   O8    S    
C36   C37   A    
C19   C21   A    
C32   H13   S    
C14   H3    S    
C4    H17   S    
C20   C25   A    
C44   H11   S    
C33   C36   A    
C18   C19   A    
C18   H5    S    
C31   C32   A    
C8    C9    A    
C30   H12   S    
C1    C28   S    
C14   C27   A    
C27   H21   S    
C15   C23   S    
C35   N2    A    
C21   C22   A    
C31   H14   S    
Cu2   O2    S    
C10   H18   S    
C24   H2    S    
C38   C39   A    
C1    O1    A    
C16   H4    S    
C36   C40   A    
C24   C25   A    
C16   C17   A    
C15   C26   A    
C20   C28   A    
C45   C46   A    
C13   Br3   S    
C3    C45   A    
C26   Br1   S    
Cu2   O6    S    
C35   C39   A    
C43   C44   A    
Cu1   N1    S    
C37   C38   A    
C34   O8    A    
C38   H9    S    
C15   C27   A    
Cu1   Cu2   S    
C30   C31   A    
C17   C18   A    
C23   O6    A    
C22   C24   A    
C42   C43   A    
Cu2   N2    S    
C3    C4    A    
C44   C45   A    
C6    C46   A    
C29   C41   A    
C40   Br2   S    
C34   C43   S    
C25   H7    S    
Cu1   O3    S    
C4    C5    A    
Cu1   O5    S    
C11   C12   S    
C6    C7    A    
C39   H15   S    
C1    O2    A    
C32   C33   A    
C14   C22   A    
C9    H20   S    
C5    C10   A    
C34   O7    A    
C11   C13   A    
C5    C6    A    
C2    C42   A    
C33   C35   A    
Cu1   O1    S    
C10   C11   A    
C42   H1    S    
C7    C13   A    
C29   H10   S    
C8    H19   S    
C12   O4    A    
C29   C37   A    
Cu1   O7    S    
C2    C9    A    
C17   H6    S    
C41   N1    A    
