data_mof_unit_5383.cif
_audit_creation_date              2012-12-10T18:02:06-0500
_audit_creation_method            fapswitch 2.2
_symmetry_space_group_name_H-M    P1
_symmetry_Int_Tables_number       1
_space_group_crystal_system       triclinic
_cell_length_a                    10.8257
_cell_length_b                    9.495015
_cell_length_c                    23.577376
_cell_angle_alpha                 89.992794
_cell_angle_beta                  90.397172
_cell_angle_gamma                 90.064872
_cell_volume                      2423.46301696

loop_
_atom_site_label
_atom_site_type_symbol
_atom_type_description
_atom_site_fract_x
_atom_site_fract_y
_atom_site_fract_z
_atom_type_partial_charge
C1    C     C_R   0.262094 0.499958 0.499995 0.955754
C2    C     C_R   0.737909 0.500069 0.500002 0.960478
C3    C     C_R   0.562574 0.602445 0.237401 -0.112491
C4    C     C_R   0.436361 0.602014 0.762496 -0.108631
C5    C     C_R   0.567277 0.606934 0.296813 -0.014187
C6    C     C_R   0.431782 0.606305 0.703080 -0.031843
C7    C     C_R   0.506702 0.499457 0.328314 -0.184328
C8    C     C_R   0.493040 0.499385 0.671666 -0.180210
C9    C     C_R   0.447921 0.388230 0.299005 0.567565
C10   C     C_R   0.552219 0.388697 0.701040 0.562332
C11   C     C_R   0.447688 0.384105 0.240019 -0.154035
C12   C     C_R   0.552330 0.384689 0.760027 -0.152338
C13   C     C_R   0.503900 0.491480 0.208943 0.189814
C14   C     C_R   0.495558 0.491652 0.791032 0.191405
C15   C     C_R   0.063411 0.386796 0.475743 0.518258
C16   C     C_R   0.936600 0.613374 0.524191 0.512777
C17   C     C_R   0.935555 0.386883 0.475715 0.500501
C18   C     C_R   0.064460 0.613283 0.524227 0.491840
C19   C     C_R   0.871665 0.500160 0.499952 -0.488845
C20   C     C_R   0.128346 0.499957 0.500015 -0.488424
C21   C     C_R   0.415894 0.074374 0.468243 0.027507
C22   C     C_R   0.584319 0.925628 0.531630 -0.015151
C23   C     C_R   0.584133 0.074588 0.531747 0.034000
C24   C     C_R   0.415613 0.925413 0.468404 -0.007735
C25   C     C_R   0.503052 0.500112 0.390925 0.843081
C26   C     C_R   0.496908 0.500081 0.609068 0.838651
C27   C     C_R   0.607700 0.490538 0.880324 0.639852
C28   C     C_R   0.391719 0.489369 0.119660 0.639605
C29   C     C_R   0.387159 0.482312 0.880509 0.635963
C30   C     C_R   0.612290 0.482886 0.119466 0.636902
C31   C     C_R   0.385648 0.483046 0.940148 -0.209656
C32   C     C_R   0.613794 0.483755 0.059829 -0.210318
C33   C     C_R   0.499147 0.484677 0.969987 -0.164659
C34   C     C_R   0.500289 0.484590 0.029991 -0.164686
C35   C     C_R   0.611505 0.486831 0.939948 -0.210932
C36   C     C_R   0.387925 0.485781 0.060032 -0.210832
C37   C     C_R   0.274149 0.482292 0.970634 0.592046
C38   C     C_R   0.725294 0.483946 0.029343 0.592107
C39   C     C_R   0.275270 0.484401 0.029742 0.592865
C40   C     C_R   0.724164 0.486228 0.970238 0.592920
Cu1   Cu    Cu3+1 0.500000 0.640660 0.500000 0.985067
Cu2   Cu    Cu3+1 0.500000 0.359340 0.500000 1.048074
H1    H     H_    0.606591 0.684774 0.212889 0.171110
H2    H     H_    0.391840 0.683980 0.786940 0.170826
H3    H     H_    0.402882 0.297326 0.218267 0.188988
H4    H     H_    0.597484 0.298334 0.781836 0.188253
H5    H     H_    0.349005 0.130517 0.442589 0.218904
H6    H     H_    0.651505 0.869473 0.557108 0.192951
H7    H     H_    0.651175 0.130914 0.557329 0.187779
H8    H     H_    0.348238 0.869075 0.443016 0.156226
N1    N     N_R   0.496864 0.487715 0.852009 -0.471351
N2    N     N_R   0.502571 0.487398 0.147969 -0.470882
N3    N     N_R   0.500000 0.852070 0.500000 -0.185054
N4    N     N_R   0.500000 0.147930 0.500000 -0.192833
O1    O     O_R   0.319640 0.618740 0.500000 -0.551715
O2    O     O_R   0.680360 0.381260 0.500000 -0.539112
O3    O     O_R   0.680360 0.618740 0.500000 -0.555551
O4    O     O_R   0.319640 0.381260 0.500000 -0.546104
O5    O     O_R   0.499960 0.618810 0.417880 -0.613151
O6    O     O_R   0.500040 0.381190 0.582120 -0.548476
O7    O     O_R   0.500040 0.618810 0.582120 -0.596148
O8    O     O_R   0.499960 0.381190 0.417880 -0.528002
O9    O     O_2   0.713653 0.498684 0.850693 -0.418626
O10   O     O_2   0.285740 0.496586 0.149297 -0.419321
O11   O     O_2   0.280075 0.475225 0.851012 -0.426057
O12   O     O_2   0.719404 0.476586 0.148961 -0.424428
F1    F     F_    0.162880 0.480930 0.943654 -0.502534
F2    F     F_    0.836568 0.483354 0.056322 -0.502459
F3    F     F_    0.165037 0.484446 0.056915 -0.501996
F4    F     F_    0.834396 0.487192 0.943066 -0.502092
C41   C     C_3   0.643162 0.723460 0.323919 -0.351106
C42   C     C_3   0.568170 0.860036 0.328006 -0.351322
C43   C     C_3   0.641500 0.975622 0.358142 -0.695235
H9    H     H_    0.666083 0.942213 0.401935 0.262066
H10   H     H_    0.727334 0.999641 0.334469 0.268846
H11   H     H_    0.584840 0.072846 0.360534 0.267675
H12   H     H_    0.543177 0.897059 0.284688 0.233321
H13   H     H_    0.481274 0.840722 0.351521 0.240941
H14   H     H_    0.679353 0.691664 0.366146 0.214189
H15   H     H_    0.726683 0.743231 0.297841 0.213847
C44   C     C_3   0.355203 0.721830 0.675829 -0.329799
C45   C     C_3   0.429295 0.859196 0.671615 -0.341114
C46   C     C_3   0.355517 0.973445 0.640998 -0.709190
H16   H     H_    0.331749 0.939093 0.597226 0.278708
H17   H     H_    0.269194 0.996733 0.664375 0.266667
H18   H     H_    0.411502 0.071313 0.638521 0.257262
H19   H     H_    0.453472 0.897103 0.714908 0.231172
H20   H     H_    0.516627 0.840606 0.648375 0.243639
H21   H     H_    0.319419 0.689329 0.633615 0.243996
H22   H     H_    0.271460 0.740815 0.701823 0.219284
F5    F     F_    0.388355 0.284079 0.327352 -0.642520
F6    F     F_    0.612247 0.284967 0.672752 -0.657703
F7    F     F_    0.123338 0.277926 0.450688 -0.584464
F8    F     F_    0.876674 0.722304 0.549201 -0.601071
F9    F     F_    0.874545 0.278004 0.450687 -0.588411
F10   F     F_    0.125455 0.722230 0.549215 -0.608886

loop_
_geom_bond_atom_site_label_1
_geom_bond_atom_site_label_2
_ccdc_geom_bond_type
C22   H6    S    
C8    C10   A    
C18   F10   S    
Cu1   Cu2   S    
Cu1   O7    S    
C9    F5    S    
C41   H14   S    
C44   C45   S    
C2    O3    A    
C3    H1    S    
C40   F4    S    
C38   C40   A    
C26   O7    A    
C21   N4    A    
C33   C35   A    
C23   H7    S    
C45   H19   S    
C8    C26   S    
C7    C9    A    
C43   H9    S    
Cu1   O1    S    
C42   H13   S    
Cu2   O2    S    
C46   H16   S    
C31   C33   A    
C17   F9    S    
C32   C38   A    
Cu2   O8    S    
C18   C20   A    
C3    C13   A    
C44   H21   S    
C10   F6    S    
C6    C44   S    
C43   H10   S    
Cu2   O4    S    
C41   H15   S    
C27   N1    A    
C22   N3    A    
C24   H8    S    
C15   C20   A    
Cu1   O5    S    
C4    C6    A    
Cu2   O6    S    
C5    C7    A    
C6    C8    A    
C4    H2    S    
C27   C35   A    
C24   N3    A    
C31   C37   A    
C12   H4    S    
C32   C34   A    
C42   H12   S    
C13   N2    S    
C14   N1    S    
C29   C31   A    
C33   C34   A    
C39   F3    S    
C9    C11   A    
Cu1   N3    S    
C30   O12   S    
C10   C12   A    
C29   O11   S    
C44   H22   S    
C28   O10   S    
C16   C18   A    
C46   H17   S    
C12   C14   A    
C43   H11   S    
C11   H3    S    
C23   N4    A    
C29   N1    A    
C15   C17   A    
C30   N2    A    
C1    C20   S    
C2    C19   S    
C36   C39   A    
C38   F2    S    
C42   C43   S    
C3    C5    A    
C15   F7    S    
C28   N2    A    
C16   F8    S    
C7    C25   S    
C35   C40   A    
C1    O1    A    
Cu1   O3    S    
C41   C42   S    
C5    C41   S    
C2    O2    A    
C1    O4    A    
Cu2   N4    S    
C30   C32   A    
C11   C13   A    
C16   C19   A    
C45   H20   S    
C37   F1    S    
C17   C19   A    
C34   C36   A    
C25   O8    A    
C4    C14   A    
C46   H18   S    
C28   C36   A    
C37   C39   A    
C45   C46   S    
C21   C24   A    
C22   C23   A    
C27   O9    S    
C25   O5    A    
C26   O6    A    
C21   H5    S    
