data_mof_unit_61107.cif
_audit_creation_date              2012-12-10T20:14:58-0500
_audit_creation_method            fapswitch 2.2
_symmetry_space_group_name_H-M    P1
_symmetry_Int_Tables_number       1
_space_group_crystal_system       triclinic
_cell_length_a                    15.725941
_cell_length_b                    19.053317
_cell_length_c                    18.436329
_cell_angle_alpha                 89.675529
_cell_angle_beta                  89.945067
_cell_angle_gamma                 90.183415
_cell_volume                      5523.98242418

loop_
_atom_site_label
_atom_site_type_symbol
_atom_type_description
_atom_site_fract_x
_atom_site_fract_y
_atom_site_fract_z
_atom_type_partial_charge
Br1   Br    Br    0.314451 0.526360 0.081672 -0.487513
Br2   Br    Br    0.685338 0.473671 0.918299 -0.489339
Br3   Br    Br    0.358532 0.683585 0.378481 -0.481265
Br4   Br    Br    0.599969 0.279194 0.625998 -0.484606
C1    C     C_R   0.499716 0.365150 0.500279 0.900258
C2    C     C_R   0.429774 0.261940 0.448981 -0.233213
C3    C     C_R   0.477445 0.709216 0.499377 -0.098804
C4    C     C_R   0.485305 0.289840 0.500904 -0.099622
C5    C     C_R   0.408719 0.963205 0.570240 -0.174091
C6    C     C_R   0.430772 0.036240 0.439470 -0.168909
C7    C     C_R   0.409548 0.036099 0.569980 -0.178533
C8    C     C_R   0.429710 0.963536 0.439712 -0.171515
C9    C     C_R   0.423664 0.072803 0.504911 0.119157
C10   C     C_R   0.421674 0.926753 0.505394 0.118664
C11   C     C_R   0.550500 0.546319 0.725547 0.035889
C12   C     C_R   0.496113 0.634607 0.499688 0.888755
C13   C     C_R   0.449186 0.453868 0.274514 0.044188
C14   C     C_R   0.552185 0.546999 0.801671 -0.204812
C15   C     C_R   0.447419 0.453159 0.198393 -0.203715
C16   C     C_R   0.337653 0.499996 0.500023 0.920600
C17   C     C_R   0.662354 0.500037 0.499972 0.919266
C18   C     C_R   0.502002 0.499213 0.841435 0.162747
C19   C     C_R   0.497814 0.500747 0.158566 0.163494
C20   C     C_R   0.449698 0.452619 0.802793 -0.251049
C21   C     C_R   0.550413 0.547161 0.197153 -0.254162
C22   C     C_R   0.449923 0.453660 0.726613 0.060485
C23   C     C_R   0.398629 0.808836 0.453618 -0.200590
C24   C     C_R   0.550284 0.546139 0.273332 0.059528
C25   C     C_R   0.424980 0.507643 0.960287 -0.261086
C26   C     C_R   0.574797 0.492264 0.039700 -0.260512
C27   C     C_R   0.422267 0.508851 0.036500 0.297694
C28   C     C_R   0.577511 0.491076 0.963491 0.298261
C29   C     C_R   0.497695 0.500735 0.077315 -0.011570
C30   C     C_R   0.502085 0.499181 0.922679 -0.011283
C31   C     C_3   0.971646 0.441219 0.531971 -0.148721
C32   C     C_3   0.028416 0.559490 0.467883 -0.145915
C33   C     C_3   0.028009 0.444219 0.463214 -0.162647
C34   C     C_R   0.497010 0.175707 0.557448 -0.191344
C35   C     C_3   0.972040 0.556489 0.536643 -0.163844
C36   C     C_1   0.248716 0.500172 0.500072 -0.152609
C37   C     C_1   0.751311 0.500138 0.499890 -0.163302
C38   C     C_3   0.027984 0.497373 0.568742 -0.156302
C39   C     C_3   0.972067 0.503334 0.431112 -0.154972
C40   C     C_3   0.082554 0.500372 0.499985 0.188502
C41   C     C_3   0.917495 0.500332 0.499872 0.189279
C42   C     C_1   0.173411 0.500304 0.500047 -0.055736
C43   C     C_1   0.826626 0.500239 0.499858 -0.058678
C44   C     C_R   0.418588 0.738030 0.449675 0.263697
C45   C     C_R   0.436054 0.851149 0.506509 0.056119
C46   C     C_R   0.519426 0.246333 0.555484 0.260754
C47   C     C_R   0.440776 0.148169 0.505841 0.058722
C48   C     C_R   0.492930 0.822106 0.556740 -0.154220
C49   C     C_R   0.407292 0.191617 0.451629 -0.168340
C50   C     C_R   0.513220 0.751392 0.553344 -0.235586
H1    H     H_    0.053089 0.398350 0.433216 0.146075
H2    H     H_    0.590362 0.582335 0.302801 0.129999
H3    H     H_    0.947018 0.505768 0.374879 0.149999
H4    H     H_    0.053037 0.494939 0.624975 0.149754
H5    H     H_    0.353599 0.830955 0.415432 0.167086
H6    H     H_    0.525394 0.141900 0.598126 0.166117
H7    H     H_    0.523366 0.854487 0.597316 0.145027
H8    H     H_    0.363708 0.171135 0.411444 0.143678
H9    H     H_    0.557514 0.729678 0.592408 0.155973
H10   H     H_    0.401914 0.295016 0.407366 0.157956
H11   H     H_    0.401213 0.935292 0.621207 0.141458
H12   H     H_    0.946966 0.602359 0.566643 0.146275
H13   H     H_    0.442733 0.063643 0.388827 0.140673
H14   H     H_    0.366527 0.514671 0.930096 0.185622
H15   H     H_    0.633256 0.485237 0.069884 0.185843
H16   H     H_    0.946249 0.392895 0.558154 0.155473
H17   H     H_    0.053842 0.607807 0.441704 0.157783
H18   H     H_    0.402631 0.063774 0.620797 0.143937
H19   H     H_    0.440703 0.936151 0.389246 0.145291
H20   H     H_    0.589562 0.582976 0.695206 0.125214
H21   H     H_    0.409950 0.417376 0.304906 0.121034
H22   H     H_    0.591970 0.584835 0.829297 0.164901
H23   H     H_    0.407416 0.415444 0.170820 0.164515
H24   H     H_    0.409600 0.415298 0.831354 0.153525
H25   H     H_    0.590682 0.584324 0.168550 0.152778
H26   H     H_    0.410084 0.417316 0.697098 0.133015
N1    N     N_R   0.500010 0.499980 0.689440 -0.094289
N2    N     N_R   0.499990 0.500020 0.310560 -0.091296
O1    O     O_R   0.500000 0.398180 0.560840 -0.582812
O2    O     O_R   0.500000 0.601820 0.439160 -0.583115
O3    O     O_R   0.499960 0.398180 0.439210 -0.635923
O4    O     O_R   0.500040 0.601820 0.560790 -0.632107
O5    O     O_R   0.376800 0.500000 0.560800 -0.629177
O6    O     O_R   0.623200 0.500000 0.439200 -0.625606
O7    O     O_R   0.376760 0.499990 0.439180 -0.591647
O8    O     O_R   0.623240 0.500010 0.560820 -0.598735
Zn1   Zn    Zn3+2 0.500030 0.500000 0.581210 0.983188
Zn2   Zn    Zn3+2 0.499970 0.500000 0.418790 0.984863

loop_
_geom_bond_atom_site_label_1
_geom_bond_atom_site_label_2
_ccdc_geom_bond_type
C23   C44   A    
C11   C14   A    
O5    Zn1   S    
C12   O2    A    
C38   H4    S    
C24   H2    S    
C11   N1    A    
C6    H13   S    
C21   C24   A    
C36   C42   T    
C31   C33   S    
C20   C22   A    
O4    Zn1   S    
C1    O1    A    
C10   C45   S    
C50   H9    S    
C16   O5    A    
Br3   C44   S    
Br1   C27   S    
N2    Zn2   S    
Br2   C28   S    
C13   N2    A    
C2    H10   S    
C15   H23   S    
C31   C38   S    
C9    C47   S    
O6    Zn2   S    
C31   H16   S    
C48   C50   A    
C19   C29   S    
C27   C29   A    
C32   H17   S    
C35   C41   S    
C1    O3    A    
C17   O6    A    
C21   H25   S    
C8    H19   S    
C12   O4    A    
C38   C40   S    
O3    Zn2   S    
C40   C42   S    
C35   C38   S    
C17   O8    A    
C41   C43   S    
C18   C30   S    
C24   N2    A    
C7    H18   S    
C2    C4    A    
C34   C47   A    
C25   C30   A    
C22   H26   S    
Br4   C46   S    
C47   C49   A    
C33   H1    S    
C33   C39   S    
C15   C19   A    
C5    C10   A    
C25   H14   S    
C5    C7    A    
C49   H8    S    
C45   C48   A    
C37   C43   T    
O7    Zn2   S    
C39   C41   S    
C6    C8    A    
C34   H6    S    
C20   H24   S    
C3    C12   S    
C8    C10   A    
C22   N1    A    
C35   H12   S    
C17   C37   S    
C32   C40   S    
C2    C49   A    
C31   C41   S    
C4    C46   A    
C26   H15   S    
C14   H22   S    
C26   C29   A    
C14   C18   A    
C32   C35   S    
C6    C9    A    
C1    C4    S    
C34   C46   A    
O1    Zn1   S    
C16   O7    A    
C48   H7    S    
C3    C44   A    
C33   C40   S    
C25   C27   A    
C23   H5    S    
C26   C28   A    
C7    C9    A    
O8    Zn1   S    
C16   C36   S    
C13   C15   A    
C18   C20   A    
C19   C21   A    
C5    H11   S    
C39   H3    S    
N1    Zn1   S    
C11   H20   S    
C13   H21   S    
C32   C39   S    
O2    Zn2   S    
C3    C50   A    
C23   C45   A    
C28   C30   A    
