data_mof_unit_21593.cif
_audit_creation_date              2012-12-10T17:50:30-0500
_audit_creation_method            fapswitch 2.2
_symmetry_space_group_name_H-M    P1
_symmetry_Int_Tables_number       1
_space_group_crystal_system       triclinic
_cell_length_a                    15.702281
_cell_length_b                    10.642585
_cell_length_c                    9.961627
_cell_angle_alpha                 89.171931
_cell_angle_beta                  88.020862
_cell_angle_gamma                 93.896975
_cell_volume                      1659.64057515

loop_
_atom_site_label
_atom_site_type_symbol
_atom_type_description
_atom_site_fract_x
_atom_site_fract_y
_atom_site_fract_z
_atom_type_partial_charge
C1    C     C_R   0.514309 0.263827 0.501267 0.976051
C2    C     C_R   0.521718 0.046964 0.874810 -0.173977
C3    C     C_R   0.469004 0.935646 0.865434 -0.131652
C4    C     C_R   0.338259 0.502858 0.501568 0.957398
C5    C     C_R   0.454535 0.887335 0.737243 -0.203416
C6    C     C_R   0.497871 0.942600 0.621954 0.047041
C7    C     C_R   0.530864 0.066501 0.630263 -0.078456
C8    C     C_R   0.540235 0.135627 0.508175 -0.274912
C9    C     C_R   0.564068 0.074338 0.390606 0.420741
C10   C     C_R   0.557578 0.943083 0.390276 -0.140452
C11   C     C_R   0.513733 0.877786 0.500580 -0.226505
C12   C     C_3   0.084464 0.524728 0.494105 -0.034809
C13   C     C_R   0.359652 0.381988 0.145418 0.509397
C14   C     C_R   0.279858 0.383663 0.087881 0.403423
C15   C     C_R   0.276783 0.401545 0.948110 -0.285586
C16   C     C_R   0.501199 0.741373 0.499526 0.896756
C17   C     C_R   0.354048 0.394695 0.871755 -0.060262
C18   C     C_R   0.430967 0.441821 0.932187 -0.111139
C19   C     C_R   0.431810 0.441288 0.076024 -0.100162
C20   C     C_R   0.566498 0.554607 0.065633 0.465145
C21   C     C_R   0.562886 0.564091 0.921985 0.475199
C22   C     C_R   0.661915 0.501777 0.497881 0.882255
C23   C     C_3   0.976047 0.642428 0.492513 -0.320551
C24   C     C_3   0.965839 0.456736 0.599070 -0.311072
C25   C     C_3   0.024613 0.405286 0.487956 0.464518
C26   C     C_1   0.249910 0.512773 0.503148 -0.049725
C27   C     C_1   0.751030 0.508089 0.492532 -0.194955
C28   C     C_3   0.025877 0.577954 0.602544 -0.084014
C29   C     C_3   0.989686 0.191980 0.508208 -0.302335
C30   C     C_2   0.427704 0.873887 0.989129 1.021740
C31   C     C_2   0.605882 0.878697 0.283611 1.028185
C32   C     C_3   0.696995 0.507864 0.132115 -0.214920
C33   C     C_3   0.390339 0.185394 0.206871 -0.163969
C34   C     C_3   0.917622 0.519676 0.486326 -0.008600
C35   C     C_3   0.180092 0.233872 0.173630 -0.107754
C36   C     C_2   0.192563 0.398805 0.883768 0.965800
C37   C     C_2   0.354502 0.275017 0.797940 1.010695
C38   C     C_3   0.695426 0.642898 0.836252 -0.219327
C39   C     C_2   0.948079 0.404038 0.249450 0.913437
C40   C     C_3   0.020231 0.720555 0.204015 -0.156848
C41   C     C_2   0.054704 0.643370 0.726667 0.950233
C42   C     C_3   0.683694 0.176037 0.296864 -0.271883
C43   C     C_3   0.687527 0.202937 0.739219 -0.355933
C44   C     C_3   0.035017 0.586608 0.384067 0.498937
C45   C     C_3   0.975783 0.466112 0.376292 -0.149034
C46   C     C_1   0.175163 0.520628 0.499503 0.143173
C47   C     C_1   0.826547 0.514232 0.488317 0.041183
C48   C     C_R   0.551555 0.114417 0.758816 0.569608
H1    H     H_    0.408644 0.808387 0.726208 0.159383
H2    H     H_    0.749433 0.539709 0.197919 0.231893
H3    H     H_    0.726524 0.489424 0.032888 0.102556
H4    H     H_    0.667065 0.416823 0.172475 0.179939
H5    H     H_    0.454829 0.193705 0.156519 0.214595
H6    H     H_    0.343155 0.143270 0.136966 0.169244
H7    H     H_    0.392163 0.119380 0.293734 0.203989
H8    H     H_    0.111115 0.222775 0.201788 0.221224
H9    H     H_    0.189012 0.185919 0.075865 0.107537
H10   H     H_    0.213609 0.186121 0.254000 0.178907
H11   H     H_    0.121697 0.351365 0.725677 0.352139
H12   H     H_    0.935515 0.404300 0.687388 0.173116
H13   H     H_    0.343888 0.086777 0.816616 0.341483
H14   H     H_    0.721075 0.695369 0.744942 0.179689
H15   H     H_    0.730489 0.683854 0.921807 0.181367
H16   H     H_    0.708246 0.542422 0.821132 0.150455
H17   H     H_    0.851690 0.328129 0.142529 0.324498
H18   H     H_    0.001290 0.801896 0.264213 0.122269
H19   H     H_    0.962727 0.661443 0.175414 0.155218
H20   H     H_    0.052561 0.758727 0.109856 0.205284
H21   H     H_    0.131844 0.779419 0.806659 0.345293
H22   H     H_    0.719645 0.094898 0.329647 0.145193
H23   H     H_    0.953765 0.739175 0.495347 0.159130
H24   H     H_    0.690986 0.253451 0.370080 0.155303
H25   H     H_    0.713064 0.210041 0.199171 0.198249
H26   H     H_    0.695820 0.184130 0.630235 0.150520
H27   H     H_    0.710515 0.124324 0.800173 0.168480
H28   H     H_    0.728265 0.289159 0.760432 0.188097
H29   H     H_    0.536689 0.085234 0.971995 0.215159
H30   H     H_    0.935241 0.203198 0.441462 0.158377
H31   H     H_    0.967636 0.192663 0.615395 0.163579
H32   H     H_    0.013982 0.098283 0.488555 0.198999
H33   H     H_    0.404268 0.700448 0.908778 0.300902
H34   H     H_    0.638185 0.866264 0.086627 0.350863
N1    N     N_R   0.499210 0.498800 0.142780 -0.141990
N2    N     N_R   0.499180 0.498720 0.857170 -0.147677
O1    O     O_R   0.500000 0.316780 0.614690 -0.572928
O2    O     O_2   0.424397 0.933096 0.092846 -0.595022
O3    O     O_R   0.392042 0.749687 0.992124 -0.780732
O4    O     O_2   0.654147 0.798565 0.314889 -0.621234
O5    O     O_R   0.600802 0.915188 0.149015 -0.761283
O6    O     O_3   0.638258 0.602981 0.127534 -0.576399
O7    O     O_3   0.367079 0.303158 0.254433 -0.585974
O8    O     O_3   0.205999 0.363619 0.167909 -0.529973
O9    O     O_2   0.130560 0.435161 0.945571 -0.489824
O10   O     O_R   0.183162 0.354256 0.753776 -0.790184
O11   O     O_2   0.336570 0.269827 0.679778 -0.565454
O12   O     O_R   0.499990 0.316750 0.385360 -0.550101
O13   O     O_R   0.360063 0.163710 0.871357 -0.877078
O14   O     O_3   0.607836 0.662068 0.851202 -0.590092
O15   O     O_2   0.001120 0.385441 0.160792 -0.530762
O16   O     O_R   0.862080 0.367802 0.232932 -0.879328
O17   O     O_3   0.078050 0.650453 0.273696 -0.555311
O18   O     O_2   0.022215 0.611036 0.836042 -0.593465
O19   O     O_R   0.117625 0.742624 0.716170 -0.807966
O20   O     O_3   0.596584 0.141694 0.278260 -0.592845
O21   O     O_3   0.602085 0.224622 0.774342 -0.597838
O22   O     O_R   0.376780 0.500000 0.614650 -0.618231
O23   O     O_R   0.376770 0.499980 0.385310 -0.570070
O24   O     O_R   0.500010 0.683250 0.614640 -0.598689
O25   O     O_R   0.500000 0.683220 0.385310 -0.578128
O26   O     O_R   0.623230 0.500020 0.614690 -0.594962
O27   O     O_R   0.623220 0.500000 0.385350 -0.584015
O28   O     O_3   0.056767 0.284717 0.482265 -0.581511
Zn1   Zn    Zn3+2 0.500010 0.500020 0.653130 1.025515
Zn2   Zn    Zn3+2 0.499990 0.499980 0.346870 1.071956

loop_
_geom_bond_atom_site_label_1
_geom_bond_atom_site_label_2
_ccdc_geom_bond_type
C33   H7    S    
N2    Zn1   S    
C1    C8    S    
C29   O28   S    
C38   O14   S    
C5    H1    S    
C37   O13   S    
C7    C8    A    
C32   H3    S    
H34   O5    S    
C12   C28   S    
C35   H10   S    
C33   O7    S    
C5    C6    A    
C28   C41   S    
C42   H22   S    
C41   O18   D    
C37   O11   D    
C18   C19   A    
C43   O21   S    
C32   H4    S    
C25   O28   S    
C40   O17   S    
C10   C31   S    
C32   O6    S    
C29   H30   S    
C8    C9    A    
C31   O5    S    
C40   H19   S    
C18   N2    A    
H11   O10   S    
C30   O2    D    
C9    C10   A    
C1    O12   A    
C39   C45   S    
C35   O8    S    
C43   H26   S    
C40   H18   S    
C13   C14   A    
C13   O7    S    
C33   H5    S    
N1    Zn2   S    
O12   Zn2   S    
C19   N1    A    
C36   O9    D    
C16   O25   A    
C38   H16   S    
H21   O19   S    
C1    O1    A    
C4    O23   A    
C13   C19   A    
O22   Zn1   S    
C23   H23   S    
C24   C25   S    
C12   C46   S    
C6    C11   A    
C16   O24   A    
C2    C48   A    
C4    O22   A    
C24   C34   S    
C23   C44   S    
C41   O19   S    
O24   Zn1   S    
C3    C30   S    
O23   Zn2   S    
C22   O26   A    
C11   C16   S    
C39   O15   D    
C48   O21   S    
C29   H31   S    
C21   N2    A    
C24   H12   S    
C23   C34   S    
C32   H2    S    
C42   H24   S    
C17   C18   A    
C34   C45   S    
C17   C37   S    
C23   C28   S    
O26   Zn1   S    
C14   O8    S    
H33   O3    S    
O25   Zn2   S    
C22   C27   S    
C25   C45   S    
C15   C36   S    
C44   C45   S    
C43   H27   S    
C38   H15   S    
C27   C47   T    
C43   H28   S    
C15   C17   A    
C42   H25   S    
C31   O4    D    
C35   H8    S    
H13   O13   S    
C24   C28   S    
H17   O16   S    
C3    C5    A    
C42   O20   S    
C4    C26   S    
C44   O17   S    
C6    C7    A    
C12   C25   S    
C35   H9    S    
C7    C48   A    
O1    Zn1   S    
C2    C3    A    
C12   C44   S    
C2    H29   S    
C21   O14   S    
C39   O16   S    
C29   H32   S    
C20   O6    S    
C33   H6    S    
C9    O20   S    
O27   Zn2   S    
C10   C11   A    
C26   C46   T    
C36   O10   S    
C20   C21   A    
C22   O27   A    
C40   H20   S    
C20   N1    A    
C14   C15   A    
C34   C47   S    
C30   O3    S    
C38   H14   S    
