data_mof_unit_47927.cif
_audit_creation_date              2012-10-26T20:57:28-0400
_audit_creation_method            fapswitch 2.2
_symmetry_space_group_name_H-M    P1
_symmetry_Int_Tables_number       1
_space_group_crystal_system       triclinic
_cell_length_a                    14.694477
_cell_length_b                    14.631403
_cell_length_c                    15.877641
_cell_angle_alpha                 76.447067
_cell_angle_beta                  102.822045
_cell_angle_gamma                 115.361983
_cell_volume                      2969.95129768

loop_
_atom_site_label
_atom_site_type_symbol
_atom_type_description
_atom_site_fract_x
_atom_site_fract_y
_atom_site_fract_z
_atom_type_partial_charge
C1    C     C_R   0.880063 0.311261 0.512957 0.549666
C2    C     C_R   0.364852 0.913073 0.530160 0.016797
C3    C     C_R   0.681144 0.992620 0.549329 -0.009222
C4    C     C_R   0.329759 0.984382 0.542701 -0.008001
C5    C     C_R   0.540344 0.037846 0.554864 0.034150
C6    C     C_R   0.471110 0.935279 0.546534 0.031221
C7    C     C_R   0.511559 0.859371 0.557691 0.127012
C8    C     C_R   0.503431 0.104895 0.574718 0.133006
C9    C     C_R   0.615745 0.889511 0.558776 -0.113387
C10   C     C_R   0.398946 0.077511 0.567517 -0.112029
C11   C     C_R   0.709580 0.657592 0.344259 -0.156496
C12   C     C_R   0.119994 0.688470 0.487546 0.554665
C13   C     C_R   0.296947 0.353181 0.661243 -0.158127
C14   C     C_R   0.792447 0.630153 0.370341 0.053590
C15   C     C_R   0.209106 0.371511 0.630509 0.055093
C16   C     C_R   0.999565 0.499763 0.659968 0.551775
C17   C     C_R   0.000318 0.500042 0.340047 0.539381
C18   C     C_R   0.719153 0.517598 0.493996 0.047530
C19   C     C_R   0.283873 0.489132 0.509403 0.043274
C20   C     C_R   0.633012 0.543452 0.471665 0.006171
C21   C     C_R   0.375487 0.473246 0.536725 0.000290
C22   C     C_R   0.629087 0.613644 0.394000 0.038030
C23   C     C_R   0.783728 0.020701 0.543694 -0.115680
C24   C     C_R   0.380710 0.404557 0.615262 0.034947
C25   C     C_R   0.550180 0.500546 0.521851 0.024272
C26   C     C_R   0.461378 0.522600 0.489699 0.016615
C27   C     C_R   0.461702 0.593179 0.411853 -0.138366
C28   C     C_R   0.553571 0.437093 0.603380 -0.145667
C29   C     C_R   0.544539 0.638658 0.365885 -0.117948
C30   C     C_R   0.469904 0.388858 0.648276 -0.130507
C31   C     C_3   0.996758 0.409505 0.046314 0.043310
C32   C     C_3   0.002375 0.588960 0.953836 0.042291
C33   C     C_3   0.914310 0.422535 0.970212 -0.170406
C34   C     C_R   0.225329 0.961196 0.532090 -0.116588
C35   C     C_3   0.084812 0.575924 0.029911 -0.169554
C36   C     C_1   0.998902 0.499529 0.749383 0.041549
C37   C     C_1   0.000655 0.499730 0.250675 0.038697
C38   C     C_3   0.081287 0.485854 0.991931 0.041962
C39   C     C_3   0.917841 0.512616 0.008192 0.042293
C40   C     C_3   0.999870 0.499826 0.916524 -0.014231
C41   C     C_3   0.999257 0.498660 0.083606 -0.013266
C42   C     C_1   0.998976 0.499453 0.824835 0.063167
C43   C     C_1   0.000322 0.499359 0.175263 0.065393
C44   C     C_R   0.813099 0.200738 0.522480 0.011154
C45   C     C_R   0.850319 0.123929 0.530578 0.133666
C46   C     C_R   0.188093 0.796298 0.494148 0.012887
C47   C     C_2   0.993058 0.307770 0.096595 0.608224
C48   C     C_2   0.006091 0.690753 0.903717 0.605798
C49   C     C_2   0.825027 0.527297 0.015194 0.606961
C50   C     C_2   0.174123 0.471280 0.984803 0.607067
C51   C     C_3   0.001260 0.873412 0.419173 -0.286983
C52   C     C_3   0.974206 0.171708 0.433887 -0.269436
C53   C     C_3   0.422698 0.717011 0.663196 -0.276142
C54   C     C_3   0.612717 0.177758 0.700910 -0.303536
C55   C     C_R   0.153884 0.867014 0.509301 0.135146
C56   C     C_R   0.709835 0.171616 0.526133 -0.139746
C57   C     C_R   0.292539 0.823730 0.498481 -0.139734
C58   C     C_R   0.643908 0.068146 0.545226 0.017242
Cu1   Cu    Cu3+1 0.081740 0.475690 0.522610 0.956786
Cu2   Cu    Cu3+1 0.918260 0.524310 0.477390 0.968765
H1    H     H_    0.844535 0.359788 0.945410 0.138374
H2    H     H_    0.620485 0.423242 0.634581 0.105189
H3    H     H_    0.645676 0.831494 0.566368 0.115787
H4    H     H_    0.371698 0.129553 0.582009 0.110469
H5    H     H_    0.315941 0.773766 0.476497 0.167842
H6    H     H_    0.681056 0.230950 0.510933 0.178447
H7    H     H_    0.812066 0.962235 0.547775 0.105762
H8    H     H_    0.198878 0.015646 0.543066 0.103716
H9    H     H_    0.541469 0.692618 0.306567 0.121808
H10   H     H_    0.475226 0.338666 0.709680 0.120221
H11   H     H_    0.989963 0.215746 0.213353 0.332599
H12   H     H_    0.154594 0.638685 0.054678 0.142387
H13   H     H_    0.009270 0.783021 0.787120 0.338061
H14   H     H_    0.741344 0.541002 0.092673 0.345033
H15   H     H_    0.258023 0.458236 0.907114 0.341876
H16   H     H_    0.032537 0.868392 0.553131 0.245290
H17   H     H_    0.034121 0.958212 0.401144 0.129019
H18   H     H_    0.918347 0.846790 0.419768 0.139324
H19   H     H_    0.012340 0.838437 0.369273 0.164780
H20   H     H_    0.982164 0.097522 0.561550 0.239409
H21   H     H_    0.932613 0.102198 0.401990 0.123159
H22   H     H_    0.057014 0.196856 0.433777 0.151018
H23   H     H_    0.273990 0.541979 0.452034 0.124569
H24   H     H_    0.951222 0.234321 0.395706 0.185633
H25   H     H_    0.478049 0.706097 0.558512 0.253784
H26   H     H_    0.491575 0.726810 0.712535 0.155208
H27   H     H_    0.371290 0.634494 0.669531 0.167126
H28   H     H_    0.381815 0.759805 0.676190 0.171523
H29   H     H_    0.540759 0.250504 0.598429 0.251675
H30   H     H_    0.667039 0.252043 0.721529 0.142960
H31   H     H_    0.654594 0.127768 0.709522 0.173093
H32   H     H_    0.551466 0.141482 0.743228 0.150694
H33   H     H_    0.726513 0.461909 0.549952 0.123074
H34   H     H_    0.145051 0.333491 0.666830 0.146733
H35   H     H_    0.854630 0.664030 0.331960 0.133997
H36   H     H_    0.708073 0.712225 0.285151 0.104556
H37   H     H_    0.299860 0.300164 0.721223 0.106876
H38   H     H_    0.399007 0.615587 0.384596 0.103619
N1    N     N_R   0.795440 0.560790 0.443380 -0.228832
N2    N     N_R   0.204560 0.439210 0.556620 -0.234623
N3    N     N_2   0.048553 0.843197 0.504882 -0.481962
N4    N     N_2   0.953460 0.149194 0.523088 -0.497558
N5    N     N_2   0.450951 0.752453 0.575994 -0.543274
N6    N     N_2   0.569880 0.195359 0.610401 -0.547618
O1    O     O_R   0.977900 0.338120 0.529810 -0.463757
O2    O     O_R   0.992576 0.286859 0.187024 -0.706248
O3    O     O_2   0.008661 0.754936 0.942514 -0.494008
O4    O     O_R   0.006644 0.711875 0.813303 -0.694878
O5    O     O_2   0.766146 0.536293 0.949242 -0.500618
O6    O     O_R   0.806205 0.530658 0.096637 -0.689765
O7    O     O_2   0.232922 0.461995 0.050732 -0.494968
O8    O     O_R   0.193102 0.468432 0.903256 -0.694844
O9    O     O_R   0.022100 0.661880 0.470190 -0.465887
O10   O     O_R   0.839850 0.379180 0.491620 -0.514587
O11   O     O_R   0.160150 0.620820 0.508380 -0.512845
O12   O     O_R   0.069010 0.479460 0.640020 -0.493854
O13   O     O_R   0.930990 0.520540 0.359980 -0.491712
O14   O     O_R   0.930960 0.520530 0.601820 -0.496486
O15   O     O_R   0.069040 0.479470 0.398180 -0.507183
O16   O     O_2   0.990443 0.243459 0.057926 -0.493970

loop_
_geom_bond_atom_site_label_1
_geom_bond_atom_site_label_2
_ccdc_geom_bond_type
C11   H36   S    
C21   C26   A    
C27   H38   S    
C23   C45   A    
C22   C29   A    
C27   C29   A    
C41   C43   S    
C36   C42   T    
C15   N2    A    
Cu2   N1    S    
C15   H34   S    
C2    C57   A    
C14   N1    A    
C39   C41   S    
C25   C28   A    
C52   N4    S    
C26   C27   A    
C33   C39   S    
C5    C58   A    
C54   N6    S    
C19   C21   A    
C54   H30   S    
C5    C6    A    
C11   C14   A    
C48   O3    D    
C20   C25   A    
C32   C39   S    
C23   H7    S    
C52   H24   S    
C3    C23   A    
Cu2   O10   S    
Cu1   O12   S    
C46   C55   A    
C31   C33   S    
Cu2   O14   S    
C53   H26   S    
H25   N5    S    
C17   O13   A    
C12   O11   A    
C40   C42   S    
C34   C55   A    
C7    N5    S    
Cu1   N2    S    
C32   C48   S    
Cu2   O9    S    
C2    C6    A    
C19   H23   S    
C16   O12   A    
C30   H10   S    
C29   H9    S    
C4    C34   A    
C33   C40   S    
C32   C35   S    
C35   C38   S    
C12   C46   S    
C34   H8    S    
H13   O4    S    
C17   C37   S    
C25   C26   A    
C13   C24   A    
H20   N4    S    
C37   C43   T    
C2    C4    A    
C51   H17   S    
C54   H32   S    
C3    C9    A    
C16   O14   A    
C44   C56   A    
C1    C44   S    
C47   O2    S    
C50   O8    S    
H15   O8    S    
Cu2   O13   S    
C53   H27   S    
Cu1   O1    S    
C52   H22   S    
C8    N6    S    
C51   H19   S    
C8    C10   A    
C47   O16   D    
C39   C49   S    
C20   C22   A    
C35   H12   S    
C13   C15   A    
C46   C57   A    
C21   C24   A    
C18   N1    A    
C4    C10   A    
C14   H35   S    
C44   C45   A    
C49   O5    D    
C12   O9    A    
H16   N3    S    
C7    C9    A    
Cu1   O15   S    
C31   C41   S    
C9    H3    S    
C10   H4    S    
C57   H5    S    
H14   O6    S    
C5    C8    A    
C19   N2    A    
C6    C7    A    
C38   C50   S    
C51   N3    S    
C55   N3    S    
C11   C22   A    
C31   C38   S    
C28   C30   A    
C51   H18   S    
C54   H31   S    
H29   N6    S    
C16   C36   S    
C38   C40   S    
C48   O4    S    
C53   N5    S    
C33   H1    S    
C56   H6    S    
C50   O7    D    
C56   C58   A    
C53   H28   S    
C18   C20   A    
C32   C40   S    
C13   H37   S    
C52   H21   S    
C35   C41   S    
C24   C30   A    
C45   N4    S    
C17   O15   A    
C3    C58   A    
Cu1   Cu2   S    
Cu1   O11   S    
C1    O10   A    
H11   O2    S    
C18   H33   S    
C31   C47   S    
C1    O1    A    
C49   O6    S    
C28   H2    S    
