data_mof_unit_53190.cif
_audit_creation_date              2012-12-11T15:52:13-0500
_audit_creation_method            fapswitch 2.2
_symmetry_space_group_name_H-M    P1
_symmetry_Int_Tables_number       1
_space_group_crystal_system       triclinic
_cell_length_a                    11.221385
_cell_length_b                    11.238788
_cell_length_c                    18.769505
_cell_angle_alpha                 90.128721
_cell_angle_beta                  90.080629
_cell_angle_gamma                 120.059336
_cell_volume                      2048.73816951

loop_
_atom_site_label
_atom_site_type_symbol
_atom_type_description
_atom_site_fract_x
_atom_site_fract_y
_atom_site_fract_z
_atom_type_partial_charge
C1    C     C_R   0.520469 0.456781 0.147499 0.539784
C2    C     C_R   0.542644 0.063458 0.147647 0.538637
C3    C     C_R   0.936806 0.479520 0.147672 0.533956
C4    C     C_R   0.450751 0.524064 0.855338 0.537552
C5    C     C_R   0.073865 0.549734 0.855468 0.538326
C6    C     C_R   0.479020 0.932394 0.853659 0.543949
C7    C     C_3   0.691635 0.134102 0.558891 -0.234428
C8    C     C_3   0.796210 0.500866 0.548542 -0.292881
C9    C     C_3   0.436884 0.273626 0.554939 -0.239628
C10   C     C_3   0.800699 0.531104 0.470780 -0.232232
C11   C     C_3   0.720570 0.165441 0.481018 -0.238145
C12   C     C_3   0.436213 0.257607 0.475056 -0.216320
C13   C     C_R   0.519616 0.459547 0.352719 0.584423
C14   C     C_R   0.539244 0.057946 0.351260 0.588235
C15   C     C_R   0.940960 0.480843 0.352597 0.595602
C16   C     C_R   0.458999 0.524254 0.645794 0.566413
C17   C     C_R   0.064916 0.540153 0.645436 0.570105
C18   C     C_R   0.454637 0.887670 0.638283 0.557973
C19   C     C_R   0.499121 0.974143 0.927570 0.022937
C20   C     C_R   0.045939 0.530569 0.931422 0.019595
C21   C     C_R   0.469745 0.515263 0.931220 0.016546
C22   C     C_R   0.005957 0.501729 0.079403 0.019071
C23   C     C_R   0.505551 0.011382 0.075729 0.016834
C24   C     C_R   0.498621 0.502980 0.079022 0.019159
C25   C     C_R   0.457250 0.061048 0.956724 -0.007684
C26   C     C_R   0.002572 0.403888 0.963500 -0.000637
C27   C     C_R   0.597153 0.597115 0.963515 -0.000352
C28   C     C_R   0.981106 0.389237 0.036315 0.007446
C29   C     C_R   0.459801 0.078375 0.029567 0.012028
C30   C     C_R   0.611812 0.589411 0.036228 0.010569
C31   C     C_R   0.560141 0.934561 0.046321 -0.160754
C32   C     C_R   0.073210 0.633214 0.049165 -0.157177
C33   C     C_R   0.366763 0.440324 0.048616 -0.164145
C34   C     C_R   0.092361 0.647228 0.975627 -0.150874
C35   C     C_R   0.556856 0.916009 0.972974 -0.148613
C36   C     C_R   0.352552 0.445416 0.975047 -0.157725
C37   C     C_3   0.329070 0.068125 0.947475 -0.277249
C38   C     C_3   0.877571 0.268959 0.947639 -0.275446
C39   C     C_3   0.731183 0.605101 0.947725 -0.276038
C40   C     C_3   0.853039 0.252877 0.027301 -0.244310
C41   C     C_3   0.328168 0.081432 0.028104 -0.260197
C42   C     C_3   0.747369 0.595755 0.027360 -0.242979
C43   C     C_R   0.454500 0.937113 0.566182 -0.050635
C44   C     C_R   0.002095 0.479792 0.575777 -0.037224
C45   C     C_R   0.510359 0.522090 0.574628 -0.048560
C46   C     C_R   0.991585 0.492520 0.425805 0.002744
C47   C     C_R   0.493640 0.994796 0.420456 0.004576
C48   C     C_R   0.505992 0.499334 0.424918 0.002644
C49   C     C_R   0.580344 0.997710 0.536651 0.052613
C50   C     C_R   0.942131 0.542590 0.543283 0.058071
C51   C     C_R   0.435877 0.401280 0.540909 0.032942
C52   C     C_R   0.942002 0.554228 0.471024 0.079396
C53   C     C_R   0.600321 0.027609 0.466662 0.068438
C54   C     C_R   0.435459 0.389122 0.469629 0.063667
C55   C     C_R   0.358343 0.941441 0.448410 0.166724
C56   C     C_R   0.037677 0.406365 0.456427 0.157028
C57   C     C_R   0.589371 0.632276 0.456207 0.156829
C58   C     C_R   0.034318 0.392564 0.533181 0.155734
C59   C     C_R   0.340956 0.926970 0.524634 0.151581
C60   C     C_R   0.601001 0.641780 0.533204 0.146037
Cr1   Cr    Cr6+3 0.769160 0.541570 0.250690 1.086354
Cr2   Cr    Cr6+3 0.458430 0.227590 0.250690 1.085001
Cr3   Cr    Cr6+3 0.772410 0.230840 0.250690 1.085499
Cr4   Cr    Cr6+3 0.541570 0.769160 0.749310 1.080007
Cr5   Cr    Cr6+3 0.227590 0.458430 0.749310 1.077471
Cr6   Cr    Cr6+3 0.230840 0.772410 0.749310 1.072031
H1    H     H_    0.606223 0.890024 0.079880 0.140180
H2    H     H_    0.099324 0.723558 0.081035 0.132807
H3    H     H_    0.276118 0.377025 0.080335 0.141002
H4    H     H_    0.139364 0.749012 0.953244 0.135352
H5    H     H_    0.594417 0.850992 0.952143 0.149347
H6    H     H_    0.250045 0.390484 0.952366 0.149913
H7    H     H_    0.241145 0.972356 0.926070 0.145445
H8    H     H_    0.903817 0.193783 0.924606 0.148538
H9    H     H_    0.807618 0.706297 0.925094 0.146148
H10   H     H_    0.759384 0.255669 0.043664 0.145267
H11   H     H_    0.342699 0.181978 0.045866 0.163618
H12   H     H_    0.743691 0.498730 0.043284 0.143690
H13   H     H_    0.349117 0.163299 0.919285 0.151310
H14   H     H_    0.797381 0.279476 0.918043 0.140358
H15   H     H_    0.718961 0.514084 0.917779 0.139946
H16   H     H_    0.863718 0.167550 0.050191 0.154978
H17   H     H_    0.242051 0.990242 0.054259 0.132741
H18   H     H_    0.833788 0.691208 0.050555 0.151531
H19   H     H_    0.767639 0.124565 0.589836 0.272202
H20   H     H_    0.779314 0.564240 0.585858 0.235415
H21   H     H_    0.342850 0.205114 0.582666 0.272799
H22   H     H_    0.728800 0.445178 0.436665 0.090423
H23   H     H_    0.708990 0.250309 0.461543 0.076557
H24   H     H_    0.528991 0.263447 0.452991 0.081198
H25   H     H_    0.648660 0.188175 0.588670 0.106672
H26   H     H_    0.736543 0.392444 0.560459 0.102252
H27   H     H_    0.528144 0.290168 0.584300 0.102625
H28   H     H_    0.808075 0.628545 0.457506 0.252979
H29   H     H_    0.813258 0.168262 0.461300 0.254826
H30   H     H_    0.341323 0.173970 0.452575 0.264605
O1    O     O_R   0.911480 0.572650 0.170990 -0.533096
O2    O     O_R   0.427350 0.338830 0.170990 -0.529911
O3    O     O_R   0.661170 0.088520 0.170990 -0.529750
O4    O     O_R   0.572650 0.911480 0.829010 -0.524630
O5    O     O_R   0.338830 0.427350 0.829010 -0.530297
O6    O     O_R   0.088520 0.661170 0.829010 -0.531135
O7    O     O_R   0.640340 0.528970 0.175680 -0.499008
O8    O     O_R   0.471030 0.111370 0.175680 -0.496620
O9    O     O_R   0.888630 0.359660 0.175680 -0.498734
O10   O     O_R   0.528970 0.640340 0.824320 -0.500441
O11   O     O_R   0.111370 0.471030 0.824320 -0.499724
O12   O     O_R   0.359660 0.888630 0.824320 -0.504673
O13   O     O_R   0.909980 0.572450 0.331530 -0.464642
O14   O     O_R   0.427550 0.337530 0.331530 -0.478019
O15   O     O_R   0.662470 0.090020 0.331530 -0.473509
O16   O     O_R   0.572450 0.909980 0.668470 -0.455825
O17   O     O_R   0.337530 0.427550 0.668470 -0.453471
O18   O     O_R   0.090020 0.662470 0.668470 -0.448354
O19   O     O_R   0.638950 0.528780 0.324500 -0.467610
O20   O     O_R   0.471220 0.110170 0.324500 -0.469234
O21   O     O_R   0.889830 0.361050 0.324500 -0.465267
O22   O     O_R   0.528780 0.638950 0.675500 -0.447532
O23   O     O_R   0.110170 0.471220 0.675500 -0.439261
O24   O     O_R   0.361050 0.889830 0.675500 -0.430495
O25   O     O_3   0.666667 0.333333 0.250560 -0.315007
O26   O     O_3   0.333333 0.666667 0.749440 -0.325892
S1    S     S_3+6 0.217731 0.894337 0.387633 0.086277
O27   O     O_2   0.081239 0.810502 0.422570 -0.171061
O28   O     O_2   0.219895 0.018461 0.356493 -0.233291
O29   O     O_3   0.232076 0.801977 0.320990 -0.513980
H31   H     H_    0.167122 0.797157 0.283753 0.365147
S2    S     S_3+6 0.089846 0.314408 0.397778 0.086036
O30   O     O_2   0.169362 0.259662 0.435233 -0.176566
O31   O     O_2   0.967256 0.193683 0.364018 -0.225810
O32   O     O_3   0.188715 0.422258 0.333242 -0.513348
H32   H     H_    0.193662 0.362400 0.295944 0.367739
S3    S     S_3+6 0.685506 0.777335 0.398716 0.083856
O33   O     O_2   0.748008 0.910738 0.437940 -0.165428
O34   O     O_2   0.802151 0.771475 0.362894 -0.222517
O35   O     O_3   0.577702 0.775652 0.335837 -0.515848
H33   H     H_    0.638000 0.834258 0.296965 0.368266
S4    S     S_3+6 0.034484 0.247831 0.573317 0.053873
O36   O     O_2   0.958099 0.121129 0.528349 -0.155341
O37   O     O_2   0.176972 0.275284 0.578004 -0.242337
O38   O     O_3   0.968122 0.213173 0.656156 -0.544824
H34   H     H_    0.974994 0.132705 0.671854 0.355940
S5    S     S_3+6 0.200575 0.937399 0.564832 0.057982
O39   O     O_2   0.156645 0.017939 0.519095 -0.164693
O40   O     O_2   0.079872 0.798473 0.569851 -0.219293
O41   O     O_3   0.231726 0.006287 0.647239 -0.537423
H35   H     H_    0.146537 0.006381 0.660944 0.352085
S6    S     S_3+6 0.752693 0.779411 0.574602 0.061414
O42   O     O_2   0.874663 0.823455 0.527202 -0.136675
O43   O     O_2   0.736991 0.900908 0.585284 -0.236629
O44   O     O_3   0.789083 0.738170 0.654840 -0.545784
H36   H     H_    0.877963 0.818718 0.669219 0.359353

loop_
_geom_bond_atom_site_label_1
_geom_bond_atom_site_label_2
_ccdc_geom_bond_type
S5    O41   S    
C45   C60   A    
O29   H31   S    
C55   C59   A    
Cr6   O6    S    
C9    C51   S    
S6    O44   S    
Cr5   O5    S    
C10   C52   S    
C16   O17   A    
C48   C57   A    
C5    C20   S    
C3    O9    A    
C31   H1    S    
C6    C19   S    
C37   H13   S    
C10   H22   S    
C22   C32   A    
Cr4   O26   S    
C45   C51   A    
C23   C29   A    
C12   H24   S    
Cr1   O7    S    
S6    O43   D    
C41   H11   S    
Cr3   O21   S    
C14   O20   A    
Cr4   O16   S    
C10   H28   S    
C44   C50   A    
S5    O39   D    
C41   H17   S    
C46   C52   A    
C33   C36   A    
Cr4   O22   S    
Cr1   O25   S    
C3    O1    A    
Cr3   O3    S    
C25   C37   S    
Cr2   O2    S    
C18   O24   A    
C44   C58   A    
C38   H14   S    
Cr1   O19   S    
S3    O35   S    
C50   C52   A    
O44   H36   S    
Cr6   O26   S    
C8    H26   S    
C39   H9    S    
Cr3   O9    S    
C1    O7    A    
C11   C53   S    
C43   C59   A    
C47   C53   A    
C20   C34   A    
C58   S4    S    
C21   C27   A    
Cr1   O13   S    
C22   C28   A    
S2    O30   D    
C27   C30   A    
C37   C41   S    
C57   S3    S    
Cr3   O25   S    
C17   O18   A    
C39   C42   S    
Cr2   O8    S    
C56   C58   A    
C25   C29   A    
C14   O15   A    
C18   O16   A    
C55   S1    S    
C40   H16   S    
S1    O27   D    
C42   H18   S    
S6    O42   D    
C7    C49   S    
C27   C39   S    
C21   C36   A    
C34   H4    S    
C26   C38   S    
C57   C60   A    
C4    O10   A    
C40   H10   S    
C32   C34   A    
C48   C54   A    
C7    C11   S    
Cr2   O20   S    
C13   O14   A    
C16   O22   A    
C11   H23   S    
Cr2   O14   S    
C2    O8    A    
C7    H25   S    
C4    O5    A    
Cr5   O23   S    
Cr1   O1    S    
Cr5   O26   S    
C39   H15   S    
C13   O19   A    
S4    O37   D    
C12   H30   S    
C2    O3    A    
C42   H12   S    
C15   O13   A    
S3    O33   D    
C31   C35   A    
O32   H32   S    
S2    O32   S    
C9    H27   S    
C47   C55   A    
O41   H35   S    
C5    O11   A    
C11   H29   S    
S5    O40   D    
C37   H7    S    
C5    O6    A    
C6    O12   A    
Cr6   O18   S    
C29   C41   S    
Cr5   O17   S    
C43   C49   A    
Cr6   O12   S    
O35   H33   S    
S1    O29   S    
S4    O38   S    
S2    O31   D    
C16   C45   S    
C13   C48   S    
Cr4   O10   S    
C14   C47   S    
C6    O4    A    
C33   H3    S    
C26   C28   A    
C24   C33   A    
C32   H2    S    
C51   C54   A    
C1    O2    A    
C35   H5    S    
C19   C35   A    
O38   H34   S    
C9    H21   S    
C38   C40   S    
C4    C21   S    
C7    H19   S    
C20   C26   A    
C49   C53   A    
C38   H8    S    
C8    C50   S    
C8    H20   S    
C56   S2    S    
Cr3   O15   S    
C19   C25   A    
C9    C12   S    
C24   C30   A    
C17   C44   S    
S1    O28   D    
S4    O36   D    
C17   O23   A    
C59   S5    S    
C15   O21   A    
Cr4   O4    S    
C1    C24   S    
C8    C10   S    
C46   C56   A    
C2    C23   S    
S3    O34   D    
C28   C40   S    
C30   C42   S    
C3    C22   S    
Cr6   O24   S    
C60   S6    S    
C15   C46   S    
C18   C43   S    
Cr5   O11   S    
Cr2   O25   S    
C12   C54   S    
C36   H6    S    
C23   C31   A    
