data_mof_unit_50385.cif
_audit_creation_date              2012-10-26T20:32:01-0400
_audit_creation_method            fapswitch 2.2
_symmetry_space_group_name_H-M    P1
_symmetry_Int_Tables_number       1
_space_group_crystal_system       triclinic
_cell_length_a                    10.624047
_cell_length_b                    10.830488
_cell_length_c                    9.578333
_cell_angle_alpha                 90.128266
_cell_angle_beta                  90.773048
_cell_angle_gamma                 90.918572
_cell_volume                      1101.8723496

loop_
_atom_site_label
_atom_site_type_symbol
_atom_type_description
_atom_site_fract_x
_atom_site_fract_y
_atom_site_fract_z
_atom_type_partial_charge
C1    C     C_R   0.501035 0.262529 0.499937 0.554836
C2    C     C_R   0.508369 0.936886 0.625669 -0.020395
C3    C     C_3   0.418353 0.927746 0.744043 -0.241977
C4    C     C_R   0.259477 0.500834 0.499132 0.552058
C5    C     C_3   0.418039 0.068482 0.745155 0.015801
C6    C     C_R   0.602928 0.541217 0.074960 0.153827
C7    C     C_R   0.405415 0.442396 0.070868 0.104325
C8    C     C_R   0.405261 0.445351 0.922325 0.018103
C9    C     C_R   0.603454 0.540021 0.928240 0.151807
C10   C     C_3   0.666678 0.663563 0.922325 -0.279679
C11   C     C_3   0.664319 0.665769 0.081096 -0.272259
C12   C     C_3   0.959541 0.604188 0.446155 0.140981
C13   C     C_R   0.501519 0.737609 0.500116 0.543092
C14   C     C_R   0.740495 0.500045 0.500853 0.553660
C15   C     C_3   0.042221 0.395239 0.555167 -0.136828
C16   C     C_3   0.955600 0.404543 0.424346 -0.137415
C17   C     C_3   0.877267 0.500007 0.502283 0.043094
C18   C     C_3   0.961967 0.490921 0.633146 -0.136034
C19   C     C_3   0.045050 0.598001 0.576111 -0.115528
C20   C     C_3   0.207084 0.120806 0.819904 -0.304636
C21   C     C_2   0.303068 0.370629 0.137133 0.208215
C22   C     C_3   0.002010 0.802144 0.334220 -0.316454
C23   C     C_3   0.038565 0.511089 0.366090 -0.076054
C24   C     C_3   0.122722 0.501964 0.497650 0.022603
C25   C     C_R   0.507269 0.063989 0.625341 0.030731
C26   C     C_R   0.510956 0.129617 0.500092 0.011649
C27   C     C_R   0.530651 0.064844 0.375231 -0.174460
C28   C     C_R   0.530730 0.936166 0.375428 -0.163303
C29   C     C_R   0.511736 0.871026 0.500455 0.000993
Cu1   Cu    Cu3+1 0.499990 0.499980 0.640670 0.940066
Cu2   Cu    Cu3+1 0.500010 0.500020 0.359330 0.929574
H1    H     H_    0.916212 0.325208 0.363520 0.123626
H2    H     H_    0.928218 0.481880 0.741898 0.131761
H3    H     H_    0.084076 0.677976 0.636151 0.104718
H4    H     H_    0.071427 0.521291 0.257206 0.163863
H5    H     H_    0.540505 0.112815 0.276772 0.130306
H6    H     H_    0.540012 0.888475 0.277040 0.126894
H7    H     H_    0.327242 0.883116 0.712478 0.139332
H8    H     H_    0.258054 0.087021 0.614237 0.250305
H9    H     H_    0.121946 0.171544 0.786805 0.148118
H10   H     H_    0.248949 0.168119 0.912805 0.183128
H11   H     H_    0.178649 0.025055 0.848330 0.131728
H12   H     H_    0.462155 0.889291 0.839951 0.105747
H13   H     H_    0.318782 0.320993 0.233037 0.162591
H14   H     H_    0.845373 0.758113 0.453048 0.248443
H15   H     H_    0.953860 0.882066 0.286123 0.141819
H16   H     H_    0.058683 0.756818 0.252702 0.157200
H17   H     H_    0.065163 0.836328 0.419817 0.134753
H18   H     H_    0.461737 0.111518 0.840102 0.137381
H19   H     H_    0.329419 0.401421 0.863160 0.172378
H20   H     H_    0.763351 0.658109 0.879980 0.124576
H21   H     H_    0.606829 0.734547 0.873005 0.148357
H22   H     H_    0.759687 0.663326 0.130064 0.160947
H23   H     H_    0.601292 0.737131 0.122951 0.138112
H24   H     H_    0.080274 0.308575 0.598758 0.122640
N1    N     N_R   0.500800 0.500930 0.147930 -0.259936
N2    N     N_R   0.500800 0.500890 0.852020 -0.256124
N3    N     N_2   0.296394 0.119113 0.707346 -0.512849
N4    N     N_2   0.909074 0.716662 0.388359 -0.521099
O1    O     O_R   0.500000 0.319640 0.618810 -0.481728
O2    O     O_R   0.500010 0.319680 0.381230 -0.543545
O3    O     O_R   0.316850 0.499950 0.618770 -0.502634
O4    O     O_R   0.316860 0.499990 0.381190 -0.518304
O5    O     O_R   0.499990 0.680320 0.618770 -0.503061
O6    O     O_R   0.500000 0.680360 0.381190 -0.505565
O7    O     O_R   0.683140 0.500010 0.618810 -0.510277
O8    O     O_R   0.683150 0.500050 0.381230 -0.489517
O9    O     O_2   0.198792 0.363200 0.082201 -0.584482

loop_
_geom_bond_atom_site_label_1
_geom_bond_atom_site_label_2
_ccdc_geom_bond_type
C12   C17   S    
C15   C18   S    
C22   H17   S    
C14   O8    A    
C5    N3    S    
Cu1   O5    S    
Cu2   N1    S    
C2    C25   A    
C21   H13   S    
C9    C10   S    
Cu2   O2    S    
C20   H11   S    
C11   H22   S    
C8    H19   S    
C23   C24   S    
C27   H5    S    
C10   H21   S    
C6    C9    A    
C2    C3    S    
C14   O7    A    
C7    C8    A    
C22   N4    S    
C13   O6    A    
Cu2   O8    S    
C11   H23   S    
C14   C17   S    
C3    H12   S    
C26   C27   A    
Cu1   Cu2   S    
C13   O5    A    
C8    N2    A    
C7    N1    A    
C2    C29   A    
C4    C24   S    
C10   H20   S    
C28   H6    S    
C12   C19   S    
C13   C29   S    
C28   C29   A    
C22   H15   S    
C20   H10   S    
C16   C23   S    
C23   H4    S    
Cu1   O3    S    
C21   O9    D    
C1    C26   S    
C20   H9    S    
C18   H2    S    
C5    C25   S    
C5    H18   S    
C16   H1    S    
C10   C11   S    
C6    C11   S    
C20   N3    S    
C15   C16   S    
C4    O4    A    
Cu1   N2    S    
C4    O3    A    
Cu2   O4    S    
C1    O2    A    
Cu1   O7    S    
Cu1   O1    S    
C9    N2    A    
C17   C18   S    
C18   C19   S    
C1    O1    A    
C27   C28   A    
Cu2   O6    S    
H8    N3    S    
C15   C24   S    
C12   C23   S    
C25   C26   A    
C7    C21   S    
C12   N4    S    
C19   C24   S    
C22   H16   S    
H14   N4    S    
C3    H7    S    
C6    N1    A    
C16   C17   S    
C3    C5    S    
C19   H3    S    
C15   H24   S    
