data_mof_unit_46511.cif
_audit_creation_date              2012-12-11T14:47:52-0500
_audit_creation_method            fapswitch 2.2
_symmetry_space_group_name_H-M    P1
_symmetry_Int_Tables_number       1
_space_group_crystal_system       triclinic
_cell_length_a                    8.247498
_cell_length_b                    15.15548
_cell_length_c                    22.865393
_cell_angle_alpha                 96.758092
_cell_angle_beta                  89.350404
_cell_angle_gamma                 100.335256
_cell_volume                      2792.00681716

loop_
_atom_site_label
_atom_site_type_symbol
_atom_type_description
_atom_site_fract_x
_atom_site_fract_y
_atom_site_fract_z
_atom_type_partial_charge
Ba1   Ba    Ba6+2 0.857590 0.542650 0.472590 1.722404
Ba2   Ba    Ba6+2 0.332250 0.457420 0.527420 1.762854
C1    C     C_3   0.629956 0.854367 0.297258 -0.378866
C2    C     C_3   0.653290 0.780821 0.334589 0.337876
C3    C     C_3   0.449568 0.278402 0.340073 0.749078
C4    C     C_3   0.363025 0.200465 0.294456 0.201904
C5    C     C_3   0.925106 0.192757 0.679757 0.712133
C6    C     C_3   0.956240 0.223377 0.744868 -0.199129
C7    C     C_3   0.491753 0.227444 0.696187 0.297535
C8    C     C_3   0.384183 0.141652 0.712713 -0.261381
C9    C     C_R   0.345204 0.526810 0.332941 -0.258914
C10   C     C_R   0.104048 0.579827 0.940765 -0.089890
C11   C     C_R   0.056536 0.573354 0.880523 0.631323
C12   C     C_3   0.136896 0.741123 0.311956 0.321913
C13   C     C_R   0.956067 0.414710 0.879972 0.583001
C14   C     C_R   0.000068 0.419400 0.939966 -0.001180
C15   C     C_R   0.074836 0.502409 0.970599 -0.060580
C16   C     C_R   0.179588 0.662188 0.971935 -0.109781
C17   C     C_R   0.228672 0.668049 0.031271 0.418808
C18   C     C_R   0.196267 0.590647 0.062133 -0.079200
C19   C     C_R   0.119901 0.507724 0.031246 -0.107014
C20   C     C_R   0.970925 0.342134 0.969922 -0.071221
C21   C     C_R   0.014624 0.347137 0.029143 -0.072242
C22   C     C_R   0.089173 0.429562 0.060603 -0.008507
C23   C     C_3   0.109206 0.770879 0.252158 -0.262267
C24   C     C_R   0.134497 0.434838 0.120578 0.582906
C25   C     C_R   0.238958 0.593550 0.122689 0.596017
C26   C     C_2   0.785925 0.437096 0.768469 -0.079950
C27   C     C_3   0.754441 0.407919 0.703365 -0.089411
C28   C     C_1   0.006149 0.515833 0.685674 0.014724
C29   C     C_2   0.052120 0.523543 0.742257 -0.085439
C30   C     C_2   0.935232 0.484186 0.787813 0.201173
C31   C     C_R   0.413301 0.560485 0.233589 -0.135673
C32   C     C_R   0.458737 0.563294 0.292807 -0.017847
C33   C     C_R   0.187697 0.483691 0.314767 0.007348
C34   C     C_3   0.235316 0.733765 0.597353 0.361078
C35   C     C_R   0.139789 0.481402 0.255324 -0.098298
C36   C     C_R   0.252120 0.520534 0.213816 0.200314
C37   C     C_2   0.866473 0.465340 0.664694 -0.263091
C38   C     C_R   0.752315 0.231898 0.526286 -0.351746
C39   C     C_R   0.848711 0.172333 0.542385 0.037357
C40   C     C_R   0.794696 0.078704 0.529150 -0.071775
C41   C     C_R   0.637429 0.043202 0.502517 -0.033627
C42   C     C_R   0.538874 0.106907 0.489197 0.315467
C43   C     C_R   0.603426 0.200059 0.497151 0.024089
C44   C     C_R   0.451094 0.903538 0.447967 -0.080643
C45   C     C_3   0.267026 0.836276 0.611753 0.224981
C46   C     C_R   0.370678 0.814458 0.448057 -0.012709
C47   C     C_R   0.587181 0.787068 0.508433 0.046556
C48   C     C_R   0.648647 0.880140 0.518736 -0.143602
C49   C     C_R   0.579938 0.941668 0.488992 0.010752
C50   C     C_R   0.446100 0.754870 0.474482 -0.292541
C51   C     C_3   0.955049 0.263417 0.400524 0.351634
C52   C     C_3   0.892745 0.162548 0.380456 0.234636
C53   C     C_3   0.717916 0.656452 0.648128 0.365155
C54   C     C_3   0.729706 0.678659 0.714869 0.254859
H1    H     H_    0.727248 0.811784 0.374517 0.043169
H2    H     H_    0.355934 0.856987 0.649093 0.111656
H3    H     H_    0.319764 0.868374 0.573014 0.003122
H4    H     H_    0.853156 0.294164 0.420945 -0.062617
H5    H     H_    0.055201 0.271658 0.433651 0.081308
H6    H     H_    0.757008 0.147381 0.385784 0.013179
H7    H     H_    0.919321 0.147305 0.332763 0.103168
H8    H     H_    0.837331 0.640999 0.631658 -0.085244
H9    H     H_    0.620109 0.596322 0.637190 0.052600
H10   H     H_    0.751391 0.889805 0.283381 0.116989
H11   H     H_    0.828498 0.738101 0.726791 0.123592
H12   H     H_    0.759858 0.620467 0.734987 -0.022549
H13   H     H_    0.529203 0.749161 0.348594 -0.066121
H14   H     H_    0.564918 0.904042 0.322847 0.091166
H15   H     H_    0.354204 0.313062 0.362688 -0.071057
H16   H     H_    0.267579 0.223267 0.269010 0.016087
H17   H     H_    0.455179 0.176104 0.263813 0.060568
H18   H     H_    0.555045 0.824002 0.257453 0.145336
H19   H     H_    0.088760 0.711259 0.218328 0.116702
H20   H     H_    0.837510 0.232679 0.663770 -0.212251
H21   H     H_    0.011612 0.296264 0.751032 0.101734
H22   H     H_    0.838801 0.212115 0.769287 0.122118
H23   H     H_    0.042678 0.184877 0.762959 0.130595
H24   H     H_    0.599926 0.242761 0.726435 -0.003914
H25   H     H_    0.532110 0.214219 0.649801 0.027112
H26   H     H_    0.459904 0.088118 0.713381 0.126094
H27   H     H_    0.283621 0.116895 0.679908 0.187011
H28   H     H_    0.050146 0.677322 0.316215 0.090507
H29   H     H_    0.331259 0.154410 0.757110 0.119130
H30   H     H_    0.989511 0.285847 0.050275 0.126852
H31   H     H_    0.913740 0.277126 0.947624 0.129221
H32   H     H_    0.504374 0.587508 0.202845 0.107123
H33   H     H_    0.201904 0.723067 0.950317 0.147856
H34   H     H_    0.176364 0.556312 0.755541 0.160076
H35   H     H_    0.695506 0.409424 0.799399 0.110941
H36   H     H_    0.016586 0.448495 0.241389 0.128004
H37   H     H_    0.382538 0.527988 0.378268 0.084603
H38   H     H_    0.265128 0.728628 0.314053 -0.060796
H39   H     H_    0.843489 0.451269 0.617595 0.071561
H40   H     H_    0.410259 0.940450 0.415450 0.157890
H41   H     H_    0.878663 0.035086 0.538611 0.138561
H42   H     H_    0.746483 0.902824 0.550911 0.148780
H43   H     H_    0.388854 0.684427 0.471940 0.066748
H44   H     H_    0.798674 0.303869 0.532759 0.058147
H45   H     H_    0.998866 0.803445 0.252783 0.147226
H46   H     H_    0.218014 0.819914 0.240311 0.134976
H47   H     H_    0.352546 0.711878 0.584662 -0.091315
H48   H     H_    0.146331 0.714704 0.560005 0.051248
N1    N     N_R   0.983358 0.491147 0.850305 -0.424848
N2    N     N_R   0.206097 0.516483 0.151619 -0.429208
O1    O     O_2   0.888680 0.450300 0.360330 -0.405935
O2    O     O_3   0.682471 0.731247 0.623445 -0.578001
O3    O     O_3   0.107960 0.808750 0.356188 -0.590640
O4    O     O_2   0.301020 0.549730 0.639710 -0.430374
O5    O     O_3   0.060450 0.548840 0.568630 -0.515938
O6    O     O_3   0.513610 0.385220 0.603380 -0.476606
O7    O     O_3   0.174958 0.694235 0.647374 -0.585208
O8    O     O_3   0.611400 0.391150 0.470030 -0.476115
O9    O     O_3   0.093990 0.338690 0.574280 -0.488224
O10   O     O_2   0.193241 0.185558 0.546639 -0.380454
O11   O     O_3   0.077438 0.206269 0.651092 -0.579279
O12   O     O_3   0.129270 0.451230 0.431380 -0.510041
O13   O     O_3   0.578310 0.608920 0.529980 -0.504752
O14   O     O_2   0.337770 0.279070 0.470480 -0.430350
O15   O     O_3   0.535520 0.237885 0.379000 -0.620077
O16   O     O_2   0.457230 0.475702 0.706626 -0.454170
O17   O     O_3   0.404115 0.299516 0.702858 -0.560775
O18   O     O_2   0.078558 0.641266 0.855391 -0.558975
O19   O     O_2   0.894075 0.341678 0.854075 -0.626378
O20   O     O_2   0.112713 0.366061 0.144861 -0.600834
O21   O     O_2   0.305190 0.664950 0.149709 -0.576817
O22   O     O_3   0.676100 0.614850 0.396630 -0.475867
O23   O     O_2   0.796497 0.555050 0.293814 -0.497435
O24   O     O_3   0.013340 0.306031 0.351382 -0.654393
O25   O     O_3   0.738445 0.719774 0.301477 -0.599745
O26   O     O_2   0.851930 0.720960 0.529560 -0.437748
O27   O     O_3   0.095720 0.661380 0.425720 -0.505951
O28   O     O_2   0.043383 0.824071 0.468436 -0.447570
P1    P     P_3+3 0.054670 0.423610 0.368990 1.010861
P2    P     P_3+3 0.674060 0.707690 0.546600 1.041080
P3    P     P_3+3 0.154892 0.777827 0.424415 0.975381
P4    P     P_3+3 0.135040 0.576460 0.631020 1.035282
P5    P     P_3+3 0.049705 0.222592 0.577779 1.077359
P6    P     P_3+3 0.668158 0.611019 0.320113 0.975022
P7    P     P_3+3 0.521807 0.277510 0.454047 1.067079
P8    P     P_3+3 0.533193 0.393965 0.680103 0.978923
Cl1   Cl    Cl    0.080036 0.875920 0.630513 -0.579503
O29   O     O_3   0.968824 0.108758 0.414132 -0.618207
C55   C     C_3   0.914499 0.016626 0.393732 0.323953
H49   H     H_    0.959698 0.999440 0.348640 0.098466
H50   H     H_    0.778047 0.997993 0.394118 -0.073059
H51   H     H_    0.964768 0.975059 0.423389 0.130925
Cl2   Cl    Cl    0.538771 0.702564 0.744117 -0.589219
O30   O     O_3   0.568621 0.342907 0.314619 -0.656432
C56   C     C_3   0.523863 0.359765 0.257983 0.088345
H52   H     H_    0.394243 0.369933 0.256068 0.001099
H53   H     H_    0.545910 0.304830 0.223938 0.047628
H54   H     H_    0.605108 0.421100 0.246200 0.110382
Cl3   Cl    Cl    0.265723 0.104755 0.327527 -0.650139
Cl4   Cl    Cl    0.836258 0.075405 0.671269 -0.684423
O31   O     O_3   0.299641 0.751428 0.059738 -0.602058
C57   C     C_3   0.467046 0.769743 0.043881 0.244584
H55   H     H_    0.533680 0.715910 0.054761 0.030634
H56   H     H_    0.526347 0.833940 0.069496 0.083831
H57   H     H_    0.480614 0.778652 0.996364 0.025963
Cl5   Cl    Cl    0.331142 0.075445 0.466008 -0.599289

loop_
_geom_bond_atom_site_label_1
_geom_bond_atom_site_label_2
_ccdc_geom_bond_type
C12   O3    S    
C52   O29   S    
C53   C54   S    
C8    H29   S    
O27   P3    S    
O31   C57   S    
C28   P4    S    
C3    O15   S    
C39   C40   A    
C5    O11   S    
C17   C18   A    
C6    H21   S    
Ba1   O22   S    
C12   H28   S    
Ba1   O26   S    
C41   C49   S    
C24   N2    Am   
O28   P3    D    
C55   H49   S    
Ba2   O12   S    
C5    C6    S    
C51   C52   S    
C4    H16   S    
Ba2   O6    S    
C46   P3    S    
C34   H47   S    
C26   C27   S    
C33   C35   A    
C31   H32   S    
C22   C24   A    
O2    P2    S    
Ba1   O13   S    
C3    C4    S    
C23   H46   S    
C52   H7    S    
C13   C14   A    
C45   Cl1   S    
C8    H27   S    
C34   C45   S    
O3    P3    S    
Ba1   Ba2   S    
C24   O20   D    
C56   H54   S    
O6    P8    S    
C1    H18   S    
O1    P1    D    
O25   P6    S    
C57   H57   S    
C55   H50   S    
C25   O21   D    
C57   H56   S    
C5    Cl4   S    
O24   P1    S    
C14   C15   A    
C21   H30   S    
C2    H1    S    
C6    H23   S    
C21   C22   A    
Ba1   P2    S    
C7    C8    S    
C4    Cl3   S    
O26   P2    D    
O10   P5    D    
C9    H37   S    
C6    H22   S    
O11   P5    S    
C42   Cl5   S    
Ba1   O27   S    
C34   O7    S    
C2    H13   S    
C53   H9    S    
C51   H4    S    
C48   C49   A    
C2    O25   S    
C20   C21   A    
C38   C43   A    
C44   C46   A    
Ba2   O5    S    
C48   H42   S    
C17   O31   S    
O8    P7    S    
O15   P7    S    
O4    P4    D    
C1    H14   S    
C11   N1    Am   
C40   H41   S    
C33   P1    S    
C11   O18   D    
Ba2   O14   S    
C16   C17   A    
C52   H6    S    
C25   N2    Am   
C54   H12   S    
C44   C49   A    
C8    H26   S    
C15   C19   A    
C3    O30   S    
C23   H19   S    
C7    H24   S    
Ba2   P4    S    
C36   N2    S    
C41   C42   A    
C35   C36   A    
Ba2   O9    S    
C29   C30   S    
C26   C30   D    
C56   H52   S    
C47   C50   A    
C53   H8    S    
C27   C37   S    
C31   C32   A    
C20   H31   S    
C10   C11   A    
C37   H39   S    
Ba1   O1    S    
C38   C39   A    
C47   P2    S    
O9    P5    S    
C30   N1    S    
C13   O19   D    
C57   H55   S    
C1    H10   S    
Ba1   O8    S    
O16   P8    D    
C51   H5    S    
C1    C2    S    
C55   H51   S    
C42   C43   A    
C4    H17   S    
Ba2   O4    S    
C14   C20   A    
C35   H36   S    
O30   C56   S    
C16   H33   S    
C9    C32   A    
C29   H34   S    
O14   P7    D    
C31   C36   A    
O29   C55   S    
C38   H44   S    
Ba2   O13   S    
C5    H20   S    
C18   C25   A    
C54   H11   S    
C50   H43   S    
C43   P7    S    
O13   P2    S    
C53   O2    S    
C34   H48   S    
C13   N1    Am   
C9    C33   A    
O22   P6    S    
C3    H15   S    
Ba1   O5    S    
C45   H2    S    
Ba2   O8    S    
C23   H45   S    
C28   C29   D    
O23   P6    D    
C27   P8    S    
O17   P8    S    
C32   P6    S    
C7    O17   S    
C28   C37   D    
C26   H35   S    
Ba1   O12   S    
C56   H53   S    
C12   C23   S    
C39   P5    S    
C45   H3    S    
C10   C15   A    
C46   C50   A    
C44   H40   S    
C18   C19   A    
C47   C48   A    
C40   C41   A    
C19   C22   A    
C10   C16   A    
O7    P4    S    
C51   O24   S    
C54   Cl2   S    
Ba1   P1    S    
C12   H38   S    
O12   P1    S    
O5    P4    S    
C7    H25   S    
