data_mof_unit_13066.cif
_audit_creation_date              2012-12-10T17:03:39-0500
_audit_creation_method            fapswitch 2.2
_symmetry_space_group_name_H-M    P1
_symmetry_Int_Tables_number       1
_space_group_crystal_system       triclinic
_cell_length_a                    10.041819
_cell_length_b                    10.656658
_cell_length_c                    13.175333
_cell_angle_alpha                 90.729689
_cell_angle_beta                  73.169134
_cell_angle_gamma                 93.197787
_cell_volume                      1347.41594601

loop_
_atom_site_label
_atom_site_type_symbol
_atom_type_description
_atom_site_fract_x
_atom_site_fract_y
_atom_site_fract_z
_atom_type_partial_charge
C1    C     C_R   0.506966 0.737211 0.493126 0.931046
C2    C     C_R   0.404533 0.584635 0.803788 -0.112212
C3    C     C_2   0.510242 0.069633 0.407425 0.134573
C4    C     C_R   0.430065 0.525610 0.698657 0.878342
C5    C     C_2   0.478031 0.129472 0.502319 -0.048000
C6    C     C_2   0.489689 0.933164 0.405707 0.218260
C7    C     C_2   0.528830 0.869167 0.478048 -0.416537
C8    C     C_2   0.088263 0.415260 0.452309 -0.145820
C9    C     C_2   0.939808 0.418086 0.448892 -0.127922
C10   C     C_R   0.494802 0.262762 0.502141 0.944295
C11   C     C_R   0.574000 0.498298 0.296735 0.874382
C12   C     C_R   0.473250 0.606003 0.964810 0.105734
C13   C     C_R   0.803118 0.513585 0.017286 0.225137
C14   C     C_R   0.615302 0.505789 0.181298 -0.147941
C15   C     C_R   0.275095 0.631681 0.854918 -0.210318
C16   C     C_R   0.248937 0.676211 0.958598 -0.158118
C17   C     C_R   0.344188 0.658052 0.015085 -0.132225
C18   C     C_3   0.380170 0.132123 0.698470 -0.780427
C19   C     C_3   0.531041 0.838306 0.232560 -0.759218
C20   C     C_3   0.917108 0.430526 0.748537 -0.726629
C21   C     C_3   0.022668 0.408709 0.999027 -0.781471
C22   C     C_3   0.328061 0.367120 0.171897 -0.737279
C23   C     C_R   0.511727 0.597033 0.854655 0.062267
C24   C     C_3   0.715118 0.141286 0.268549 -0.806019
C25   C     C_R   0.566902 0.565795 0.018869 -0.056712
C26   C     C_R   0.709704 0.550588 0.961792 0.018260
C27   C     C_R   0.753166 0.573188 0.851059 0.175704
C28   C     C_R   0.654993 0.602013 0.800452 -0.256899
C29   C     C_R   0.518179 0.528091 0.125582 0.156726
C30   C     C_R   0.755652 0.498501 0.126738 -0.302294
H1    H     H_    0.829395 0.480587 0.169905 0.190223
H2    H     H_    0.591112 0.916489 0.523882 0.162253
H3    H     H_    0.148483 0.338297 0.412279 0.164291
H4    H     H_    0.094065 0.574374 0.533507 0.163115
H5    H     H_    0.903868 0.346193 0.402567 0.154878
H6    H     H_    0.884704 0.565510 0.544574 0.151587
H7    H     H_    0.928174 0.623483 0.727818 0.197377
H8    H     H_    0.029786 0.422764 0.708159 0.251931
H9    H     H_    0.856790 0.406285 0.691811 0.237925
H10   H     H_    0.885945 0.361625 0.814899 0.259083
H11   H     H_    0.998837 0.589448 0.945984 0.230288
H12   H     H_    0.312392 0.013137 0.593135 0.236042
H13   H     H_    0.118377 0.390545 0.934200 0.255612
H14   H     H_    0.958245 0.319137 0.017725 0.238381
H15   H     H_    0.054133 0.441980 0.069380 0.235248
H16   H     H_    0.318954 0.552124 0.233236 0.246179
H17   H     H_    0.212496 0.357577 0.195233 0.218530
H18   H     H_    0.365216 0.314858 0.229714 0.234798
H19   H     H_    0.368760 0.325929 0.091674 0.245445
H20   H     H_    0.196790 0.636743 0.813583 0.164377
H21   H     H_    0.317900 0.689436 0.096342 0.126980
H22   H     H_    0.152597 0.719826 0.997212 0.134131
H23   H     H_    0.332852 0.065677 0.765004 0.237297
H24   H     H_    0.693847 0.628901 0.717937 0.177744
H25   H     H_    0.523192 0.220560 0.304811 0.210657
H26   H     H_    0.747606 0.184061 0.188094 0.238585
H27   H     H_    0.755363 0.045662 0.263086 0.249044
H28   H     H_    0.761432 0.199981 0.321181 0.240921
H29   H     H_    0.309701 0.210306 0.704046 0.246151
H30   H     H_    0.482400 0.169411 0.706065 0.248341
H31   H     H_    0.353384 0.805870 0.359135 0.238642
H32   H     H_    0.476078 0.793178 0.178748 0.219408
H33   H     H_    0.602194 0.770854 0.249725 0.225951
H34   H     H_    0.592577 0.921795 0.191015 0.268702
N1    N     N_2   0.148270 0.498670 0.498870 -0.201142
N2    N     N_2   0.852610 0.498640 0.498840 -0.198257
N3    N     N_2   0.398829 0.066709 0.598651 -0.329308
N4    N     N_2   0.430342 0.874893 0.329530 -0.294210
N5    N     N_2   0.892260 0.557409 0.787424 -0.311585
N6    N     N_2   0.947046 0.503470 0.964565 -0.277914
N7    N     N_2   0.372620 0.498532 0.170664 -0.303513
N8    N     N_2   0.564765 0.135233 0.308831 -0.294718
O1    O     O_R   0.386950 0.680940 0.500020 -0.627151
O2    O     O_R   0.613110 0.680900 0.499980 -0.622739
O3    O     O_R   0.330780 0.500000 0.653640 -0.612761
O4    O     O_R   0.556930 0.499960 0.653610 -0.620062
O5    O     O_R   0.386890 0.319100 0.500020 -0.618885
O6    O     O_R   0.613050 0.319060 0.499980 -0.611515
O7    O     O_R   0.443070 0.500040 0.346390 -0.614963
O8    O     O_R   0.669220 0.500000 0.346360 -0.612849
Zn1   Zn    Zn3+2 0.349000 0.500030 0.500020 0.912476
Zn2   Zn    Zn3+2 0.651000 0.499970 0.499980 0.920292

loop_
_geom_bond_atom_site_label_1
_geom_bond_atom_site_label_2
_ccdc_geom_bond_type
C8    C9    S    
C22   H18   S    
H7    N5    S    
C5    N3    S    
C3    C6    S    
C17   H21   S    
C10   O6    A    
C12   C23   A    
C26   C27   A    
C1    O2    A    
C14   C30   A    
C30   H1    S    
C20   H10   S    
C11   C14   S    
H6    N2    S    
C13   N6    S    
C19   H32   S    
C15   C16   A    
C15   H20   S    
C9    N2    D    
C4    O3    A    
C18   H23   S    
C21   H13   S    
C19   H33   S    
C24   H27   S    
C12   C17   A    
H25   N8    S    
C27   N5    S    
C6    N4    S    
C22   H17   S    
C8    N1    D    
O2    Zn2   S    
H4    N1    S    
O1    Zn1   S    
C10   O5    A    
C21   H15   S    
C25   C29   A    
C13   C30   A    
O8    Zn2   S    
O4    Zn2   S    
O7    Zn1   S    
C20   H9    S    
C28   H24   S    
C16   C17   A    
C18   N3    S    
C2    C4    S    
N2    Zn2   S    
C21   H14   S    
C20   H8    S    
O6    Zn2   S    
N1    Zn1   S    
O5    Zn1   S    
C19   H34   S    
C19   N4    S    
C23   C28   A    
C2    C15   A    
H16   N7    S    
C11   O7    A    
C22   H19   S    
C18   H30   S    
H12   N3    S    
C20   N5    S    
C14   C29   A    
C22   N7    S    
C2    C23   A    
C24   N8    S    
C7    H2    S    
C1    C7    S    
O3    Zn1   S    
C16   H22   S    
C3    C5    D    
C6    C7    D    
C24   H26   S    
C21   N6    S    
C12   C25   A    
C1    O1    A    
C3    N8    S    
C25   C26   A    
C5    C10   S    
H31   N4    S    
C8    H3    S    
C13   C26   A    
C4    O4    A    
C11   O8    A    
C18   H29   S    
C24   H28   S    
C27   C28   A    
C9    H5    S    
H11   N6    S    
C29   N7    S    
