data_mof_unit_25855.cif
_audit_creation_date              2012-12-11T16:44:24-0500
_audit_creation_method            fapswitch 2.2
_symmetry_space_group_name_H-M    P1
_symmetry_Int_Tables_number       1
_space_group_crystal_system       triclinic
_cell_length_a                    27.154122
_cell_length_b                    7.213364
_cell_length_c                    22.805993
_cell_angle_alpha                 89.702821
_cell_angle_beta                  101.439737
_cell_angle_gamma                 89.842977
_cell_volume                      4378.23367417

loop_
_atom_site_label
_atom_site_type_symbol
_atom_type_description
_atom_site_fract_x
_atom_site_fract_y
_atom_site_fract_z
_atom_type_partial_charge
O1    O     O_R   0.707300 0.594030 0.176840 -0.529501
O2    O     O_R   0.292700 0.405970 0.823160 -0.529501
O3    O     O_R   0.792700 0.094030 0.323160 -0.535331
O4    O     O_R   0.207300 0.905970 0.676840 -0.535332
O5    O     O_R   0.697330 0.262360 0.295660 -0.516741
O6    O     O_R   0.302670 0.737640 0.704340 -0.516740
O7    O     O_R   0.802670 0.762360 0.204340 -0.513202
O8    O     O_R   0.197330 0.237640 0.795660 -0.513202
C1    C     C_R   0.685200 0.431905 0.312384 0.724254
C2    C     C_R   0.314800 0.568095 0.687616 0.724254
C3    C     C_R   0.814691 0.932022 0.187482 0.709384
C4    C     C_R   0.185309 0.067977 0.812517 0.709384
O9    O     O_R   0.701410 0.264250 0.175600 -0.544603
O10   O     O_R   0.298590 0.735750 0.824400 -0.544603
O11   O     O_R   0.798590 0.764250 0.324400 -0.523552
O12   O     O_R   0.201410 0.235750 0.675600 -0.523553
O13   O     O_R   0.796800 0.094950 0.202240 -0.544927
O14   O     O_R   0.203200 0.905050 0.797760 -0.544927
O15   O     O_R   0.703200 0.594950 0.297760 -0.538460
O16   O     O_R   0.296800 0.405050 0.702240 -0.538460
C5    C     C_R   0.689968 0.432980 0.153373 0.727160
C6    C     C_R   0.310032 0.567019 0.846626 0.727159
C7    C     C_R   0.810082 0.931526 0.346757 0.725857
C8    C     C_R   0.189918 0.068473 0.653243 0.725858
O17   O     O_3   0.781290 0.427390 0.258880 -0.373674
O18   O     O_3   0.218710 0.572610 0.741120 -0.373675
O19   O     O_3   0.718710 0.927390 0.241120 -0.377861
O20   O     O_3   0.281290 0.072610 0.758880 -0.377860
V1    V     V_3+5 0.744190 0.152150 0.248350 1.442800
V2    V     V_3+5 0.255810 0.847850 0.751650 1.442800
V3    V     V_3+5 0.755810 0.652150 0.251650 1.478059
V4    V     V_3+5 0.244190 0.347850 0.748350 1.478060
C9    C     C_R   0.155436 0.069058 0.594075 -0.058118
C10   C     C_R   0.844564 0.930942 0.405925 -0.058120
C11   C     C_R   0.344356 0.560338 0.905624 -0.047430
C12   C     C_R   0.655644 0.439661 0.094376 -0.047431
C13   C     C_R   0.136177 0.175155 0.491136 -0.179477
C14   C     C_R   0.863823 0.824838 0.508863 -0.179477
C15   C     C_R   0.359287 0.600757 0.012907 -0.170435
C16   C     C_R   0.640712 0.399227 0.987093 -0.170437
C17   C     C_R   0.170581 0.154804 0.545222 0.186516
C18   C     C_R   0.829419 0.845191 0.454777 0.186516
C19   C     C_R   0.326033 0.599822 0.957499 0.175687
C20   C     C_R   0.673966 0.400164 0.042501 0.175687
C21   C     C_R   0.105615 0.007493 0.588338 -0.256460
C22   C     C_R   0.894385 0.992509 0.411663 -0.256461
C23   C     C_R   0.395793 0.523993 0.909617 -0.264502
C24   C     C_R   0.604208 0.476016 0.090383 -0.264504
C25   C     C_R   0.069329 0.033742 0.534220 0.058387
C26   C     C_R   0.930671 0.966256 0.465780 0.058386
C27   C     C_R   0.430503 0.527941 0.965447 0.052824
C28   C     C_R   0.569497 0.472065 0.034552 0.052824
C29   C     C_R   0.085895 0.117358 0.485000 0.087537
C30   C     C_R   0.914105 0.882637 0.515000 0.087540
C31   C     C_R   0.411071 0.566721 0.017550 0.102199
C32   C     C_R   0.588930 0.433273 0.982450 0.102200
C33   C     C_R   0.017209 0.983560 0.527733 0.028906
C34   C     C_R   0.982791 0.016437 0.472267 0.028906
C35   C     C_R   0.483645 0.496348 0.971196 0.035496
C36   C     C_R   0.516355 0.503662 0.028803 0.035496
C37   C     C_R   0.001616 0.096837 0.424749 -0.206462
C38   C     C_R   0.998384 0.903157 0.575251 -0.206464
C39   C     C_R   0.494875 0.541755 0.078905 -0.230312
C40   C     C_R   0.505126 0.458256 0.921094 -0.230311
C41   C     C_R   0.052037 0.146397 0.430404 0.193838
C42   C     C_R   0.947963 0.853595 0.569595 0.193836
C43   C     C_R   0.443468 0.572605 0.073781 0.179890
C44   C     C_R   0.556532 0.427393 0.926218 0.179889
H1    H     H_    0.903693 0.053443 0.372110 0.107296
H2    H     H_    0.096306 0.946564 0.627891 0.107294
H3    H     H_    0.592737 0.503710 0.132036 0.102745
H4    H     H_    0.407264 0.496311 0.867963 0.102744
H5    H     H_    0.148877 0.241226 0.454094 0.151288
H6    H     H_    0.851123 0.758765 0.545905 0.151289
H7    H     H_    0.344377 0.630879 0.052492 0.160390
H8    H     H_    0.655622 0.369097 0.947509 0.160390
H9    H     H_    0.977930 0.122979 0.381857 0.118113
H10   H     H_    0.022070 0.877012 0.618143 0.118114
H11   H     H_    0.516952 0.549220 0.123529 0.124504
H12   H     H_    0.483049 0.450795 0.876470 0.124504
C45   C     C_R   0.881731 0.102504 0.147997 -0.242003
C46   C     C_R   0.118269 0.897495 0.852002 -0.242005
C47   C     C_R   0.617979 0.603297 0.351380 -0.243539
C48   C     C_R   0.382022 0.396703 0.648621 -0.243538
C49   C     C_R   0.917244 0.117062 0.111458 -0.184033
C50   C     C_R   0.082756 0.882936 0.888541 -0.184033
C51   C     C_R   0.582377 0.618072 0.387800 -0.185991
C52   C     C_R   0.417625 0.381928 0.612202 -0.185988
C53   C     C_R   0.925036 0.970645 0.074251 0.126192
C54   C     C_R   0.074964 0.029353 0.925748 0.126192
C55   C     C_R   0.574374 0.470875 0.425007 0.123942
C56   C     C_R   0.425629 0.529126 0.574997 0.123941
C57   C     C_R   0.896409 0.807972 0.073476 0.158830
C58   C     C_R   0.103590 0.192027 0.926523 0.158829
C59   C     C_R   0.602781 0.307129 0.425810 0.159709
C60   C     C_R   0.397222 0.692874 0.574194 0.159708
C61   C     C_R   0.859899 0.793105 0.110053 0.134983
C62   C     C_R   0.140100 0.206895 0.889946 0.134984
C63   C     C_R   0.639387 0.292098 0.389390 0.147288
C64   C     C_R   0.360616 0.707903 0.610612 0.147288
C65   C     C_R   0.852726 0.941214 0.148237 -0.064564
C66   C     C_R   0.147274 0.058786 0.851763 -0.064564
C67   C     C_R   0.646888 0.441051 0.351299 -0.060771
C68   C     C_R   0.353113 0.558949 0.648702 -0.060771
C69   C     C_R   0.007423 0.880670 0.049449 -0.239734
C70   C     C_R   0.992576 0.119327 0.950550 -0.239734
C71   C     C_R   0.492002 0.383718 0.450231 -0.239724
C72   C     C_R   0.508001 0.616282 0.549773 -0.239722
C73   C     C_R   0.044028 0.892006 0.013749 0.200076
C74   C     C_R   0.955971 0.107992 0.986250 0.200075
C75   C     C_R   0.455762 0.394485 0.486424 0.201617
C76   C     C_R   0.544241 0.605515 0.513580 0.201617
C77   C     C_R   0.036589 0.011814 0.963778 0.105803
C78   C     C_R   0.963410 0.988184 0.036221 0.105803
C79   C     C_R   0.463789 0.511176 0.536723 0.105948
C80   C     C_R   0.536214 0.488824 0.463281 0.105948
N1    N     N_3   0.069063 0.228052 0.380229 -0.677578
H13   H     H_    0.038779 0.263509 0.345994 0.228717
H14   H     H_    0.089792 0.126956 0.362926 0.223655
N2    N     N_3   0.930938 0.771934 0.619769 -0.677579
H15   H     H_    0.961222 0.736466 0.654003 0.228718
H16   H     H_    0.910211 0.873030 0.637076 0.223656
N3    N     N_3   0.424236 0.611077 0.126702 -0.688331
H17   H     H_    0.442330 0.729044 0.146860 0.232264
H18   H     H_    0.433525 0.499652 0.156390 0.232022
N4    N     N_3   0.575763 0.388918 0.873297 -0.688333
H19   H     H_    0.566488 0.500370 0.843618 0.232023
H20   H     H_    0.557659 0.270986 0.853129 0.232265
H21   H     H_    0.013467 0.788204 0.087837 0.132816
H22   H     H_    0.986532 0.211794 0.912162 0.132816
H23   H     H_    0.485541 0.293478 0.411634 0.132132
H24   H     H_    0.514462 0.706522 0.588370 0.132132
N5    N     N_3   0.089262 0.784979 0.029129 -0.673904
H25   H     H_    0.079181 0.645961 0.031771 0.242828
H26   H     H_    0.107746 0.824993 0.071818 0.231647
N6    N     N_3   0.910737 0.215019 0.970870 -0.673902
H27   H     H_    0.892253 0.175006 0.928181 0.231647
H28   H     H_    0.920818 0.354037 0.968228 0.242828
N7    N     N_3   0.410296 0.290143 0.471220 -0.674522
H29   H     H_    0.420073 0.150857 0.468137 0.242112
H30   H     H_    0.391612 0.333186 0.428753 0.231272
N8    N     N_3   0.589707 0.709857 0.528784 -0.674523
H31   H     H_    0.608392 0.666815 0.571251 0.231272
H32   H     H_    0.579930 0.849143 0.531867 0.242112
N9    N     N_3   0.779136 0.774980 0.448645 -0.653758
H33   H     H_    0.754795 0.888788 0.443119 0.221990
H34   H     H_    0.774447 0.707123 0.487779 0.225293
N10   N     N_3   0.220864 0.225012 0.551354 -0.653759
H35   H     H_    0.245205 0.111203 0.556881 0.221989
H36   H     H_    0.225553 0.292867 0.512220 0.225293
N11   N     N_3   0.726539 0.361959 0.046421 -0.670509
H37   H     H_    0.734216 0.232398 0.067021 0.232885
H38   H     H_    0.734872 0.350701 0.003743 0.224569
N12   N     N_3   0.273460 0.638018 0.953579 -0.670511
H39   H     H_    0.265782 0.767579 0.932980 0.232883
H40   H     H_    0.265127 0.649269 0.996258 0.224569
H41   H     H_    0.877336 0.217830 0.176753 0.144494
H42   H     H_    0.122664 0.782169 0.823247 0.144493
H43   H     H_    0.622580 0.719355 0.322671 0.143335
H44   H     H_    0.377420 0.280644 0.677330 0.143336
H45   H     H_    0.939259 0.242441 0.112737 0.125845
H46   H     H_    0.060741 0.757557 0.887262 0.125845
H47   H     H_    0.560519 0.744329 0.386498 0.125836
H48   H     H_    0.439482 0.255670 0.613505 0.125835
N13   N     N_3   0.904192 0.659882 0.034585 -0.685557
H49   H     H_    0.870471 0.634037 0.004732 0.238268
H50   H     H_    0.914689 0.541138 0.060493 0.230185
N14   N     N_3   0.095806 0.340117 0.965414 -0.685557
H51   H     H_    0.085309 0.458860 0.939505 0.230185
H52   H     H_    0.129527 0.365963 0.995267 0.238267
N15   N     N_3   0.594755 0.158195 0.464689 -0.685373
H53   H     H_    0.628361 0.130563 0.494739 0.237287
H54   H     H_    0.584265 0.040450 0.438814 0.230012
N16   N     N_3   0.405250 0.841809 0.535317 -0.685373
H55   H     H_    0.415740 0.959553 0.561193 0.230012
H56   H     H_    0.371644 0.869445 0.505266 0.237287
N17   N     N_3   0.829027 0.630965 0.106997 -0.633328
H57   H     H_    0.808955 0.616657 0.063182 0.246392
H58   H     H_    0.852166 0.514961 0.118106 0.228888
N18   N     N_3   0.170972 0.369036 0.893002 -0.633327
H59   H     H_    0.191043 0.383346 0.936817 0.246393
H60   H     H_    0.147832 0.485039 0.881892 0.228886
N19   N     N_3   0.670215 0.129180 0.392790 -0.654986
H61   H     H_    0.689882 0.113678 0.436797 0.218385
H62   H     H_    0.647066 0.014077 0.381607 0.228612
N20   N     N_3   0.329788 0.870823 0.607212 -0.654985
H63   H     H_    0.310121 0.886328 0.563205 0.218386
H64   H     H_    0.352936 0.985924 0.618396 0.228612

loop_
_geom_bond_atom_site_label_1
_geom_bond_atom_site_label_2
_ccdc_geom_bond_type
O17   V3    S    
C51   H47   S    
N15   H53   S    
C25   C29   A    
O1    C5    A    
N13   H49   S    
C51   C55   A    
O19   V1    S    
C9    C21   A    
O3    C7    A    
C10   C18   A    
O1    V3    S    
C11   C23   A    
N9    H33   S    
C48   H44   S    
C75   N7    S    
C33   C38   A    
C5    C12   S    
C39   H11   S    
N2    H15   S    
O7    C3    A    
C6    C11   S    
N15   H54   S    
C35   C40   A    
C26   C30   A    
C47   C67   A    
C36   C39   A    
C40   C44   A    
C72   C79   A    
O9    V1    S    
N10   H36   S    
C14   C18   A    
N1    H14   S    
O16   V4    S    
O4    C8    A    
C59   C63   A    
N14   H52   S    
N3    H18   S    
C58   C62   A    
C56   C60   A    
O13   V1    S    
C55   C80   S    
O2    V4    S    
C54   C77   S    
C76   N8    S    
O3    V1    S    
N16   H55   S    
C22   H1    S    
C13   H5    S    
C28   C36   A    
C74   N6    S    
C1    O15   A    
C64   C68   A    
C15   C31   A    
C52   C56   A    
C2    O16   A    
O20   V2    S    
C16   C32   A    
O2    C6    A    
N11   H37   S    
C10   C22   A    
C15   H7    S    
C19   N12   S    
C11   C19   A    
O15   V3    S    
C74   C78   A    
C16   C20   A    
C63   N19   S    
C73   C77   A    
C13   C29   A    
C34   C37   A    
O11   C7    A    
C57   N13   S    
C35   C36   A    
O12   C8    A    
C42   N2    S    
C53   C57   A    
C40   H12   S    
C71   C75   A    
O10   V2    S    
N9    H34   S    
N18   H60   S    
C45   C49   A    
C54   C58   A    
O5    V1    S    
C23   H4    S    
C39   C43   A    
C20   N11   S    
C45   H41   S    
C38   C42   A    
C70   C77   A    
C73   N5    S    
C26   C34   A    
C69   C78   A    
N3    H17   S    
O7    V3    S    
N10   H35   S    
C71   H23   S    
C63   C67   A    
C50   C54   A    
C58   N14   S    
C49   C53   A    
O18   V4    S    
C15   C19   A    
N17   H58   S    
C62   C66   A    
C72   C76   A    
O8    V4    S    
C64   N20   S    
N19   H61   S    
C4    C66   S    
C23   C27   A    
C57   C61   A    
C61   N17   S    
C14   C30   A    
C21   C25   A    
O8    C4    A    
C7    C10   S    
C46   C66   A    
O9    C5    A    
C3    C65   S    
N12   H39   S    
C60   N16   S    
C50   H46   S    
N6    H28   S    
N14   H51   S    
O6    V2    S    
C37   H9    S    
N5    H25   S    
C48   C68   A    
N8    H32   S    
C12   C20   A    
C27   C35   A    
C24   H3    S    
C62   N18   S    
C44   N4    S    
C76   C80   A    
C29   C41   A    
N18   H59   S    
N2    H16   S    
C70   C74   A    
C70   H22   S    
C69   C73   A    
C53   C78   S    
C3    O13   A    
N4    H20   S    
C49   H45   S    
C21   H2    S    
N12   H40   S    
C38   H10   S    
C48   C52   A    
O5    C1    A    
N6    H27   S    
C43   N3    S    
C47   C51   A    
O6    C2    A    
C25   C33   A    
C69   H21   S    
N7    H29   S    
O11   V3    S    
C30   C42   A    
O12   V4    S    
C22   C26   A    
C8    C9    S    
C32   C44   A    
O10   C6    A    
N19   H62   S    
C9    C17   A    
C31   C43   A    
C52   H48   S    
N1    H13   S    
C46   C50   A    
N7    H30   S    
C33   C34   A    
C17   N10   S    
C59   N15   S    
N4    H19   S    
C46   H42   S    
C60   C64   A    
C2    C68   S    
C1    C67   S    
N16   H56   S    
C14   H6    S    
C12   C24   A    
C27   C31   A    
N11   H38   S    
C13   C17   A    
C56   C79   S    
C61   C65   A    
C71   C80   A    
C72   H24   S    
O14   V2    S    
C55   C59   A    
C37   C41   A    
C24   C28   A    
C47   H43   S    
N13   H50   S    
N17   H57   S    
C16   H8    S    
C4    O14   A    
N5    H26   S    
C41   N1    S    
N8    H31   S    
C45   C65   A    
C75   C79   A    
N20   H63   S    
C18   N9    S    
N20   H64   S    
O4    V2    S    
C28   C32   A    
