data_mof_unit_56760.cif
_audit_creation_date              2012-12-10T17:50:38-0500
_audit_creation_method            fapswitch 2.2
_symmetry_space_group_name_H-M    P1
_symmetry_Int_Tables_number       1
_space_group_crystal_system       triclinic
_cell_length_a                    15.719483
_cell_length_b                    10.728648
_cell_length_c                    9.890273
_cell_angle_alpha                 89.306848
_cell_angle_beta                  89.971921
_cell_angle_gamma                 91.740195
_cell_volume                      1667.0907861

loop_
_atom_site_label
_atom_site_type_symbol
_atom_type_description
_atom_site_fract_x
_atom_site_fract_y
_atom_site_fract_z
_atom_type_partial_charge
C1    C     C_R   0.505142 0.259849 0.501897 0.864422
C2    C     C_3   0.082805 0.499726 0.499299 0.100352
C3    C     C_3   0.973873 0.597160 0.571250 -0.210116
C4    C     C_3   0.917311 0.500137 0.498672 0.104043
C5    C     C_3   0.030502 0.606704 0.443583 0.179100
C6    C     C_3   0.972499 0.510202 0.371346 0.182880
C7    C     C_1   0.173688 0.499072 0.499910 -0.005821
C8    C     C_1   0.826388 0.500241 0.499419 -0.000791
C9    C     C_R   0.516019 0.107618 0.761515 -0.160302
C10   C     C_R   0.488262 0.044629 0.878395 -0.145198
C11   C     C_R   0.443413 0.931638 0.868100 -0.152787
C12   C     C_R   0.337948 0.499478 0.500027 0.884085
C13   C     C_R   0.434146 0.875995 0.742218 -0.143354
C14   C     C_R   0.469614 0.933950 0.624595 0.097368
C15   C     C_R   0.498545 0.058097 0.631474 0.094440
C16   C     C_R   0.508281 0.125838 0.507413 -0.117758
C17   C     C_R   0.507291 0.064234 0.383624 -0.214347
C18   C     C_R   0.496575 0.937329 0.380892 -0.204558
C19   C     C_R   0.480385 0.871311 0.500957 -0.122328
C20   C     C_R   0.388254 0.336153 0.142234 -0.157907
C21   C     C_R   0.333333 0.255541 0.072807 -0.198561
C22   C     C_R   0.333242 0.255914 0.932908 -0.174320
C23   C     C_R   0.491335 0.738875 0.499784 0.885684
C24   C     C_R   0.388265 0.336598 0.861657 -0.153183
C25   C     C_R   0.444998 0.419279 0.928630 0.149315
C26   C     C_R   0.445014 0.419210 0.073362 0.167350
C27   C     C_R   0.552324 0.577674 0.070502 -0.108016
C28   C     C_R   0.552295 0.577647 0.927241 -0.106479
C29   C     C_R   0.662068 0.500363 0.499978 0.913026
C30   C     C_3   0.969486 0.392713 0.554581 -0.170619
C31   C     C_3   0.026269 0.402730 0.426677 -0.218143
C32   C     C_1   0.249005 0.499088 0.500095 -0.160478
C33   C     C_1   0.751051 0.500314 0.499822 -0.161952
C34   C     C_3   0.027767 0.489654 0.627129 -0.162884
H1    H     H_    0.049710 0.323458 0.367496 0.171914
H2    H     H_    0.418355 0.885070 0.957994 0.146165
H3    H     H_    0.398908 0.787930 0.737907 0.165317
H4    H     H_    0.502580 0.890997 0.284717 0.170433
H5    H     H_    0.595008 0.641114 0.123573 0.154971
H6    H     H_    0.384005 0.330583 0.249437 0.206667
H7    H     H_    0.290552 0.192461 0.128085 0.164152
H8    H     H_    0.290615 0.192822 0.879055 0.162457
H9    H     H_    0.384898 0.330583 0.754526 0.208448
H10   H     H_    0.594924 0.641125 0.872384 0.159750
H11   H     H_    0.942406 0.305108 0.600088 0.163236
H12   H     H_    0.950478 0.676680 0.630080 0.173522
H13   H     H_    0.052487 0.481161 0.731866 0.171152
H14   H     H_    0.516007 0.113756 0.288196 0.172844
H15   H     H_    0.553520 0.192293 0.776050 0.174512
H16   H     H_    0.500084 0.084900 0.976749 0.146002
N1    N     N_R   0.499210 0.498800 0.142780 -0.122978
N2    N     N_R   0.499180 0.498720 0.857170 -0.128158
O1    O     O_R   0.500000 0.316780 0.614690 -0.655861
O2    O     O_R   0.499990 0.316750 0.385360 -0.640718
O3    O     O_R   0.376780 0.500000 0.614650 -0.639205
O4    O     O_R   0.376770 0.499980 0.385310 -0.625571
O5    O     O_R   0.500010 0.683250 0.614640 -0.626219
O6    O     O_R   0.500000 0.683220 0.385310 -0.618844
O7    O     O_R   0.623230 0.500020 0.614690 -0.611795
O8    O     O_R   0.623220 0.500000 0.385350 -0.600178
Zn1   Zn    Zn3+2 0.500010 0.500020 0.653130 0.931499
Zn2   Zn    Zn3+2 0.499990 0.499980 0.346870 0.949377
I1    I     I_    0.926119 0.523057 0.168597 -0.345898
I2    I     I_    0.081781 0.777358 0.359187 -0.349156

loop_
_geom_bond_atom_site_label_1
_geom_bond_atom_site_label_2
_ccdc_geom_bond_type
C6    I1    S    
O6    Zn2   S    
C23   O6    A    
C19   C23   S    
C1    O2    A    
C29   O8    A    
C24   C25   A    
O5    Zn1   S    
C34   H13   S    
C13   C14   A    
C28   N2    A    
C9    C10   A    
C29   O7    A    
C30   H11   S    
C13   H3    S    
C2    C7    S    
C17   H14   S    
C30   C31   S    
C4    C8    S    
C2    C34   S    
C17   C18   A    
C18   H4    S    
C25   N2    A    
C1    C16   S    
C12   O4    A    
C21   C22   A    
C12   C32   S    
C11   C13   A    
C22   H8    S    
N1    Zn2   S    
C20   C26   A    
C21   H7    S    
O3    Zn1   S    
C31   H1    S    
C4    C6    S    
C11   H2    S    
C27   N1    A    
C6    C31   S    
C22   C24   A    
N2    Zn1   S    
C9    C15   A    
C5    C6    S    
C20   H6    S    
O4    Zn2   S    
O7    Zn1   S    
C12   O3    A    
C16   C17   A    
C10   C11   A    
C30   C34   S    
O1    Zn1   S    
C3    C4    S    
C2    C5    S    
C29   C33   S    
C9    H15   S    
C20   C21   A    
O8    Zn2   S    
C18   C19   A    
C27   C28   A    
C23   O5    A    
C24   H9    S    
C1    O1    A    
C14   C15   A    
C2    C31   S    
C7    C32   T    
C3    H12   S    
C3    C34   S    
C25   C26   A    
C26   N1    A    
O2    Zn2   S    
C14   C19   A    
C28   H10   S    
C4    C30   S    
C15   C16   A    
C5    I2    S    
C27   H5    S    
C8    C33   T    
C3    C5    S    
C10   H16   S    
