data_mof_unit_62199.cif
_audit_creation_date              2012-12-10T17:23:33-0500
_audit_creation_method            fapswitch 2.2
_symmetry_space_group_name_H-M    P1
_symmetry_Int_Tables_number       1
_space_group_crystal_system       triclinic
_cell_length_a                    18.700465
_cell_length_b                    18.902612
_cell_length_c                    18.971371
_cell_angle_alpha                 110.056931
_cell_angle_beta                  109.305172
_cell_angle_gamma                 109.375302
_cell_volume                      5141.46081543

loop_
_atom_site_label
_atom_site_type_symbol
_atom_type_description
_atom_site_fract_x
_atom_site_fract_y
_atom_site_fract_z
_atom_type_partial_charge
C1    C     C_R   0.381978 0.501143 0.381565 0.858511
C2    C     C_R   0.818735 0.816684 0.572704 -0.010403
C3    C     C_3   0.874555 0.866311 0.669012 0.613593
C4    C     C_3   0.799757 0.797893 0.668360 0.166343
C5    C     C_R   0.243390 0.425000 0.244556 0.304726
C6    C     C_R   0.180796 0.425048 0.179781 0.314980
C7    C     C_R   0.188584 0.504412 0.187718 -0.229323
C8    C     C_R   0.262012 0.585603 0.259835 0.087189
C9    C     C_R   0.326871 0.585476 0.325033 0.085298
C10   C     C_R   0.316725 0.504200 0.315966 -0.223042
C11   C     C_R   0.323963 0.245807 0.503880 0.306183
C12   C     C_R   0.617158 0.618681 0.498646 0.816962
C13   C     C_R   0.259496 0.180720 0.502556 0.291369
C14   C     C_R   0.186721 0.187300 0.502437 -0.289499
C15   C     C_R   0.177262 0.258094 0.501841 0.312076
C16   C     C_R   0.238898 0.320894 0.497298 0.030072
C17   C     C_R   0.313144 0.314781 0.499579 -0.251145
C18   C     C_R   0.763119 0.508752 0.684884 0.043520
C19   C     C_R   0.820910 0.498465 0.744174 0.363333
C20   C     C_R   0.811123 0.497280 0.814153 -0.190845
C21   C     C_R   0.736178 0.494140 0.819635 0.070195
C22   C     C_R   0.670990 0.492258 0.753088 0.117820
C23   C     C_R   0.619506 0.500777 0.618872 0.804035
C24   C     C_R   0.685673 0.500634 0.686564 -0.143821
C25   C     C_R   0.001437 0.882674 0.381356 0.773730
C26   C     C_R   0.880944 0.881323 0.499409 0.851321
C27   C     C_R   0.000039 0.118927 0.618529 0.871374
C28   C     C_R   0.119169 0.119202 0.500776 0.877002
C29   C     C_R   0.001225 0.619047 0.120150 0.792571
C30   C     C_R   0.119532 0.501418 0.119583 0.863338
C31   C     C_R   0.998423 0.381074 0.879762 0.898881
C32   C     C_R   0.880380 0.499531 0.881425 0.856524
C33   C     C_R   0.013386 0.828850 0.247803 0.153593
C34   C     C_R   0.380781 0.381255 0.499677 0.868849
C35   C     C_R   0.011927 0.761726 0.184355 -0.217130
C36   C     C_R   0.002640 0.686639 0.188106 -0.148722
C37   C     C_R   0.996444 0.678214 0.256938 0.381164
C38   C     C_R   0.996977 0.743762 0.319652 -0.213942
C39   C     C_R   0.003665 0.817655 0.314759 -0.108112
C40   C     C_R   0.919532 0.172092 0.681687 0.342891
C41   C     C_R   0.917835 0.236219 0.744596 0.364356
C42   C     C_R   0.996674 0.313806 0.811168 -0.184584
C43   C     C_R   0.075558 0.328193 0.812596 -0.210314
C44   C     C_R   0.078164 0.265666 0.749455 0.116987
C45   C     C_R   0.753874 0.756860 0.572154 -0.101850
C46   C     C_R   0.999654 0.186374 0.684515 -0.170032
C47   C     C_R   0.680437 0.685144 0.495892 -0.125858
C48   C     C_R   0.671439 0.679987 0.416807 0.368195
C49   C     C_R   0.737208 0.745342 0.418019 -0.209782
C50   C     C_R   0.813124 0.814343 0.497202 -0.101315
Cu1   Cu    Cu3+1 0.499970 0.561780 0.561770 0.989062
Cu2   Cu    Cu3+1 0.500030 0.438220 0.438230 1.121708
Cu3   Cu    Cu3+1 0.061810 1.000000 0.561760 1.097048
Cu4   Cu    Cu3+1 0.938190 0.000070 0.438240 1.076742
Cu5   Cu    Cu3+1 0.938200 0.438300 0.000110 1.119853
Cu6   Cu    Cu3+1 0.061800 0.561880 0.000070 1.012786
H1    H     H_    0.729560 0.741477 0.357426 0.184418
H2    H     H_    0.016888 0.766386 0.130753 0.173949
H3    H     H_    0.991413 0.736783 0.372299 0.187136
H4    H     H_    0.135748 0.388712 0.863385 0.176512
H5    H     H_    0.816823 0.755205 0.689655 0.103173
O1    O     O_R   0.409790 0.552170 0.461990 -0.612176
O2    O     O_R   0.947790 0.909920 0.357650 -0.610819
O3    O     O_R   0.962030 0.909820 0.552150 -0.543487
O4    O     O_R   0.857630 0.909880 0.447840 -0.573768
O5    O     O_R   0.052210 0.090150 0.642360 -0.576552
O6    O     O_R   0.947820 0.090210 0.538040 -0.528015
O7    O     O_R   0.142360 0.090190 0.552160 -0.555852
O8    O     O_R   0.037970 0.090250 0.447850 -0.545432
O9    O     O_R   0.947800 0.538090 0.090240 -0.544351
O10   O     O_R   0.052170 0.642450 0.090210 -0.605107
O11   O     O_R   0.038000 0.447920 0.090280 -0.513804
O12   O     O_R   0.409840 0.447810 0.357660 -0.512537
O13   O     O_R   0.142370 0.552280 0.090250 -0.610407
O14   O     O_R   0.947830 0.357730 0.909970 -0.519674
O15   O     O_R   0.052200 0.462090 0.909940 -0.581166
O16   O     O_R   0.857630 0.447900 0.909930 -0.582484
O17   O     O_R   0.962000 0.552260 0.909900 -0.548946
O18   O     O_R   0.590140 0.642360 0.552170 -0.550644
O19   O     O_R   0.590190 0.538010 0.447840 -0.558474
O20   O     O_R   0.590160 0.552190 0.642340 -0.583163
O21   O     O_R   0.590210 0.447830 0.538010 -0.568668
O22   O     O_R   0.409810 0.461990 0.552160 -0.614176
O23   O     O_R   0.409860 0.357640 0.447830 -0.512417
O24   O     O_R   0.052180 0.909860 0.461960 -0.555914
Cl1   Cl    Cl    0.577791 0.595861 0.316101 -0.590811
C51   C     C_3   0.407465 0.671177 0.403075 -0.332823
C52   C     C_3   0.391424 0.707673 0.478432 -0.705549
H6    H     H_    0.348422 0.735416 0.464506 0.234041
H7    H     H_    0.359884 0.656797 0.491845 0.262311
H8    H     H_    0.454915 0.760398 0.537848 0.261004
H9    H     H_    0.465401 0.663037 0.425787 0.215475
H10   H     H_    0.429218 0.721448 0.385884 0.210864
Cl2   Cl    Cl    0.420133 0.241748 0.514407 -0.498279
Cl3   Cl    Cl    0.269030 0.088991 0.497030 -0.502915
Cl4   Cl    Cl    0.088979 0.269482 0.509193 -0.599830
C53   C     C_3   0.222043 0.390626 0.485143 -0.274808
C54   C     C_3   0.250769 0.467402 0.571279 -0.716030
H11   H     H_    0.320520 0.495543 0.618758 0.249852
H12   H     H_    0.242560 0.518854 0.560133 0.236673
H13   H     H_    0.210519 0.446883 0.599800 0.281791
H14   H     H_    0.255383 0.414963 0.452848 0.194040
H15   H     H_    0.151397 0.362309 0.439984 0.250404
C55   C     C_3   0.787971 0.532948 0.623904 -0.353480
C56   C     C_3   0.870269 0.622760 0.674244 -0.726114
H16   H     H_    0.866934 0.669924 0.725679 0.243964
H17   H     H_    0.930302 0.620119 0.704986 0.301961
H18   H     H_    0.875977 0.646732 0.629363 0.253205
H19   H     H_    0.798376 0.482953 0.583952 0.261904
H20   H     H_    0.736596 0.536361 0.577643 0.197262
Cl5   Cl    Cl    0.902542 0.480248 0.726799 -0.573535
C57   C     C_3   0.727299 0.494954 0.897227 -0.387373
C58   C     C_3   0.680337 0.402993 0.882220 -0.664744
H21   H     H_    0.608251 0.373402 0.845823 0.226778
H22   H     H_    0.698006 0.358917 0.845226 0.283171
H23   H     H_    0.698444 0.406434 0.945747 0.238517
H24   H     H_    0.792596 0.534400 0.956931 0.191088
H25   H     H_    0.692661 0.529329 0.914099 0.203257
C59   C     C_3   0.584793 0.479079 0.751139 -0.337185
C60   C     C_3   0.589372 0.565296 0.801150 -0.755416
H26   H     H_    0.634080 0.618966 0.798470 0.275415
H27   H     H_    0.522917 0.557296 0.772926 0.241802
H28   H     H_    0.612559 0.585037 0.870246 0.224976
H29   H     H_    0.530016 0.442162 0.683252 0.209675
H30   H     H_    0.563920 0.436422 0.776584 0.206981
C61   C     C_3   0.026552 0.912502 0.246631 -0.369833
C62   C     C_3   0.056680 0.926936 0.184464 -0.751020
H31   H     H_    0.117270 0.923085 0.196988 0.268325
H32   H     H_    0.004218 0.878372 0.116039 0.244621
H33   H     H_    0.071266 0.992737 0.194690 0.269471
H34   H     H_    0.964265 0.913575 0.229827 0.224311
H35   H     H_    0.077121 0.969009 0.312825 0.221019
Cl6   Cl    Cl    0.992210 0.589054 0.269682 -0.569002
Cl7   Cl    Cl    0.820682 0.072964 0.600303 -0.435940
Cl8   Cl    Cl    0.815810 0.220178 0.736097 -0.440280
C63   C     C_3   0.164890 0.287687 0.751707 -0.374954
C64   C     C_3   0.224142 0.277006 0.820060 -0.716341
H36   H     H_    0.239160 0.321952 0.885630 0.253466
H37   H     H_    0.192020 0.208977 0.806084 0.281314
H38   H     H_    0.286609 0.292435 0.819561 0.238214
H39   H     H_    0.155936 0.247072 0.687753 0.209043
H40   H     H_    0.198455 0.356121 0.766886 0.212140
Cl9   Cl    Cl    0.972578 0.860715 0.703821 -0.563797
Cl10  Cl    Cl    0.894959 0.975584 0.716478 -0.414593
Cl11  Cl    Cl    0.740536 0.836783 0.712513 -0.451778
Cl12  Cl    Cl    0.226137 0.324049 0.237502 -0.493365
Cl13  Cl    Cl    0.094619 0.323794 0.085841 -0.455884
C65   C     C_3   0.269867 0.671582 0.267721 -0.344675
C66   C     C_3   0.321806 0.704980 0.227190 -0.715934
H41   H     H_    0.392395 0.728922 0.266738 0.239763
H42   H     H_    0.298270 0.653339 0.161151 0.266591
H43   H     H_    0.314994 0.759814 0.223100 0.243789
H44   H     H_    0.204374 0.665164 0.238048 0.208428
H45   H     H_    0.300845 0.722974 0.335774 0.207767

loop_
_geom_bond_atom_site_label_1
_geom_bond_atom_site_label_2
_ccdc_geom_bond_type
C44   C63   S    
C57   H25   S    
Cu5   Cu6   S    
C61   C62   S    
Cu6   O15   S    
C23   O21   A    
C41   C42   A    
C56   H16   S    
C28   O8    A    
C51   C52   S    
C1    O1    A    
C53   C54   S    
C49   H1    S    
C7    C8    A    
Cu4   O4    S    
Cu3   Cu4   S    
C40   C46   A    
C56   H17   S    
C29   C36   S    
C33   C39   A    
C65   H45   S    
C13   Cl3   S    
C35   H2    S    
C18   C24   A    
C21   C22   A    
C36   C37   A    
C31   C42   S    
C29   O9    A    
C66   H42   S    
C5    C6    A    
C30   O13   A    
Cu3   O3    S    
C16   C53   S    
Cu4   O2    S    
C15   C16   A    
C12   O18   A    
C51   H10   S    
Cu6   O17   S    
C18   C19   A    
C25   O2    A    
Cu2   O23   S    
Cu3   O7    S    
C26   O3    A    
C57   C58   S    
C63   H40   S    
C2    C50   A    
C32   O16   A    
C11   C17   A    
C35   C36   A    
C42   C43   A    
C44   C46   A    
C8    C9    A    
C23   C24   S    
C9    C10   A    
Cu1   O20   S    
C53   H14   S    
C60   H28   S    
C58   H23   S    
Cu5   O14   S    
C7    C30   S    
C51   H9    S    
C8    C65   S    
Cu1   O1    S    
C34   O23   A    
C12   C47   S    
C55   C56   S    
C56   H18   S    
C60   H27   S    
C4    C45   S    
C45   C47   A    
C2    C45   A    
C22   C59   S    
C64   H38   S    
Cu6   O13   S    
C3    Cl10  S    
Cu1   Cu2   S    
C3    Cl9   S    
C65   C66   S    
Cu2   O12   S    
C66   H43   S    
C15   Cl4   S    
C16   C17   A    
Cu4   O6    S    
C59   H29   S    
C40   Cl7   S    
C4    H5    S    
C58   H22   S    
C38   C39   A    
C43   C44   A    
C62   H32   S    
C37   C38   A    
C64   H37   S    
C31   O14   A    
C47   C48   A    
C52   H8    S    
C61   H35   S    
Cu6   O10   S    
C25   O24   A    
C18   C55   S    
C20   C21   A    
Cu2   O21   S    
Cu3   O5    S    
C53   H15   S    
C43   H4    S    
C59   H30   S    
C27   C46   S    
C40   C41   A    
C52   H7    S    
C54   H11   S    
C54   H12   S    
C48   Cl1   S    
C17   C34   S    
C62   H31   S    
Cu1   O22   S    
C41   Cl8   S    
C21   C57   S    
C60   H26   S    
C11   Cl2   S    
C58   H21   S    
C20   C32   S    
C48   C49   A    
C5    Cl12  S    
C23   O20   A    
C28   O7    A    
C26   O4    A    
C1    C10   S    
Cu5   O11   S    
C63   C64   S    
C30   O11   A    
C59   C60   S    
C6    C7    A    
C19   Cl5   S    
C54   H13   S    
C64   H36   S    
C57   H24   S    
C1    O12   A    
C19   C20   A    
C26   C50   S    
C2    C3    S    
C62   H33   S    
C5    C10   A    
C27   O5    A    
Cu2   O19   S    
C66   H41   S    
C9    C51   S    
C55   H20   S    
C6    Cl13  S    
C11   C13   A    
C31   O15   A    
C55   H19   S    
Cu4   O8    S    
C61   H34   S    
Cu5   O16   S    
C4    Cl11  S    
C12   O19   A    
C33   C61   S    
C33   C35   A    
C63   H39   S    
C22   C24   A    
C37   Cl6   S    
Cu1   O18   S    
Cu5   O9    S    
C27   O6    A    
C32   O17   A    
C38   H3    S    
C52   H6    S    
C49   C50   A    
C34   O22   A    
C14   C15   A    
Cu3   O24   S    
C14   C28   S    
C65   H44   S    
C13   C14   A    
C25   C39   S    
C3    C4    S    
C29   O10   A    
