data_mof_unit_18968.cif
_audit_creation_date              2012-12-10T19:44:59-0500
_audit_creation_method            fapswitch 2.2
_symmetry_space_group_name_H-M    P1
_symmetry_Int_Tables_number       1
_space_group_crystal_system       triclinic
_cell_length_a                    15.066997
_cell_length_b                    10.882432
_cell_length_c                    13.792731
_cell_angle_alpha                 90.583889
_cell_angle_beta                  91.758746
_cell_angle_gamma                 89.354996
_cell_volume                      2260.21474067

loop_
_atom_site_label
_atom_site_type_symbol
_atom_type_description
_atom_site_fract_x
_atom_site_fract_y
_atom_site_fract_z
_atom_type_partial_charge
C1    C     C_R   0.498416 0.262312 0.498933 0.757906
C2    C     C_R   0.527186 0.888324 0.687975 0.108416
C3    C     C_R   0.542461 0.096851 0.245001 -0.142483
C4    C     C_R   0.458765 0.897325 0.754738 -0.199241
C5    C     C_R   0.530489 0.133947 0.148940 -0.156947
C6    C     C_R   0.472598 0.858149 0.850035 -0.146707
C7    C     C_R   0.450705 0.188980 0.118050 -0.158161
C8    C     C_R   0.553915 0.805951 0.879159 -0.096102
C9    C     C_R   0.489937 0.931911 0.414356 -0.211843
C10   C     C_R   0.507463 0.068323 0.585513 -0.187500
C11   C     C_R   0.501397 0.871748 0.503028 -0.050340
C12   C     C_R   0.501150 0.737770 0.501026 0.757563
C13   C     C_R   0.496810 0.128476 0.496799 -0.086692
C14   C     C_R   0.510923 0.941297 0.590140 0.072593
C15   C     C_R   0.487211 0.059062 0.409572 -0.007470
C16   C     C_R   0.329093 0.499211 0.499173 0.763003
C17   C     C_R   0.670923 0.499971 0.500803 0.753606
C18   C     C_R   0.566294 0.438411 0.796141 0.128903
C19   C     C_R   0.433540 0.561220 0.203845 0.131975
C20   C     C_R   0.433647 0.558862 0.791672 0.015123
C21   C     C_R   0.566037 0.440412 0.208332 0.039686
C22   C     C_R   0.431720 0.558721 0.894021 0.004447
C23   C     C_R   0.049528 0.330574 0.617022 -0.013081
C24   C     C_R   0.567758 0.440046 0.105970 0.006831
C25   C     C_R   0.499893 0.499002 0.948321 0.063352
C26   C     C_R   0.499634 0.499879 0.051670 0.059148
C27   C     C_R   0.568125 0.438104 0.899457 -0.036544
C28   C     C_R   0.431468 0.560949 0.100527 -0.035838
C29   C     C_R   0.363918 0.619341 0.943114 -0.225336
C30   C     C_R   0.635353 0.378964 0.056863 -0.200519
C31   C     C_R   0.364142 0.621767 0.044584 -0.166248
C32   C     C_R   0.635258 0.376848 0.955381 -0.169925
C33   C     C_R   0.812114 0.596726 0.457472 -0.059987
C34   C     C_R   0.950588 0.660798 0.378298 -0.005291
C35   C     C_R   0.188496 0.399314 0.541033 -0.047310
C36   C     C_R   0.767650 0.498448 0.500569 -0.215177
C37   C     C_R   0.232372 0.499015 0.499098 -0.170423
C38   C     C_R   0.815205 0.395068 0.535923 -0.038073
C39   C     C_R   0.184163 0.601184 0.462781 -0.025560
C40   C     C_R   0.908326 0.403010 0.546117 0.061081
C41   C     C_R   0.091348 0.591203 0.451127 0.117291
C42   C     C_R   0.953124 0.495560 0.496586 -0.005010
C43   C     C_R   0.046797 0.497769 0.500106 0.019786
C44   C     C_R   0.904422 0.585260 0.442852 0.099332
C45   C     C_R   0.382371 0.206567 0.182975 -0.083818
C46   C     C_R   0.095658 0.407946 0.553667 0.014569
C47   C     C_R   0.956942 0.325426 0.609063 -0.089248
C48   C     C_R   0.042780 0.667626 0.387200 -0.189030
C49   C     C_2   0.763385 0.714847 0.438703 0.465997
C50   C     C_2   0.238822 0.282789 0.560773 0.329256
C51   C     C_2   0.635374 0.368756 0.745543 0.396392
C52   C     C_2   0.364353 0.630697 0.254437 0.404525
C53   C     C_2   0.767596 0.277727 0.553628 0.437179
C54   C     C_2   0.230705 0.719495 0.445444 0.403800
C55   C     C_2   0.094636 0.267825 0.700578 0.470969
C56   C     C_R   0.622331 0.794972 0.813577 -0.189322
C57   C     C_2   0.907870 0.721238 0.292541 0.452603
C58   C     C_2   0.316387 0.177480 0.344945 0.390686
C59   C     C_2   0.689534 0.838190 0.656585 0.353302
C60   C     C_R   0.392245 0.166465 0.279493 0.019734
C61   C     C_R   0.611121 0.839411 0.718665 0.040114
C62   C     C_R   0.474020 0.112276 0.311197 0.042582
Cu1   Cu    Cu3+1 0.500010 0.499980 0.597420 0.938608
Cu2   Cu    Cu3+1 0.499990 0.500020 0.402580 0.961915
H1    H     H_    0.382258 0.607030 0.750208 0.143585
H2    H     H_    0.564033 0.774198 0.952843 0.147390
H3    H     H_    0.604751 0.053668 0.267592 0.162062
H4    H     H_    0.394986 0.937027 0.733234 0.150921
H5    H     H_    0.692284 0.716696 0.424433 0.082184
H6    H     H_    0.308721 0.283838 0.581591 0.068995
H7    H     H_    0.482201 0.879800 0.347280 0.150445
H8    H     H_    0.515280 0.120330 0.652642 0.143886
H9    H     H_    0.618280 0.287611 0.703600 0.066273
H10   H     H_    0.381361 0.711466 0.296863 0.052734
H11   H     H_    0.696158 0.276906 0.559175 0.059971
H12   H     H_    0.617367 0.392156 0.249822 0.148236
H13   H     H_    0.302235 0.721884 0.441182 0.050722
H14   H     H_    0.159502 0.297630 0.727042 0.041266
H15   H     H_    0.938903 0.800090 0.260580 0.085048
H16   H     H_    0.320956 0.249093 0.156939 0.182542
H17   H     H_    0.685386 0.755737 0.838148 0.145639
H18   H     H_    0.319833 0.134837 0.415542 0.100742
H19   H     H_    0.744900 0.776366 0.673013 0.090932
H20   H     H_    0.583269 0.120135 0.098342 0.148367
H21   H     H_    0.419932 0.867630 0.901272 0.146184
H22   H     H_    0.311159 0.666758 0.902975 0.149204
H23   H     H_    0.687988 0.331282 0.096995 0.154445
H24   H     H_    0.310994 0.672435 0.078192 0.182529
H25   H     H_    0.688384 0.326178 0.921726 0.185815
H26   H     H_    0.922343 0.267021 0.658114 0.220095
H27   H     H_    0.077056 0.726233 0.337924 0.185465
H28   H     H_    0.441883 0.218472 0.043617 0.147405
N1    N     N_R   0.499960 0.499900 0.743810 -0.219626
N2    N     N_R   0.500040 0.500100 0.256190 -0.222920
O1    O     O_R   0.500000 0.319630 0.582270 -0.620602
O2    O     O_2   0.203164 0.183191 0.549561 -0.492657
O3    O     O_2   0.712831 0.400407 0.752681 -0.569164
O4    O     O_2   0.286899 0.599093 0.247001 -0.551264
O5    O     O_2   0.806697 0.178858 0.555391 -0.482104
O6    O     O_2   0.190490 0.817481 0.442460 -0.517175
O7    O     O_2   0.059298 0.183414 0.741874 -0.509772
O8    O     O_2   0.840600 0.679798 0.253572 -0.548516
O9    O     O_2   0.248869 0.233752 0.320613 -0.494696
O10   O     O_2   0.695217 0.909469 0.589422 -0.480903
O11   O     O_R   0.500000 0.680370 0.417730 -0.618713
O12   O     O_R   0.499990 0.319660 0.417730 -0.570930
O13   O     O_R   0.500010 0.680340 0.582270 -0.576020
O14   O     O_R   0.370260 0.499960 0.582280 -0.609004
O15   O     O_R   0.629740 0.500040 0.417720 -0.587304
O16   O     O_R   0.370250 0.499990 0.417740 -0.547492
O17   O     O_R   0.629750 0.500010 0.582260 -0.565089
O18   O     O_2   0.802012 0.812883 0.443319 -0.482180

loop_
_geom_bond_atom_site_label_1
_geom_bond_atom_site_label_2
_ccdc_geom_bond_type
C51   O3    D    
C40   C47   A    
C38   C40   A    
C20   N1    A    
C45   C60   A    
C8    H2    S    
C22   C29   A    
C57   H15   S    
C8    C56   A    
C16   O16   A    
Cu2   O11   S    
C39   C41   A    
C53   O5    D    
C57   O8    D    
C21   H12   S    
C6    H21   S    
C59   O10   D    
C7    C45   A    
C35   C37   A    
C24   C26   A    
C52   H10   S    
C58   H18   S    
C12   O11   A    
C11   C14   A    
C39   C54   S    
C21   N2    A    
C33   C49   S    
Cu1   O1    S    
C33   C36   A    
C60   C62   A    
C19   C52   S    
C15   C62   S    
C48   H27   S    
C34   C57   S    
C17   C36   S    
C2    C61   A    
C1    O12   A    
C54   H13   S    
C40   C42   A    
C23   C46   A    
C49   H5    S    
Cu1   O17   S    
C41   C43   A    
C54   O6    D    
C53   H11   S    
C42   C44   A    
C30   H23   S    
C17   O17   A    
C18   C51   S    
C59   C61   S    
C23   C47   A    
C51   H9    S    
C20   H1    S    
C56   H17   S    
C34   C44   A    
C4    C6    A    
C10   C14   A    
C5    C7    A    
C55   H14   S    
C6    C8    A    
C25   C26   A    
C22   C25   A    
C2    C4    A    
Cu2   O16   S    
C32   H25   S    
C1    O1    A    
C35   C50   S    
Cu2   O12   S    
C19   C28   A    
C9    C11   A    
C29   H22   S    
C19   N2    A    
C49   O18   D    
C20   C22   A    
C13   C15   A    
C47   H26   S    
C1    C13   S    
C42   C43   A    
Cu1   O13   S    
C4    H4    S    
C3    C62   A    
C5    H20   S    
Cu1   N1    S    
C31   H24   S    
C27   C32   A    
C33   C44   A    
C28   C31   A    
C3    H3    S    
C18   C27   A    
C9    H7    S    
C16   C37   S    
C59   H19   S    
C3    C5    A    
C10   C13   A    
C17   O15   A    
C12   O13   A    
C11   C12   S    
C23   C55   S    
C25   C27   A    
C55   O7    D    
C26   C28   A    
C36   C38   A    
C9    C15   A    
Cu2   N2    S    
C37   C39   A    
C30   C32   A    
C50   O2    D    
Cu2   O15   S    
C38   C53   S    
C7    H28   S    
C52   O4    D    
C41   C48   A    
C45   H16   S    
C50   H6    S    
C2    C14   S    
C43   C46   A    
C24   C30   A    
C16   O14   A    
Cu1   Cu2   S    
C34   C48   A    
C29   C31   A    
C21   C24   A    
C18   N1    A    
C56   C61   A    
C58   O9    D    
Cu1   O14   S    
C35   C46   A    
C58   C60   S    
C10   H8    S    
