data_mof_unit_56599.cif
_audit_creation_date              2012-10-26T21:04:52-0400
_audit_creation_method            fapswitch 2.2
_symmetry_space_group_name_H-M    P1
_symmetry_Int_Tables_number       1
_space_group_crystal_system       triclinic
_cell_length_a                    11.68315
_cell_length_b                    12.317116
_cell_length_c                    13.325206
_cell_angle_alpha                 116.472706
_cell_angle_beta                  77.436144
_cell_angle_gamma                 101.242824
_cell_volume                      1664.79918059

loop_
_atom_site_label
_atom_site_type_symbol
_atom_type_description
_atom_site_fract_x
_atom_site_fract_y
_atom_site_fract_z
_atom_type_partial_charge
C1    C     C_R   0.507394 0.854237 0.287253 0.544738
C2    C     C_R   0.405299 0.465711 0.174403 0.248470
C3    C     C_R   0.411657 0.589745 0.202839 -0.109307
C4    C     C_R   0.715783 0.999762 0.499750 0.547730
C5    C     C_R   0.483998 0.352008 0.865829 -0.126500
C6    C     C_R   0.446729 0.180235 0.914343 -0.139934
C7    C     C_R   0.508733 0.769757 0.165825 -0.061261
C8    C     C_R   0.702785 0.358553 0.348983 -0.170923
C9    C     C_R   0.339896 0.758918 0.642769 0.038717
C10   C     C_R   0.302592 0.661088 0.674426 0.239162
C11   C     C_R   0.362020 0.557030 0.617082 -0.124606
C12   C     C_R   0.469790 0.226413 0.832880 -0.063985
C13   C     C_R   0.460472 0.550632 0.532747 -0.043677
C14   C     C_R   0.495525 0.653420 0.506055 0.168817
C15   C     C_R   0.526864 0.447393 0.475607 0.020360
C16   C     C_R   0.482533 0.144916 0.712606 0.551459
C17   C     C_R   0.630476 0.452972 0.398810 0.047169
C18   C     C_R   0.661507 0.552686 0.372081 -0.162578
C19   C     C_R   0.594012 0.649453 0.422707 -0.068559
C20   C     C_R   0.496455 0.338660 0.491855 0.056163
C21   C     C_R   0.669637 0.255962 0.370964 0.026084
C22   C     C_R   0.284214 0.000233 0.500211 0.546319
C23   C     C_R   0.556433 0.816918 0.085659 -0.159422
C24   C     C_1   0.837507 0.999667 0.499727 -0.029659
C25   C     C_1   0.940101 0.999843 0.499734 -0.047630
C26   C     C_1   0.059976 0.000130 0.499831 -0.046026
C27   C     C_1   0.162529 0.000271 0.499990 -0.026353
C28   C     C_R   0.438459 0.259115 0.028911 0.271710
C29   C     C_3   0.187773 0.774284 0.843913 -0.130212
C30   C     C_3   0.235456 0.402916 0.264954 0.028359
C31   C     C_3   0.185922 0.349253 0.351319 -0.238003
C32   C     C_3   0.051572 0.323709 0.363071 -0.483998
C33   C     C_3   0.538751 0.215001 0.132694 0.028624
C34   C     C_R   0.586630 0.740427 0.972166 0.281237
C35   C     C_3   0.614581 0.120819 0.035071 -0.291106
C36   C     C_3   0.729458 0.116377 0.068985 -0.468355
C37   C     C_3   0.745227 0.529114 0.847721 -0.093263
C38   C     C_3   0.569107 0.775947 0.823375 -0.095792
C39   C     C_R   0.574996 0.613848 0.938019 0.282759
C40   C     C_R   0.509505 0.562086 0.013379 -0.024491
C41   C     C_R   0.475620 0.641504 0.128408 -0.072240
C42   C     C_R   0.481335 0.433975 0.979742 -0.054097
C43   C     C_R   0.444245 0.386352 0.062604 0.036429
Cu1   Cu    Cu3+1 0.526510 0.098270 0.475420 0.935658
Cu2   Cu    Cu3+1 0.473490 0.901730 0.524580 0.905797
H1    H     H_    0.437955 0.082748 0.889587 0.134769
H2    H     H_    0.364325 0.642926 0.284286 0.167706
H3    H     H_    0.726077 0.183648 0.334488 0.124531
H4    H     H_    0.141746 0.826586 0.818189 0.120198
H5    H     H_    0.272001 0.826673 0.874156 0.098451
H6    H     H_    0.129746 0.761701 0.916664 0.146935
H7    H     H_    0.208308 0.337106 0.181486 0.143785
H8    H     H_    0.197696 0.490258 0.293962 0.112276
H9    H     H_    0.224042 0.262724 0.324163 0.194811
H10   H     H_    0.211592 0.414393 0.435183 0.178250
H11   H     H_    0.011463 0.409507 0.392405 0.153635
H12   H     H_    0.738679 0.555793 0.310744 0.098218
H13   H     H_    0.018616 0.284688 0.426162 0.161079
H14   H     H_    0.023814 0.257167 0.280541 0.140182
H15   H     H_    0.523765 0.193731 0.207434 0.180213
H16   H     H_    0.587013 0.308569 0.157934 0.146916
H17   H     H_    0.563192 0.029219 0.007864 0.186151
H18   H     H_    0.638841 0.144813 0.961602 0.155679
H19   H     H_    0.782909 0.206928 0.094179 0.131897
H20   H     H_    0.781272 0.048271 0.995799 0.183733
H21   H     H_    0.711277 0.088844 0.139941 0.142719
H22   H     H_    0.735894 0.479683 0.902041 0.105972
H23   H     H_    0.784289 0.364064 0.293306 0.086112
H24   H     H_    0.799981 0.618516 0.883658 0.145590
H25   H     H_    0.792761 0.473275 0.763504 0.153210
H26   H     H_    0.485186 0.815967 0.869737 0.089193
H27   H     H_    0.550435 0.678126 0.765628 0.169366
H28   H     H_    0.613003 0.824674 0.770004 0.146186
H29   H     H_    0.418412 0.325642 0.547327 0.113266
H30   H     H_    0.293474 0.838972 0.681754 0.128925
H31   H     H_    0.330456 0.483318 0.642378 0.123215
H32   H     H_    0.623313 0.719948 0.394422 0.180403
H33   H     H_    0.490779 0.384665 0.801764 0.201618
H34   H     H_    0.577018 0.914148 0.112057 0.148378
N1    N     N_R   0.566700 0.246290 0.438210 -0.236167
N2    N     N_R   0.434010 0.754320 0.561170 -0.273866
O1    O     O_R   0.533340 0.972510 0.318140 -0.504593
O2    O     O_3   0.359628 0.423298 0.256935 -0.538661
O3    O     O_3   0.426074 0.209375 0.105936 -0.548806
O4    O     O_3   0.634275 0.544137 0.833076 -0.578816
O5    O     O_3   0.645333 0.791469 0.898731 -0.565538
O6    O     O_R   0.488570 0.806530 0.359650 -0.525917
O7    O     O_R   0.685190 0.083000 0.479260 -0.494157
O8    O     O_R   0.640410 0.917020 0.520770 -0.513975
O9    O     O_R   0.511430 0.193470 0.640350 -0.496032
O10   O     O_R   0.466660 0.027490 0.681860 -0.514482
O11   O     O_R   0.359590 0.082980 0.479230 -0.500811
O12   O     O_R   0.314810 0.917000 0.520740 -0.503153
O13   O     O_3   0.204674 0.658034 0.754699 -0.572377

loop_
_geom_bond_atom_site_label_1
_geom_bond_atom_site_label_2
_ccdc_geom_bond_type
C1    O6    A    
C5    C42   A    
C16   O9    A    
C37   H24   S    
C28   O3    S    
C35   C36   S    
C32   H13   S    
Cu2   O12   S    
C29   H4    S    
C26   C27   T    
C38   O5    S    
C37   O4    S    
Cu2   O6    S    
Cu1   O1    S    
C11   H31   S    
C6    C12   A    
C30   C31   S    
C4    C24   S    
C36   H21   S    
C10   O13   S    
C18   C19   A    
C34   O5    S    
C30   O2    S    
C19   H32   S    
C6    C28   A    
C12   C16   S    
C13   C14   A    
Cu2   O8    S    
C9    C10   A    
Cu1   O11   S    
C21   H3    S    
C40   C42   A    
C37   H25   S    
C2    O2    S    
C8    C21   A    
C29   H5    S    
C15   C20   A    
C30   H8    S    
C38   H27   S    
C20   N1    A    
C34   C39   A    
Cu1   N1    S    
C24   C25   T    
C5    C12   A    
C39   C40   A    
C36   H20   S    
C25   C26   S    
C18   H12   S    
C31   C32   S    
C2    C43   A    
C23   C34   A    
C17   C18   A    
C20   H29   S    
C40   C41   A    
C8    H23   S    
C33   H15   S    
C22   C27   S    
C13   C15   A    
C22   O12   A    
C42   C43   A    
C39   O4    S    
Cu1   O9    S    
Cu1   Cu2   S    
C4    O8    A    
C29   H6    S    
C15   C17   A    
C30   H7    S    
C38   H26   S    
C3    C41   A    
C6    H1    S    
C1    C7    S    
C14   C19   A    
Cu2   N2    S    
C4    O7    A    
C28   C43   A    
C8    C17   A    
C14   N2    A    
C23   H34   S    
C2    C3    A    
C1    O1    A    
C36   H19   S    
C11   C13   A    
C29   O13   S    
C7    C23   A    
C37   H22   S    
C21   N1    A    
C3    H2    S    
C33   C35   S    
C35   H17   S    
C7    C41   A    
C31   H9    S    
Cu2   O10   S    
C33   O3    S    
C10   C11   A    
C16   O10   A    
C33   H16   S    
C22   O11   A    
C35   H18   S    
C9    H30   S    
C32   H14   S    
C31   H10   S    
C5    H33   S    
Cu1   O7    S    
C32   H11   S    
C9    N2    A    
C38   H28   S    
