data_mof_unit_40864.cif
_audit_creation_date              2012-12-10T18:45:06-0500
_audit_creation_method            fapswitch 2.2
_symmetry_space_group_name_H-M    P1
_symmetry_Int_Tables_number       1
_space_group_crystal_system       triclinic
_cell_length_a                    10.699416
_cell_length_b                    9.859971
_cell_length_c                    10.694078
_cell_angle_alpha                 89.703431
_cell_angle_beta                  90.519939
_cell_angle_gamma                 90.205137
_cell_volume                      1128.11311248

loop_
_atom_site_label
_atom_site_type_symbol
_atom_type_description
_atom_site_fract_x
_atom_site_fract_y
_atom_site_fract_z
_atom_type_partial_charge
C1    C     C_R   0.260064 0.499716 0.497776 0.986553
C2    C     C_R   0.503154 0.499599 0.739679 1.070167
C3    C     C_R   0.724655 0.610595 0.129896 0.665380
C4    C     C_R   0.728705 0.594099 0.870631 0.645073
C5    C     C_R   0.828058 0.657200 0.064203 -0.254731
C6    C     C_R   0.830476 0.648055 0.935235 -0.285202
C7    C     C_R   0.619944 0.550371 0.934595 -0.160839
C8    C     C_R   0.618806 0.555557 0.066173 -0.167541
C9    C     C_R   0.512910 0.501823 0.128336 -0.307409
C10   C     C_R   0.513117 0.498081 0.872011 -0.306143
C11   C     C_R   0.411801 0.445232 0.063935 0.529020
C12   C     C_R   0.739947 0.499966 0.496806 1.124925
C13   C     C_R   0.411499 0.444311 0.936015 0.519285
C14   C     C_R   0.063373 0.389369 0.441169 0.588379
C15   C     C_R   0.935064 0.389695 0.440598 0.532823
C16   C     C_R   0.872408 0.500394 0.491942 -0.215429
C17   C     C_R   0.127660 0.499676 0.493253 -0.243995
C18   C     C_R   0.936948 0.612375 0.539449 -0.165153
C19   C     C_R   0.064841 0.611747 0.540680 -0.270433
C20   C     C_R   0.576661 0.072111 0.579118 -0.081965
C21   C     C_R   0.423170 0.072299 0.420977 -0.067524
C22   C     C_R   0.576966 0.928015 0.579408 0.154752
C23   C     C_R   0.422841 0.928130 0.420742 0.139311
C24   C     C_R   0.504677 0.500568 0.260501 1.067721
F1    F     F_    0.311344 0.394335 0.125798 -0.603730
F2    F     F_    0.310437 0.393569 0.873728 -0.620810
F3    F     F_    0.731565 0.619506 0.255433 -0.691010
F4    F     F_    0.740949 0.579808 0.746260 -0.715403
F5    F     F_    0.124184 0.283126 0.389202 -0.601259
F6    F     F_    0.872624 0.283652 0.388263 -0.607487
H1    H     H_    0.907952 0.698536 0.114068 0.203384
H2    H     H_    0.362147 0.886476 0.246226 0.189463
H3    H     H_    0.912535 0.681276 0.884887 0.197591
H4    H     H_    0.888877 0.698751 0.578208 0.215912
H5    H     H_    0.114388 0.697532 0.580593 0.203035
H6    H     H_    0.637870 0.127054 0.642247 0.148033
H7    H     H_    0.361871 0.127420 0.357900 0.201157
H8    H     H_    0.749478 0.887991 0.646352 0.178328
H9    H     H_    0.635462 0.884030 0.754402 0.175479
H10   H     H_    0.249753 0.885381 0.356236 0.197658
N1    N     N_R   0.500000 0.857200 0.500000 -0.075546
N2    N     N_R   0.500000 0.142810 0.500000 -0.101402
N3    N     N_3   0.657868 0.856064 0.663164 -0.359503
N4    N     N_3   0.341508 0.856111 0.337569 -0.386970
O1    O     O_R   0.316770 0.614620 0.499990 -0.638566
O2    O     O_R   0.683230 0.614620 0.500010 -0.553325
O3    O     O_R   0.316800 0.385290 0.500000 -0.563059
O4    O     O_R   0.683200 0.385290 0.500000 -0.600244
O5    O     O_R   0.500010 0.614690 0.316770 -0.583620
O6    O     O_R   0.499990 0.614690 0.683230 -0.600158
O7    O     O_R   0.500040 0.385360 0.316770 -0.599402
O8    O     O_R   0.499960 0.385360 0.683230 -0.611722
Zn1   Zn    Zn3+2 0.500000 0.653120 0.500000 1.042190
Zn2   Zn    Zn3+2 0.500000 0.346880 0.500000 1.063962

loop_
_geom_bond_atom_site_label_1
_geom_bond_atom_site_label_2
_ccdc_geom_bond_type
C7    C10   A    
C20   N2    A    
C9    C24   S    
C11   C13   A    
C1    C17   S    
C22   N3    S    
C23   N1    A    
C6    H3    S    
H10   N4    S    
C12   O4    A    
O7    Zn2   S    
N1    Zn1   S    
C24   O7    A    
C3    F3    S    
H2    N4    S    
O1    Zn1   S    
H8    N3    S    
C19   H5    S    
N2    Zn2   S    
O4    Zn2   S    
C18   H4    S    
C14   C17   A    
C1    O1    A    
C2    O8    A    
C4    C7    A    
O5    Zn1   S    
O2    Zn1   S    
C12   O2    A    
C17   C19   A    
O8    Zn2   S    
C3    C8    A    
O3    Zn2   S    
C9    C11   A    
C21   C23   A    
C5    C6    A    
C13   F2    S    
C22   N1    A    
C15   C16   A    
C11   F1    S    
C14   F5    S    
C4    C6    A    
C21   N2    A    
O6    Zn1   S    
C3    C5    A    
C7    C8    A    
C21   H7    S    
C15   F6    S    
C16   C18   A    
C18   C19   A    
C24   O5    A    
C14   C15   A    
C1    O3    A    
H9    N3    S    
C2    O6    A    
C4    F4    S    
C2    C10   S    
C23   N4    S    
C12   C16   S    
C20   C22   A    
C8    C9    A    
C5    H1    S    
C10   C13   A    
C20   H6    S    
