data_mof_unit_17780.cif
_audit_creation_date              2012-12-10T20:53:10-0500
_audit_creation_method            fapswitch 2.2
_symmetry_space_group_name_H-M    P1
_symmetry_Int_Tables_number       1
_space_group_crystal_system       triclinic
_cell_length_a                    18.357408
_cell_length_b                    18.351979
_cell_length_c                    18.383654
_cell_angle_alpha                 59.931308
_cell_angle_beta                  59.951704
_cell_angle_gamma                 59.608292
_cell_volume                      4362.41146404

loop_
_atom_site_label
_atom_site_type_symbol
_atom_type_description
_atom_site_fract_x
_atom_site_fract_y
_atom_site_fract_z
_atom_type_partial_charge
C1    C     C_R   0.390179 0.108022 0.112282 0.779744
C2    C     C_R   0.342326 0.796364 0.800963 -0.141218
C3    C     C_R   0.906039 0.539136 0.035617 0.066186
C4    C     C_R   0.473431 0.094657 0.962998 0.063306
C5    C     C_R   0.526579 0.905333 0.037007 0.063291
C6    C     C_R   0.948926 0.943027 0.554307 -0.125973
C7    C     C_R   0.051072 0.056974 0.445698 -0.125965
C8    C     C_R   0.948644 0.550598 0.943367 -0.130114
C9    C     C_R   0.051364 0.449397 0.056626 -0.130116
C10   C     C_R   0.552559 0.948612 0.943298 -0.124045
C11   C     C_R   0.447435 0.051380 0.056707 -0.124037
C12   C     C_R   0.165460 0.042263 0.664945 -0.125176
C13   C     C_R   0.834537 0.957753 0.335058 -0.125187
C14   C     C_R   0.187419 0.562594 0.291320 -0.156564
C15   C     C_R   0.812576 0.437420 0.708676 -0.156558
C16   C     C_R   0.608598 0.291547 0.159604 -0.185742
C17   C     C_R   0.391374 0.708479 0.840438 -0.185744
C18   C     C_R   0.251330 0.046727 0.627448 -0.145294
C19   C     C_R   0.748666 0.953292 0.372548 -0.145332
C20   C     C_R   0.094870 0.583537 0.317371 0.093536
C21   C     C_R   0.609821 0.891975 0.887720 0.779781
C22   C     C_R   0.905127 0.416465 0.682626 0.093535
C23   C     C_R   0.588419 0.313616 0.085215 0.081406
C24   C     C_R   0.411576 0.686388 0.914820 0.081406
C25   C     C_R   0.322240 0.992001 0.576759 0.079632
C26   C     C_R   0.677757 0.008009 0.423246 0.079630
C27   C     C_R   0.050151 0.645897 0.254536 0.177384
C28   C     C_R   0.949844 0.354094 0.745461 0.177375
C29   C     C_R   0.618716 0.246223 0.050244 0.200149
C30   C     C_R   0.381301 0.753765 0.949802 0.200159
C31   C     C_R   0.306578 0.931410 0.565173 0.150996
C32   C     C_R   0.107629 0.112702 0.389833 0.775782
C33   C     C_R   0.693421 0.068587 0.434849 0.151007
C34   C     C_R   0.098471 0.685956 0.167085 -0.155995
C35   C     C_R   0.901521 0.314037 0.832910 -0.155999
C36   C     C_R   0.667080 0.158195 0.090907 -0.132787
C37   C     C_R   0.332938 0.841800 0.909154 -0.132792
C38   C     C_R   0.220449 0.926902 0.603688 -0.157949
C39   C     C_R   0.779553 0.073090 0.396344 -0.157925
C40   C     C_R   0.190535 0.664381 0.141789 -0.130119
C41   C     C_R   0.809454 0.335626 0.858206 -0.130093
C42   C     C_R   0.686668 0.137035 0.164925 -0.163828
C43   C     C_R   0.892369 0.887300 0.610168 0.775791
C44   C     C_R   0.313328 0.862985 0.835142 -0.163810
C45   C     C_R   0.150012 0.982522 0.652936 -0.128151
C46   C     C_R   0.849988 0.017479 0.347085 -0.128136
C47   C     C_R   0.990942 0.590194 0.466142 -0.203947
C48   C     C_R   0.009059 0.409807 0.533857 -0.203942
C49   C     C_R   0.591047 0.464863 0.988384 -0.259210
C50   C     C_R   0.408954 0.535135 0.011625 -0.259224
C51   C     C_R   0.467223 0.948607 0.588340 -0.223590
C52   C     C_R   0.532775 0.051401 0.411663 -0.223594
C53   C     C_R   0.944589 0.552300 0.555291 -0.044378
C54   C     C_R   0.107010 0.390541 0.113261 0.777149
C55   C     C_R   0.055413 0.447701 0.444708 -0.044376
C56   C     C_R   0.551841 0.555658 0.945782 -0.037353
C57   C     C_R   0.448160 0.444340 0.054226 -0.037348
C58   C     C_R   0.554638 0.948500 0.552941 -0.025095
C59   C     C_R   0.445360 0.051506 0.447061 -0.025097
C60   C     C_R   0.953845 0.460798 0.589792 0.023807
C61   C     C_R   0.046155 0.539203 0.410207 0.023802
C62   C     C_R   0.459100 0.591601 0.958204 0.029057
C63   C     C_R   0.540900 0.408397 0.041811 0.029066
C64   C     C_R   0.587763 0.001022 0.463629 0.033139
C65   C     C_R   0.892995 0.609458 0.886734 0.777137
C66   C     C_R   0.412235 0.998988 0.536374 0.033135
C67   C     C_R   0.110809 0.390522 0.389595 0.798522
C68   C     C_R   0.889191 0.609478 0.610405 0.798520
C69   C     C_R   0.390626 0.389693 0.110450 0.812072
C70   C     C_R   0.609374 0.610306 0.889552 0.812080
C71   C     C_R   0.389906 0.108644 0.390199 0.815569
C72   C     C_R   0.610094 0.891358 0.609801 0.815595
C73   C     C_R   0.188650 0.926545 0.428407 -0.145448
C74   C     C_R   0.811352 0.073451 0.571657 -0.145389
C75   C     C_R   0.188658 0.425813 0.928493 -0.137271
C76   C     C_R   0.235020 0.602493 0.203733 -0.088972
C77   C     C_R   0.811347 0.574136 0.071508 -0.137270
C78   C     C_R   0.448008 0.189442 0.926651 -0.111215
C79   C     C_R   0.552040 0.810545 0.073352 -0.111212
C80   C     C_R   0.232805 0.835444 0.444451 -0.179066
C81   C     C_R   0.767199 0.164554 0.555606 -0.179058
C82   C     C_R   0.231769 0.434766 0.839040 -0.194702
C83   C     C_R   0.768232 0.565155 0.160967 -0.194708
C84   C     C_R   0.472599 0.233287 0.835566 -0.175429
C85   C     C_R   0.527428 0.766699 0.164435 -0.175390
C86   C     C_R   0.185043 0.777437 0.499099 -0.106333
C87   C     C_R   0.764971 0.397524 0.796262 -0.088953
C88   C     C_R   0.814956 0.222563 0.500917 -0.106326
C89   C     C_R   0.182409 0.475476 0.783368 -0.072494
C90   C     C_R   0.817591 0.524461 0.216638 -0.072486
C91   C     C_R   0.520551 0.184965 0.777869 -0.082559
C92   C     C_R   0.479397 0.815025 0.222136 -0.082474
C93   C     C_R   0.092234 0.809310 0.537929 0.105389
C94   C     C_R   0.907762 0.190691 0.462064 0.105384
C95   C     C_R   0.089144 0.510384 0.815274 0.102600
C96   C     C_R   0.910859 0.489589 0.184723 0.102604
C97   C     C_R   0.546471 0.091767 0.809849 0.110149
C98   C     C_R   0.657647 0.203670 0.199094 -0.141216
C99   C     C_R   0.453436 0.908225 0.190161 0.110202
C100  C     C_R   0.043827 0.904305 0.519645 0.014652
C101  C     C_R   0.956170 0.095696 0.480359 0.014642
C102  C     C_R   0.042587 0.508285 0.906767 0.012447
C103  C     C_R   0.957420 0.491700 0.093227 0.012445
C104  C     C_R   0.525263 0.043754 0.904524 0.018357
C105  C     C_R   0.474706 0.956237 0.095483 0.018370
C106  C     C_R   0.094235 0.963002 0.464362 0.044521
C107  C     C_R   0.905764 0.036997 0.535662 0.044503
C108  C     C_R   0.093968 0.460842 0.964378 0.066176
H1    H     H_    0.779123 0.293898 0.487225 0.155675
H2    H     H_    0.338482 0.562649 0.019378 0.172242
H3    H     H_    0.442175 0.907541 0.656287 0.175219
H4    H     H_    0.557823 0.092467 0.343715 0.175226
H5    H     H_    0.230094 0.967948 0.388093 0.147176
H6    H     H_    0.769910 0.032045 0.612016 0.147125
H7    H     H_    0.231132 0.391863 0.968837 0.128899
H8    H     H_    0.768873 0.608076 0.031166 0.128901
H9    H     H_    0.409382 0.231428 0.968058 0.136243
H10   H     H_    0.590705 0.768558 0.031942 0.136215
H11   H     H_    0.304877 0.809500 0.415637 0.175771
H12   H     H_    0.220876 0.706102 0.512783 0.155676
H13   H     H_    0.695129 0.190495 0.584447 0.175725
H14   H     H_    0.303986 0.408070 0.813061 0.141809
H15   H     H_    0.696012 0.591819 0.186953 0.141795
H16   H     H_    0.453760 0.305471 0.809479 0.144886
H17   H     H_    0.546289 0.694513 0.190519 0.144878
H18   H     H_    0.227341 0.695464 0.074001 0.148765
H19   H     H_    0.772645 0.304546 0.925994 0.148770
H20   H     H_    0.724451 0.068946 0.195735 0.151740
H21   H     H_    0.275545 0.931080 0.804344 0.151732
H22   H     H_    0.083504 0.979016 0.682110 0.147996
H23   H     H_    0.782893 0.521744 0.285563 0.158660
H24   H     H_    0.916497 0.020981 0.317918 0.147987
H25   H     H_    0.306490 0.585050 0.183915 0.161666
H26   H     H_    0.693499 0.414977 0.816079 0.161653
H27   H     H_    0.673170 0.187248 0.256217 0.162516
H28   H     H_    0.326787 0.812804 0.743846 0.162506
H29   H     H_    0.110897 0.085108 0.703370 0.151294
H30   H     H_    0.889099 0.914916 0.296623 0.151286
H31   H     H_    0.222696 0.514677 0.338735 0.130063
H32   H     H_    0.777300 0.485346 0.661260 0.130059
H33   H     H_    0.586874 0.342683 0.186517 0.149515
H34   H     H_    0.217103 0.478173 0.714449 0.158672
H35   H     H_    0.413082 0.657354 0.813516 0.149514
H36   H     H_    0.262511 0.093371 0.637124 0.159951
H37   H     H_    0.737483 0.906659 0.362857 0.159951
H38   H     H_    0.064718 0.733556 0.118433 0.158617
H39   H     H_    0.935273 0.266429 0.881563 0.158619
H40   H     H_    0.690021 0.106125 0.064778 0.160744
H41   H     H_    0.310015 0.893858 0.935292 0.160738
H42   H     H_    0.208052 0.880000 0.595803 0.168434
H43   H     H_    0.791951 0.119980 0.404245 0.168427
H44   H     H_    0.010696 0.744058 0.572746 0.198127
H45   H     H_    0.462531 0.779394 0.293201 0.156033
H46   H     H_    0.018940 0.748005 0.660914 0.187087
H47   H     H_    0.981040 0.251976 0.339050 0.187121
H48   H     H_    0.989306 0.255967 0.427182 0.198089
H49   H     H_    0.008723 0.607112 0.739547 0.170910
H50   H     H_    0.008653 0.499356 0.778184 0.244824
H51   H     H_    0.991331 0.500658 0.221804 0.244820
H52   H     H_    0.991286 0.392889 0.260454 0.170928
H53   H     H_    0.554710 0.016563 0.751963 0.217066
H54   H     H_    0.656571 0.009611 0.743032 0.181399
H55   H     H_    0.343193 0.990363 0.256883 0.181570
H56   H     H_    0.537372 0.220596 0.706805 0.156071
H57   H     H_    0.444939 0.983468 0.248173 0.216942
H58   H     H_    0.985299 0.659911 0.439722 0.175529
H59   H     H_    0.014702 0.340089 0.560277 0.175534
H60   H     H_    0.661519 0.437351 0.980631 0.172240
I1    I     I_    0.911134 0.679664 0.286601 -0.423966
I2    I     I_    0.088864 0.320310 0.713400 -0.424003
I3    I     I_    0.593419 0.272937 0.937089 -0.443521
I4    I     I_    0.406637 0.727017 0.062945 -0.443553
I5    I     I_    0.410643 0.844460 0.492101 -0.463927
I6    I     I_    0.589359 0.155529 0.507930 -0.463923
N1    N     N_3   0.052185 0.741534 0.597781 -0.482126
N2    N     N_3   0.947806 0.258467 0.402174 -0.482132
N3    N     N_3   0.046423 0.539248 0.753631 -0.449366
N4    N     N_3   0.953574 0.460751 0.246363 -0.449359
N5    N     N_3   0.591549 0.050758 0.742823 -0.466048
N6    N     N_3   0.408189 0.949243 0.257203 -0.466222
O1    O     O_3   0.250000 0.250000 0.250000 -0.489084
O2    O     O_R   0.865800 0.694910 0.573470 -0.644732
O3    O     O_R   0.305090 0.426530 0.134200 -0.643659
O4    O     O_R   0.694910 0.573470 0.865800 -0.643659
O5    O     O_R   0.426530 0.134200 0.305090 -0.644170
O6    O     O_R   0.573470 0.865800 0.694910 -0.644191
O7    O     O_R   0.134190 0.426530 0.134200 -0.651114
O8    O     O_R   0.865810 0.573470 0.865800 -0.651120
O9    O     O_R   0.426530 0.134200 0.134190 -0.631459
O10   O     O_R   0.573470 0.865800 0.865810 -0.631518
O11   O     O_R   0.134200 0.134190 0.426530 -0.633870
O12   O     O_3   0.750000 0.750000 0.750000 -0.489084
O13   O     O_R   0.865800 0.865810 0.573470 -0.633878
O14   O     O_R   0.426530 0.305080 0.134210 -0.624396
O15   O     O_R   0.573470 0.694920 0.865790 -0.624390
O16   O     O_R   0.305080 0.134210 0.426530 -0.628671
O17   O     O_R   0.694920 0.865790 0.573470 -0.628662
O18   O     O_R   0.134210 0.426530 0.305080 -0.638351
O19   O     O_R   0.865790 0.573470 0.694920 -0.638354
O20   O     O_R   0.305080 0.134200 0.134200 -0.634869
O21   O     O_R   0.694920 0.865800 0.865800 -0.634824
O22   O     O_R   0.134200 0.134200 0.305080 -0.645511
O23   O     O_R   0.865800 0.865800 0.694920 -0.645499
O24   O     O_R   0.134200 0.305080 0.134200 -0.631026
O25   O     O_R   0.865800 0.694920 0.865800 -0.631020
O26   O     O_R   0.134200 0.305090 0.426530 -0.644729
Zn1   Zn    Zn3+2 0.206620 0.206630 0.380140 0.972119
Zn2   Zn    Zn3+2 0.793380 0.793370 0.619860 0.972122
Zn3   Zn    Zn3+2 0.206630 0.380140 0.206620 0.961825
Zn4   Zn    Zn3+2 0.793370 0.619860 0.793380 0.961824
Zn5   Zn    Zn3+2 0.380140 0.206620 0.206630 0.982302
Zn6   Zn    Zn3+2 0.619860 0.793380 0.793370 0.982274
Zn7   Zn    Zn3+2 0.206620 0.206620 0.206620 0.959221
Zn8   Zn    Zn3+2 0.793380 0.793380 0.793380 0.959259

loop_
_geom_bond_atom_site_label_1
_geom_bond_atom_site_label_2
_ccdc_geom_bond_type
H47   N2    S    
C25   C31   A    
C48   C55   A    
C101  C107  A    
O3    Zn3   S    
C49   C63   A    
O6    Zn6   S    
C41   H19   S    
O23   Zn8   S    
C36   C42   A    
C1    C11   S    
C1    O9    A    
C67   O18   A    
C58   C72   S    
C73   C106  A    
C5    C105  A    
C9    C108  A    
C29   C36   A    
C68   O2    A    
C33   C39   A    
C82   C89   A    
H46   N1    S    
C68   O19   A    
C34   C40   A    
C23   C29   A    
O1    Zn1   S    
H50   N3    S    
C42   C98   A    
C59   C66   A    
C22   C60   S    
C13   C46   A    
C97   N5    S    
C65   O25   A    
C52   H4    S    
C89   H34   S    
C74   H6    S    
C79   H10   S    
C39   H43   S    
C50   H2    S    
C73   H5    S    
O1    Zn3   S    
C20   C61   S    
O18   Zn3   S    
C19   C26   A    
C26   C64   S    
O12   Zn6   S    
C38   C45   A    
C80   C86   A    
C2    H28   S    
C74   C107  A    
H44   N1    S    
O8    Zn4   S    
C85   C92   A    
C15   C22   A    
O7    Zn3   S    
C28   C35   A    
C2    C44   A    
C70   O15   A    
C11   C105  A    
C51   H3    S    
C6    C107  A    
O5    Zn5   S    
C48   C60   A    
C92   H45   S    
C84   C91   A    
C5    C79   A    
C77   H8    S    
C27   I1    S    
O2    Zn2   S    
C95   C102  A    
C42   H20   S    
C47   C53   A    
C23   C63   S    
C72   O17   A    
C65   O8    A    
C45   H22   S    
C27   C34   A    
O13   Zn2   S    
C22   C28   A    
C2    C17   A    
O12   Zn2   S    
C87   H26   S    
C18   C25   A    
C71   O5    A    
C41   C87   A    
O12   Zn8   S    
C53   C68   S    
C53   C60   A    
C36   H40   S    
C57   C63   A    
C10   C21   S    
C58   C64   A    
C99   C105  A    
C88   C94   A    
C17   C24   A    
C13   C19   A    
C43   O23   A    
C97   C104  A    
C14   C20   A    
C78   H9    S    
C94   C101  A    
C49   H60   S    
C3    C8    A    
O9    Zn5   S    
C47   H58   S    
O26   Zn1   S    
H49   N3    S    
C44   H21   S    
O24   Zn7   S    
C98   H27   S    
C91   C97   A    
C40   C76   A    
C32   O11   A    
C81   H13   S    
C51   C66   A    
C6    C100  A    
C89   C95   A    
C4    C78   A    
C75   C108  A    
C86   C93   A    
C21   O21   A    
C52   C59   A    
C26   C33   A    
C38   H42   S    
C9    C103  A    
C40   H18   S    
C90   C96   A    
O20   Zn7   S    
C7    C106  A    
O1    Zn7   S    
C21   O10   A    
C51   C58   A    
C19   H37   S    
C29   I3    S    
C4    C11   A    
C102  C108  A    
C33   I6    S    
C93   C100  A    
O12   Zn4   S    
H54   N5    S    
C67   O26   A    
C69   O3    A    
C39   C46   A    
C90   H23   S    
C70   O4    A    
C20   C27   A    
O25   Zn8   S    
C16   C23   A    
C56   C70   S    
C54   O7    A    
C52   C64   A    
C17   H35   S    
C50   C62   A    
C56   C62   A    
C91   H56   S    
C1    O20   A    
H53   N5    S    
C88   H1    S    
H51   N4    S    
C12   C18   A    
C3    C77   A    
C79   C85   A    
C72   O6    A    
C57   C69   S    
C15   C87   A    
C15   H32   S    
C31   I5    S    
C3    C103  A    
C83   C90   A    
H48   N2    S    
C24   C62   S    
C7    C32   S    
C14   C76   A    
C85   H17   S    
O11   Zn1   S    
C50   C57   A    
C12   H29   S    
C25   C66   S    
C37   H41   S    
C12   C45   A    
C47   C61   A    
C55   C67   S    
C76   H25   S    
C75   C82   A    
O4    Zn4   S    
O10   Zn6   S    
C99   N6    S    
C84   H16   S    
C49   C56   A    
C100  C106  A    
C31   C38   A    
C43   O13   A    
O1    Zn5   S    
O19   Zn4   S    
O15   Zn6   S    
C13   H30   S    
O16   Zn1   S    
C18   H36   S    
C16   H33   S    
C5    C10   A    
O14   Zn5   S    
C46   H24   S    
C34   H38   S    
C16   C98   A    
C71   O16   A    
C48   H59   S    
C37   C44   A    
C54   O24   A    
C55   C61   A    
C30   I4    S    
C10   C104  A    
C69   O14   A    
C73   C80   A    
C93   N1    S    
C4    C104  A    
C35   H39   S    
O22   Zn7   S    
C32   O22   A    
C35   C41   A    
C24   C30   A    
O21   Zn8   S    
C80   H11   S    
C81   C88   A    
C78   C84   A    
C8    C65   S    
C75   H7    S    
C14   H31   S    
C30   C37   A    
C7    C101  A    
C96   C103  A    
C59   C71   S    
H55   N6    S    
H57   N6    S    
C77   C83   A    
C6    C43   S    
O17   Zn2   S    
C86   H12   S    
C9    C54   S    
C74   C81   A    
C96   N4    S    
C8    C102  A    
C82   H14   S    
C83   H15   S    
C28   I2    S    
C92   C99   A    
C94   N2    S    
H52   N4    S    
C95   N3    S    
