data_mof_unit_17299.cif
_audit_creation_date              2012-12-10T16:44:41-0500
_audit_creation_method            fapswitch 2.2
_symmetry_space_group_name_H-M    P1
_symmetry_Int_Tables_number       1
_space_group_crystal_system       triclinic
_cell_length_a                    15.076157
_cell_length_b                    8.735984
_cell_length_c                    7.418871
_cell_angle_alpha                 102.724319
_cell_angle_beta                  94.138991
_cell_angle_gamma                 93.043416
_cell_volume                      948.227442525

loop_
_atom_site_label
_atom_site_type_symbol
_atom_type_description
_atom_site_fract_x
_atom_site_fract_y
_atom_site_fract_z
_atom_type_partial_charge
C1    C     C_R   0.494651 0.200336 0.454824 0.892471
C2    C     C_R   0.505349 0.799664 0.545175 0.892471
C3    C     C_R   0.031012 0.222437 0.335344 0.402039
C4    C     C_R   0.968988 0.777563 0.664660 0.402038
C5    C     C_2   0.479221 0.034513 0.436599 -0.066456
C6    C     C_2   0.520779 0.965487 0.563400 -0.066456
C7    C     C_R   0.328870 0.498410 0.502308 0.893086
C8    C     C_R   0.671130 0.501591 0.497692 0.893084
C9    C     C_R   0.821951 0.627027 0.611053 0.358961
C10   C     C_R   0.178049 0.372973 0.388950 0.358960
C11   C     C_R   0.767752 0.503993 0.493117 -0.234704
C12   C     C_R   0.232248 0.496008 0.506884 -0.234705
C13   C     C_R   0.805697 0.380834 0.375355 0.352787
C14   C     C_R   0.194304 0.619168 0.624645 0.352788
C15   C     C_R   0.898441 0.367443 0.398014 -0.082514
C16   C     C_R   0.101559 0.632558 0.601989 -0.082514
C17   C     C_R   0.953228 0.501118 0.497768 -0.090533
C18   C     C_R   0.046772 0.498882 0.502236 -0.090533
C19   C     C_R   0.914385 0.636983 0.593318 -0.076482
C20   C     C_R   0.085615 0.363017 0.406685 -0.076483
C21   C     C_R   0.938033 0.224688 0.330682 0.398630
C22   C     C_R   0.061966 0.775312 0.669321 0.398631
Cu1   Cu    Cu3+1 0.510010 0.517380 0.684380 1.045082
Cu2   Cu    Cu3+1 0.489990 0.482620 0.315620 1.045081
H1    H     H_    0.430186 0.377713 0.948124 0.251102
H2    H     H_    0.569814 0.622286 0.051876 0.251102
N1    N     N_2   0.474890 0.456420 0.038520 -0.199649
N2    N     N_2   0.525110 0.543580 0.961480 -0.199648
O1    O     O_R   0.506510 0.286130 0.619770 -0.612584
O2    O     O_R   0.493490 0.713870 0.380230 -0.612585
O3    O     O_R   0.489600 0.256770 0.308360 -0.563400
O4    O     O_R   0.510400 0.743230 0.691640 -0.563399
O5    O     O_R   0.378710 0.514640 0.655720 -0.555639
O6    O     O_R   0.621290 0.485360 0.344280 -0.555638
O7    O     O_R   0.361800 0.485290 0.344300 -0.544912
O8    O     O_R   0.638200 0.514710 0.655700 -0.544911
Cl1   Cl    Cl    0.773986 0.756671 0.791698 -0.474227
Cl2   Cl    Cl    0.226014 0.243328 0.208305 -0.474226
Cl3   Cl    Cl    0.736781 0.253947 0.192332 -0.494454
Cl4   Cl    Cl    0.263221 0.746059 0.807663 -0.494455
Cl5   Cl    Cl    0.874845 0.040329 0.270018 -0.359532
Cl6   Cl    Cl    0.125154 0.959672 0.729984 -0.359530
Cl7   Cl    Cl    0.076098 0.035454 0.280942 -0.374943
Cl8   Cl    Cl    0.923901 0.964546 0.719062 -0.374943
C23   C     C_3   0.408635 0.950331 0.284776 -0.641549
H3    H     H_    0.371016 0.034483 0.222597 0.274296
H4    H     H_    0.440231 0.874139 0.170458 0.254695
H5    H     H_    0.358901 0.879933 0.342229 0.248429
C24   C     C_3   0.591365 0.049668 0.715223 -0.641549
H6    H     H_    0.628985 0.965517 0.777400 0.274296
H7    H     H_    0.641098 0.120068 0.657770 0.248429
H8    H     H_    0.559770 0.125860 0.829542 0.254696

loop_
_geom_bond_atom_site_label_1
_geom_bond_atom_site_label_2
_ccdc_geom_bond_type
C1    O3    A    
Cu1   Cu2   S    
H1    N1    S    
C11   C13   A    
H2    N2    S    
Cu2   N1    S    
C2    O2    A    
C10   Cl2   S    
C24   H8    S    
Cu1   O4    S    
C9    Cl1   S    
C17   C18   A    
Cu2   O3    S    
C3    C20   A    
C5    C23   S    
C16   C18   A    
C8    O6    A    
Cu1   N2    S    
C7    O5    A    
C3    Cl7   S    
C22   Cl6   S    
C10   C12   A    
C8    C11   S    
C1    C5    S    
C9    C11   A    
C1    O1    A    
C17   C19   A    
C12   C14   A    
Cu1   O8    S    
C18   C20   A    
C13   C15   A    
C6    C24   S    
C8    O8    A    
C5    C6    D    
C14   C16   A    
C7    C12   S    
C3    C21   A    
Cu2   O7    S    
C13   Cl3   S    
Cu2   O2    S    
C14   Cl4   S    
Cu1   O1    S    
C15   C21   A    
C4    C22   A    
C2    O4    A    
C24   H6    S    
C21   Cl5   S    
C23   H4    S    
C10   C20   A    
N1    N2    D    
C15   C17   A    
C16   C22   A    
C23   H5    S    
Cu1   O5    S    
C23   H3    S    
C4    C19   A    
C7    O7    A    
C9    C19   A    
Cu2   O6    S    
C2    C6    S    
C4    Cl8   S    
C24   H7    S    
