data_mof_unit_47817.cif
_audit_creation_date              2012-10-26T20:32:28-0400
_audit_creation_method            fapswitch 2.2
_symmetry_space_group_name_H-M    P1
_symmetry_Int_Tables_number       1
_space_group_crystal_system       triclinic
_cell_length_a                    19.344298
_cell_length_b                    10.823293
_cell_length_c                    9.536854
_cell_angle_alpha                 89.923847
_cell_angle_beta                  90.468603
_cell_angle_gamma                 90.143551
_cell_volume                      1996.64687705

loop_
_atom_site_label
_atom_site_type_symbol
_atom_type_description
_atom_site_fract_x
_atom_site_fract_y
_atom_site_fract_z
_atom_type_partial_charge
C1    C     C_R   0.501237 0.262270 0.500045 0.550400
C2    C     C_R   0.854276 0.492501 0.505878 0.027155
C3    C     C_R   0.510305 0.063346 0.625714 0.025955
C4    C     C_R   0.367467 0.500159 0.499471 0.544732
C5    C     C_R   0.508181 0.129195 0.499811 0.009699
C6    C     C_R   0.516033 0.064626 0.373060 -0.161234
C7    C     C_R   0.516037 0.935834 0.372951 -0.161140
C8    C     C_R   0.508237 0.870784 0.499594 0.007424
C9    C     C_R   0.510300 0.936178 0.625579 0.017415
C10   C     C_3   0.463749 0.929062 0.749551 -0.264622
C11   C     C_3   0.463828 0.069355 0.749845 -0.273801
C12   C     C_R   0.291558 0.501329 0.497980 0.013221
C13   C     C_R   0.524857 0.599523 0.073901 0.158814
C14   C     C_R   0.468540 0.408255 0.074050 -0.016334
C15   C     C_R   0.468469 0.408332 0.925133 -0.014083
C16   C     C_R   0.501300 0.737704 0.499888 0.549982
C17   C     C_R   0.524867 0.599483 0.926559 0.157275
C18   C     C_3   0.596223 0.651441 0.921785 -0.279477
C19   C     C_3   0.596200 0.651625 0.080989 -0.277573
C20   C     C_R   0.632637 0.499126 0.500527 0.546661
C21   C     C_R   0.255208 0.535609 0.618462 -0.136942
C22   C     C_R   0.183211 0.537950 0.616750 -0.121150
C23   C     C_R   0.930389 0.497671 0.501200 0.330170
C24   C     C_R   0.146367 0.504292 0.495158 0.036075
C25   C     C_R   0.182727 0.469305 0.374868 -0.120235
C26   C     C_R   0.254794 0.468740 0.375941 -0.133247
C27   C     C_R   0.852626 0.501986 0.772271 0.044279
C28   C     C_R   0.841874 0.600736 0.865020 -0.088880
C29   C     C_R   0.877146 0.605019 0.993474 -0.115590
C30   C     C_R   0.923027 0.510685 0.030397 -0.103240
C31   C     C_R   0.932664 0.410577 0.940390 -0.095947
C32   C     C_R   0.897366 0.405703 0.812017 -0.067432
C33   C     C_R   0.070369 0.504189 0.494904 0.339661
C34   C     C_R   0.817489 0.500175 0.633572 -0.011367
C35   C     C_R   0.745145 0.502672 0.629900 -0.135166
C36   C     C_R   0.708741 0.496394 0.502268 -0.000083
C37   C     C_R   0.745525 0.485485 0.376978 -0.138879
C38   C     C_R   0.817428 0.483162 0.378955 -0.135535
Cu1   Cu    Cu3+1 0.500000 0.499980 0.640670 0.935675
Cu2   Cu    Cu3+1 0.500000 0.500020 0.359330 0.934606
H1    H     H_    0.282392 0.561631 0.713723 0.128266
H2    H     H_    0.597390 0.745690 0.875451 0.124418
H3    H     H_    0.634225 0.586281 0.127303 0.147843
H4    H     H_    0.156416 0.564569 0.711248 0.134380
H5    H     H_    0.597210 0.746066 0.126525 0.119066
H6    H     H_    0.155518 0.443311 0.279646 0.130383
H7    H     H_    0.281697 0.441641 0.281725 0.125461
H8    H     H_    0.717383 0.507604 0.727686 0.117484
H9    H     H_    0.718862 0.478709 0.277073 0.124801
H10   H     H_    0.844336 0.476362 0.280328 0.129829
H11   H     H_    0.518701 0.112868 0.273658 0.130832
H12   H     H_    0.518611 0.887973 0.273500 0.129132
H13   H     H_    0.807198 0.675311 0.836741 0.104843
H14   H     H_    0.869316 0.681923 0.063967 0.113789
H15   H     H_    0.951009 0.515084 0.128881 0.146864
H16   H     H_    0.967794 0.337113 0.969738 0.120501
H17   H     H_    0.905568 0.327967 0.742761 0.115100
H18   H     H_    0.412417 0.888164 0.723646 0.142763
H19   H     H_    0.490065 0.888537 0.842824 0.132658
H20   H     H_    0.412522 0.110161 0.724363 0.134518
H21   H     H_    0.490358 0.109371 0.843183 0.129891
H22   H     H_    0.444084 0.332874 0.129407 0.112612
H23   H     H_    0.443788 0.333267 0.869164 0.112691
H24   H     H_    0.634074 0.585696 0.877497 0.143793
N1    N     N_R   0.034140 0.436773 0.399359 -0.244002
N2    N     N_R   0.965407 0.433517 0.402526 -0.254050
N3    N     N_R   0.966609 0.567207 0.594620 -0.210108
N4    N     N_R   0.035281 0.569824 0.592127 -0.230599
N5    N     N_R   0.500440 0.500930 0.147930 -0.229308
N6    N     N_R   0.500440 0.500890 0.852020 -0.229570
O1    O     O_R   0.500000 0.319640 0.618810 -0.503056
O2    O     O_R   0.500010 0.319680 0.381230 -0.514133
O3    O     O_R   0.400140 0.499970 0.618830 -0.504490
O4    O     O_R   0.400150 0.500010 0.381250 -0.500112
O5    O     O_R   0.499990 0.680320 0.618770 -0.498442
O6    O     O_R   0.500000 0.680360 0.381190 -0.503734
O7    O     O_R   0.599850 0.499990 0.618750 -0.503678
O8    O     O_R   0.599860 0.500030 0.381170 -0.503882

loop_
_geom_bond_atom_site_label_1
_geom_bond_atom_site_label_2
_ccdc_geom_bond_type
C16   O5    A    
C35   C36   A    
C33   N1    A    
C7    C8    A    
C1    O1    A    
C20   O7    A    
C1    C5    S    
Cu1   O7    S    
C23   N2    A    
C36   C37   A    
C10   H18   S    
C7    H12   S    
C18   C19   S    
C18   H2    S    
C30   C31   A    
C29   H14   S    
C14   H22   S    
C34   C35   A    
C23   N3    A    
C22   H4    S    
C8    C9    A    
Cu1   O5    S    
C31   H16   S    
C4    C12   S    
C29   C30   A    
C9    C10   S    
C4    O4    A    
C2    C34   A    
C17   N6    A    
C8    C16   S    
C21   C22   A    
C32   H17   S    
C35   H8    S    
C19   H3    S    
C27   C34   S    
C1    O2    A    
Cu2   N5    S    
C13   C19   S    
N3    N4    A    
C24   C25   A    
Cu1   Cu2   S    
C3    C5    A    
C25   C26   A    
C12   C21   A    
Cu2   O6    S    
C12   C26   A    
C37   C38   A    
C3    C9    A    
C37   H9    S    
C2    C38   A    
C31   C32   A    
C17   C18   S    
C4    O3    A    
C26   H7    S    
C21   H1    S    
C6    H11   S    
C14   N5    A    
C22   C24   A    
C11   H20   S    
C2    C23   S    
C15   N6    A    
C28   C29   A    
Cu1   O1    S    
Cu2   O2    S    
C27   C32   A    
C16   O6    A    
C11   H21   S    
C28   H13   S    
C19   H5    S    
C6    C7    A    
C38   H10   S    
C20   O8    A    
C30   H15   S    
C24   C33   S    
C13   C17   A    
C10   H19   S    
C18   H24   S    
C5    C6    A    
C13   N5    A    
Cu1   N6    S    
Cu2   O4    S    
Cu2   O8    S    
Cu1   O3    S    
C3    C11   S    
C10   C11   S    
C20   C36   S    
N1    N2    A    
C27   C28   A    
C15   H23   S    
C14   C15   A    
C25   H6    S    
C33   N4    A    
