data_mof_unit_63156.cif
_audit_creation_date              2012-12-10T21:33:24-0500
_audit_creation_method            fapswitch 2.2
_symmetry_space_group_name_H-M    P1
_symmetry_Int_Tables_number       1
_space_group_crystal_system       triclinic
_cell_length_a                    14.165516
_cell_length_b                    16.102862
_cell_length_c                    16.713377
_cell_angle_alpha                 87.92191
_cell_angle_beta                  90.121313
_cell_angle_gamma                 92.035766
_cell_volume                      3807.49745836

loop_
_atom_site_label
_atom_site_type_symbol
_atom_type_description
_atom_site_fract_x
_atom_site_fract_y
_atom_site_fract_z
_atom_type_partial_charge
Br1   Br    Br    0.604574 0.357280 0.086931 -0.497718
Br2   Br    Br    0.395426 0.642719 0.913069 -0.497718
C1    C     C_R   0.497005 0.489062 0.653290 0.890836
C2    C     C_R   0.539284 0.149452 0.539921 -0.261892
C3    C     C_R   0.517808 0.890871 0.517346 0.328767
C4    C     C_R   0.482192 0.109129 0.482654 0.328767
C5    C     C_R   0.570695 0.841161 0.570120 -0.284056
C6    C     C_R   0.429305 0.158839 0.429880 -0.284056
C7    C     C_R   0.566197 0.754257 0.565431 0.014885
C8    C     C_R   0.433803 0.245743 0.434569 0.014885
C9    C     C_R   0.671034 0.499729 0.500036 0.898703
C10   C     C_R   0.328966 0.500270 0.499964 0.898703
C11   C     C_1   0.772410 0.499299 0.500000 -0.195742
C12   C     C_R   0.502995 0.510938 0.346710 0.890836
C13   C     C_1   0.227590 0.500701 0.499999 -0.195742
C14   C     C_1   0.857590 0.499378 0.499991 0.003738
C15   C     C_1   0.142410 0.500622 0.500009 0.003738
C16   C     C_1   0.957405 0.499786 0.499996 0.021725
C17   C     C_1   0.042595 0.500214 0.500004 0.021725
C18   C     C_R   0.484422 0.482698 0.739486 -0.091464
C19   C     C_R   0.515578 0.517302 0.260514 -0.091464
C20   C     C_R   0.452409 0.551469 0.779280 -0.244658
C21   C     C_R   0.547591 0.448530 0.220720 -0.244657
C22   C     C_R   0.441630 0.547524 0.861674 0.278684
C23   C     C_R   0.491194 0.404230 0.864892 -0.186657
C24   C     C_R   0.558370 0.452476 0.138325 0.278684
C25   C     C_R   0.465046 0.474530 0.904830 0.271480
C26   C     C_R   0.534954 0.525470 0.095170 0.271480
C27   C     C_R   0.508806 0.595769 0.135108 -0.186657
C28   C     C_R   0.501010 0.408155 0.782166 -0.219805
C29   C     C_R   0.498991 0.591845 0.217834 -0.219805
C30   C     C_R   0.458295 0.763365 0.457495 -0.003936
C31   C     C_R   0.541705 0.236635 0.542505 -0.003936
C32   C     C_R   0.460716 0.850548 0.460079 -0.261892
H1    H     H_    0.564278 0.391630 0.253497 0.194222
H2    H     H_    0.418345 0.885543 0.417761 0.160995
H3    H     H_    0.615333 0.869701 0.614866 0.156717
H4    H     H_    0.384667 0.130299 0.385134 0.156717
H5    H     H_    0.607255 0.716536 0.606441 0.140243
H6    H     H_    0.392745 0.283463 0.393559 0.140243
H7    H     H_    0.435722 0.608370 0.746503 0.194222
H8    H     H_    0.508277 0.347847 0.898311 0.191676
H9    H     H_    0.491723 0.652153 0.101689 0.191676
H10   H     H_    0.524123 0.354048 0.751989 0.170623
H11   H     H_    0.475877 0.645952 0.248010 0.170623
H12   H     H_    0.585577 0.267331 0.586363 0.133327
H13   H     H_    0.414423 0.732668 0.413637 0.133327
H14   H     H_    0.581655 0.114456 0.582239 0.160995
N1    N     N_2   0.471012 0.473032 0.988442 -0.129014
N2    N     N_2   0.528988 0.526968 0.011558 -0.129014
N3    N     N_R   0.510540 0.716920 0.509720 -0.085735
N4    N     N_R   0.489460 0.283080 0.490280 -0.085736
N5    N     N_2   0.524502 0.979572 0.524344 -0.178419
N6    N     N_2   0.475498 0.020428 0.475656 -0.178419
O1    O     O_R   0.496230 0.422540 0.612660 -0.616729
O2    O     O_R   0.503770 0.577460 0.387340 -0.616728
O3    O     O_R   0.503000 0.561840 0.618900 -0.618388
O4    O     O_R   0.497000 0.438160 0.381100 -0.618388
O5    O     O_R   0.622900 0.430330 0.496880 -0.597475
O6    O     O_R   0.377100 0.569670 0.503120 -0.597475
O7    O     O_R   0.629670 0.569640 0.503120 -0.595685
O8    O     O_R   0.370330 0.430360 0.496880 -0.595684
Zn1   Zn    Zn3+2 0.495480 0.406980 0.495830 0.950751
Zn2   Zn    Zn3+2 0.504520 0.593020 0.504170 0.950751

loop_
_geom_bond_atom_site_label_1
_geom_bond_atom_site_label_2
_ccdc_geom_bond_type
C23   H8    S    
O7    Zn2   S    
C12   O2    A    
O2    Zn2   S    
C30   N3    A    
C13   C15   T    
O8    Zn1   S    
C23   C25   A    
C10   O8    A    
C24   C26   A    
C7    N3    A    
C22   C25   A    
O6    Zn2   S    
C8    N4    A    
C3    C32   A    
C5    H3    S    
C1    C18   S    
C27   C29   A    
C18   C28   A    
N5    N6    D    
C27   H9    S    
C31   N4    A    
C31   H12   S    
C19   C29   A    
C28   H10   S    
O1    Zn1   S    
C6    H4    S    
C4    N6    S    
C9    C11   S    
C9    O5    A    
C1    O3    A    
C12   C19   S    
C6    C8    A    
C26   C27   A    
C15   C17   S    
C18   C20   A    
C16   C17   T    
C10   C13   S    
C32   H2    S    
C19   C21   A    
Br2   C22   S    
Br1   C24   S    
C12   O4    A    
C21   H1    S    
C20   C22   A    
O5    Zn1   S    
C21   C24   A    
C20   H7    S    
C2    C4    A    
C10   O6    A    
C5    C7    A    
C7    H5    S    
C2    H14   S    
O3    Zn2   S    
C14   C16   S    
N1    N2    D    
C29   H11   S    
C11   C14   T    
C3    N5    S    
O4    Zn1   S    
C3    C5    A    
C2    C31   A    
C23   C28   A    
C8    H6    S    
C4    C6    A    
C1    O1    A    
C26   N2    S    
N3    Zn2   S    
C25   N1    S    
C30   H13   S    
C9    O7    A    
N4    Zn1   S    
C30   C32   A    
