data_mof_unit_49398.cif
_audit_creation_date              2012-10-26T20:50:45-0400
_audit_creation_method            fapswitch 2.2
_symmetry_space_group_name_H-M    P1
_symmetry_Int_Tables_number       1
_space_group_crystal_system       triclinic
_cell_length_a                    10.996127
_cell_length_b                    10.813825
_cell_length_c                    9.539592
_cell_angle_alpha                 89.810384
_cell_angle_beta                  102.328509
_cell_angle_gamma                 90.732509
_cell_volume                      1108.1051275

loop_
_atom_site_label
_atom_site_type_symbol
_atom_type_description
_atom_site_fract_x
_atom_site_fract_y
_atom_site_fract_z
_atom_type_partial_charge
C1    C     C_R   0.502756 0.262341 0.500744 0.537069
C2    C     C_R   0.430945 0.416348 0.057756 -0.020700
C3    C     C_R   0.430834 0.416423 0.908824 -0.017701
C4    C     C_R   0.262538 0.495586 0.442301 0.540840
C5    C     C_R   0.560501 0.591645 0.940529 0.145568
C6    C     C_3   0.695724 0.622775 0.965396 -0.258675
C7    C     C_3   0.697022 0.622066 0.125128 -0.152468
C8    C     C_R   0.502494 0.737759 0.500381 0.545707
C9    C     C_R   0.737223 0.495894 0.557766 0.553061
C10   C     C_2   0.127685 0.478198 0.411302 -0.127087
C11   C     C_2   0.068428 0.464199 0.519348 -0.142388
C12   C     C_R   0.516272 0.129517 0.503217 0.003562
C13   C     C_2   0.872446 0.487217 0.589752 -0.115976
C14   C     C_2   0.934018 0.444005 0.492577 0.231047
C15   C     C_R   0.528307 0.063564 0.631341 0.020560
C16   C     C_3   0.828716 0.273994 0.379389 0.037120
C17   C     C_3   0.925200 0.178380 0.359969 -0.279296
C18   C     C_3   0.874083 0.046916 0.365739 -0.488943
C19   C     C_3   0.727189 0.748375 0.196548 -0.415197
C20   C     C_R   0.522362 0.065215 0.377066 -0.175529
C21   C     C_R   0.521232 0.936460 0.376654 -0.172458
C22   C     C_R   0.515555 0.871019 0.502696 0.004864
C23   C     C_R   0.528250 0.936285 0.631153 0.015738
C24   C     C_3   0.453905 0.928360 0.745028 -0.264668
C25   C     C_3   0.453810 0.068840 0.745032 -0.272207
C26   C     C_R   0.560492 0.592047 0.088166 0.172101
Cu1   Cu    Cu3+1 0.499990 0.499980 0.640670 0.923908
Cu2   Cu    Cu3+1 0.500010 0.500020 0.359330 0.934460
H1    H     H_    0.507887 0.109737 0.846477 0.131264
H2    H     H_    0.520670 0.113513 0.277022 0.124672
H3    H     H_    0.517464 0.888985 0.276156 0.132060
H4    H     H_    0.359988 0.886369 0.705737 0.142112
H5    H     H_    0.508183 0.888303 0.846409 0.131100
H6    H     H_    0.359862 0.108509 0.705545 0.130328
H7    H     H_    0.743068 0.258833 0.295009 0.162072
H8    H     H_    0.801196 0.259097 0.484281 0.119498
H9    H     H_    0.951190 0.193223 0.254732 0.168975
H10   H     H_    0.010201 0.189887 0.446191 0.159244
H11   H     H_    0.848362 0.029660 0.470636 0.153778
H12   H     H_    0.376967 0.347124 0.100592 0.112859
H13   H     H_    0.946088 0.979517 0.352394 0.146562
H14   H     H_    0.790654 0.032384 0.278146 0.145470
H15   H     H_    0.666622 0.821324 0.137283 0.117353
H16   H     H_    0.714604 0.744359 0.308786 0.171685
H17   H     H_    0.825808 0.773351 0.198697 0.131313
H18   H     H_    0.376702 0.347317 0.839888 0.108737
H19   H     H_    0.751536 0.546873 0.933788 0.147200
H20   H     H_    0.712358 0.714970 0.920432 0.127635
H21   H     H_    0.753477 0.546173 0.183122 0.211896
H22   H     H_    0.118714 0.472324 0.630301 0.115047
H23   H     H_    0.923299 0.521304 0.693120 0.044047
H24   H     H_    0.077341 0.473350 0.300227 0.141204
N1    N     N_R   0.500780 0.500930 0.148120 -0.235034
N2    N     N_R   0.500790 0.500890 0.852210 -0.231337
O1    O     O_R   0.500000 0.319640 0.618810 -0.502705
O2    O     O_R   0.500010 0.319680 0.381230 -0.522230
O3    O     O_R   0.320680 0.500000 0.575130 -0.498154
O4    O     O_R   0.320690 0.500040 0.337550 -0.495852
O5    O     O_R   0.499990 0.680320 0.618770 -0.495254
O6    O     O_R   0.500000 0.680360 0.381190 -0.507440
O7    O     O_R   0.679310 0.499960 0.662450 -0.513132
O8    O     O_R   0.679320 0.500000 0.424870 -0.462077
O9    O     O_3   0.873059 0.395366 0.361219 -0.575206

loop_
_geom_bond_atom_site_label_1
_geom_bond_atom_site_label_2
_ccdc_geom_bond_type
C4    O3    A    
C8    C22   S    
Cu2   N1    S    
C24   H4    S    
C6    C7    S    
C16   O9    S    
Cu2   O4    S    
C3    H18   S    
C19   H16   S    
C24   H5    S    
C12   C15   A    
C25   H6    S    
C23   C24   S    
C10   H24   S    
C12   C20   A    
C15   C23   A    
C2    C3    A    
Cu2   O2    S    
Cu1   N2    S    
C16   H7    S    
C11   H22   S    
C20   H2    S    
C13   C14   D    
C8    O6    A    
C21   H3    S    
C16   H8    S    
C7    C26   S    
C6    H20   S    
C9    O7    A    
C14   O9    S    
C6    H19   S    
C3    N2    A    
C1    O2    A    
C19   H15   S    
C17   C18   S    
C7    C19   S    
C17   H10   S    
C18   H14   S    
C8    O5    A    
C25   H1    S    
C5    C6    S    
C11   C14   S    
Cu1   O1    S    
C1    O1    A    
C15   C25   S    
C10   C11   D    
C17   H9    S    
C4    C10   S    
C5    C26   A    
C26   N1    A    
C2    H12   S    
C5    N2    A    
Cu2   O6    S    
C24   C25   S    
C7    H21   S    
Cu1   O3    S    
C18   H13   S    
C4    O4    A    
Cu1   Cu2   S    
C13   H23   S    
C18   H11   S    
C9    C13   S    
C22   C23   A    
Cu1   O5    S    
Cu1   O7    S    
C20   C21   A    
C21   C22   A    
C1    C12   S    
C19   H17   S    
C9    O8    A    
C16   C17   S    
C2    N1    A    
Cu2   O8    S    
