data_mof_unit_48870.cif
_audit_creation_date              2012-12-11T14:28:17-0500
_audit_creation_method            fapswitch 2.2
_symmetry_space_group_name_H-M    P1
_symmetry_Int_Tables_number       1
_space_group_crystal_system       triclinic
_cell_length_a                    10.912018
_cell_length_b                    19.754765
_cell_length_c                    18.5853
_cell_angle_alpha                 89.999545
_cell_angle_beta                  89.998925
_cell_angle_gamma                 89.696509
_cell_volume                      4006.27193344

loop_
_atom_site_label
_atom_site_type_symbol
_atom_type_description
_atom_site_fract_x
_atom_site_fract_y
_atom_site_fract_z
_atom_type_partial_charge
C1    C     C_R   0.316255 0.935573 0.637117 0.535773
C2    C     C_R   0.316255 0.935577 0.862883 0.535756
C3    C     C_R   0.315819 0.061804 0.363066 0.506222
C4    C     C_R   0.315823 0.061800 0.136935 0.506161
C5    C     C_R   0.816255 0.435572 0.637117 0.535769
C6    C     C_R   0.816257 0.435574 0.862882 0.535780
C7    C     C_R   0.815818 0.561803 0.363066 0.506221
C8    C     C_R   0.815822 0.561799 0.136934 0.506223
C9    C     C_3   0.149914 0.718360 0.468293 -0.088787
C10   C     C_3   0.149924 0.718350 0.031700 -0.088806
C11   C     C_3   0.151914 0.299504 0.519199 -0.096667
C12   C     C_3   0.151827 0.299519 0.980827 -0.096713
C13   C     C_3   0.649947 0.218368 0.468292 -0.088764
C14   C     C_3   0.649647 0.218239 0.031668 -0.088639
C15   C     C_3   0.651894 0.799510 0.519194 -0.096675
C16   C     C_3   0.651898 0.799511 0.980805 -0.096696
C17   C     C_3   0.018237 0.723796 0.439723 0.007750
C18   C     C_3   0.018251 0.723798 0.060275 0.007744
C19   C     C_3   0.057538 0.261727 0.565264 0.015811
C20   C     C_3   0.057443 0.261751 0.934762 0.015808
C21   C     C_3   0.518267 0.223804 0.439725 0.007804
C22   C     C_3   0.517967 0.223686 0.060251 0.007601
C23   C     C_3   0.557540 0.761720 0.565264 0.015812
C24   C     C_3   0.557543 0.761723 0.934737 0.015826
C25   C     C_R   0.321779 0.036296 0.436825 -0.035623
C26   C     C_R   0.321791 0.036291 0.063179 -0.035630
C27   C     C_R   0.322411 0.954871 0.560295 -0.033689
C28   C     C_R   0.322418 0.954875 0.939704 -0.033734
C29   C     C_R   0.821775 0.536292 0.436824 -0.035615
C30   C     C_R   0.821786 0.536286 0.063177 -0.035619
C31   C     C_R   0.822411 0.454869 0.560295 -0.033708
C32   C     C_R   0.822426 0.454863 0.939707 -0.033701
C33   C     C_R   0.548921 0.038123 0.439855 -0.090735
C34   C     C_R   0.548940 0.038113 0.060150 -0.090662
C35   C     C_R   0.549891 0.948500 0.551209 -0.116787
C36   C     C_R   0.549900 0.948509 0.948778 -0.116697
C37   C     C_R   0.048914 0.538130 0.439859 -0.090706
C38   C     C_R   0.048925 0.538127 0.060141 -0.090699
C39   C     C_R   0.049892 0.448502 0.551209 -0.116780
C40   C     C_R   0.049907 0.448505 0.948785 -0.116796
C41   C     C_R   0.658074 0.009409 0.460295 0.428567
C42   C     C_R   0.658090 0.009405 0.039696 0.428452
C43   C     C_R   0.658826 0.965347 0.517154 0.385454
C44   C     C_R   0.658836 0.965355 0.982825 0.385491
C45   C     C_R   0.158069 0.509416 0.460296 0.428561
C46   C     C_R   0.158081 0.509414 0.039702 0.428564
C47   C     C_R   0.158825 0.465350 0.517153 0.385457
C48   C     C_R   0.158836 0.465350 0.982843 0.385451
C49   C     C_R   0.435223 0.972467 0.527008 -0.043345
C50   C     C_R   0.435234 0.972469 0.972989 -0.043314
C51   C     C_R   0.434846 0.015729 0.467078 -0.058525
C52   C     C_R   0.434861 0.015726 0.032924 -0.058414
C53   C     C_R   0.935222 0.472467 0.527009 -0.043354
C54   C     C_R   0.935237 0.472466 0.972989 -0.043322
C55   C     C_R   0.934843 0.515729 0.467079 -0.058521
C56   C     C_R   0.934855 0.515726 0.032921 -0.058489
C57   C     C_R   0.210644 0.972081 0.526141 -0.001692
C58   C     C_R   0.210653 0.972084 0.973862 -0.001708
C59   C     C_R   0.210707 0.021140 0.472348 0.014313
C60   C     C_R   0.210720 0.021143 0.027653 0.014280
C61   C     C_R   0.710642 0.472077 0.526141 -0.001697
C62   C     C_R   0.710664 0.472056 0.973872 -0.001725
C63   C     C_R   0.710703 0.521134 0.472347 0.014312
C64   C     C_R   0.710718 0.521123 0.027657 0.014316
C65   C     C_R   0.096122 0.949176 0.551720 -0.090062
C66   C     C_R   0.096131 0.949180 0.948287 -0.090054
C67   C     C_R   0.098987 0.055266 0.457364 -0.084747
C68   C     C_R   0.099004 0.055274 0.042635 -0.084755
C69   C     C_R   0.596121 0.449172 0.551721 -0.090068
C70   C     C_R   0.596152 0.449142 0.948298 -0.090070
C71   C     C_R   0.598981 0.555259 0.457363 -0.084742
C72   C     C_R   0.598997 0.555251 0.042631 -0.084736
C73   C     C_R   0.995768 0.991316 0.547846 -0.038694
C74   C     C_R   0.995782 0.991324 0.952156 -0.038663
C75   C     C_R   0.994850 0.043175 0.498621 -0.061736
C76   C     C_R   0.994866 0.043186 0.001378 -0.061710
C77   C     C_R   0.495766 0.491310 0.547847 -0.038708
C78   C     C_R   0.495802 0.491287 0.952150 -0.038627
C79   C     C_R   0.494847 0.543169 0.498623 -0.061735
C80   C     C_R   0.494873 0.543157 0.001365 -0.061705
C81   C     C_R   0.133856 0.758363 0.644179 0.530101
C82   C     C_R   0.133860 0.758364 0.855819 0.530119
C83   C     C_R   0.128936 0.242165 0.353780 0.517378
C84   C     C_R   0.128925 0.242167 0.146234 0.517376
C85   C     C_R   0.633877 0.258369 0.644177 0.530123
C86   C     C_R   0.633824 0.258352 0.855806 0.530098
C87   C     C_R   0.628929 0.742166 0.353776 0.517364
C88   C     C_R   0.628929 0.742166 0.146224 0.517369
C89   C     C_R   0.535960 0.772766 0.642180 0.535525
C90   C     C_R   0.535957 0.772768 0.857821 0.535534
C91   C     C_R   0.495007 0.212233 0.362383 0.521580
C92   C     C_R   0.494871 0.212181 0.137689 0.521946
C93   C     C_R   0.035954 0.272769 0.642179 0.535541
C94   C     C_R   0.035900 0.272788 0.857839 0.535556
C95   C     C_R   0.995043 0.712247 0.362366 0.521734
C96   C     C_R   0.995062 0.712253 0.137632 0.521753
C97   C     C_3   0.997227 0.791379 0.479191 -0.102721
C98   C     C_3   0.997255 0.791384 0.020813 -0.102724
C99   C     C_3   0.085880 0.194309 0.529172 -0.156179
C100  C     C_3   0.085774 0.194329 0.970850 -0.156177
C101  C     C_3   0.497251 0.291385 0.479191 -0.102706
C102  C     C_3   0.497018 0.291287 0.020791 -0.102656
C103  C     C_3   0.585905 0.694305 0.529168 -0.156173
C104  C     C_3   0.585901 0.694308 0.970834 -0.156183
C105  C     C_3   0.129529 0.786369 0.507601 -0.158045
C106  C     C_3   0.129553 0.786362 0.992396 -0.158042
C107  C     C_3   0.180115 0.231645 0.482623 -0.151295
C108  C     C_3   0.180014 0.231656 0.017396 -0.151313
C109  C     C_3   0.629557 0.286375 0.507600 -0.158055
C110  C     C_3   0.629311 0.286264 0.992394 -0.157918
C111  C     C_3   0.680115 0.731655 0.482614 -0.151299
C112  C     C_3   0.680113 0.731656 0.017386 -0.151295
C113  C     C_3   0.081843 0.747316 0.573401 0.061182
C114  C     C_3   0.081847 0.747315 0.926597 0.061190
C115  C     C_3   0.081175 0.247258 0.426619 0.063585
C116  C     C_3   0.081096 0.247273 0.073410 0.063594
C117  C     C_3   0.581877 0.247320 0.573399 0.061185
C118  C     C_3   0.581654 0.247254 0.926571 0.061107
C119  C     C_3   0.581163 0.747258 0.426616 0.063580
C120  C     C_3   0.581161 0.747261 0.073385 0.063581
C121  C     C_3   0.950529 0.752138 0.546285 -0.151839
C122  C     C_3   0.950535 0.752148 0.953720 -0.151828
C123  C     C_3   0.985753 0.209196 0.471843 -0.154922
C124  C     C_3   0.985663 0.209215 0.028189 -0.154887
C125  C     C_3   0.450560 0.252141 0.546283 -0.151842
C126  C     C_3   0.450347 0.252085 0.953676 -0.151859
C127  C     C_3   0.485763 0.709182 0.471844 -0.154918
C128  C     C_3   0.485761 0.709187 0.028158 -0.154910
C129  C     C_3   0.969005 0.684174 0.505366 -0.146918
C130  C     C_3   0.968999 0.684181 0.994635 -0.146919
C131  C     C_3   0.955004 0.276845 0.510002 -0.093006
C132  C     C_3   0.954916 0.276867 0.990032 -0.093003
C133  C     C_3   0.469045 0.184181 0.505367 -0.146943
C134  C     C_3   0.468772 0.184099 0.994572 -0.146945
C135  C     C_3   0.454992 0.776827 0.510006 -0.093008
C136  C     C_3   0.454997 0.776833 0.989996 -0.092997
C137  C     C_3   0.099288 0.680650 0.533856 0.167422
C138  C     C_3   0.099278 0.680646 0.966138 0.167416
C139  C     C_3   0.050751 0.312671 0.463458 0.161622
C140  C     C_3   0.050675 0.312687 0.036574 0.161627
C141  C     C_3   0.599328 0.180656 0.533855 0.167418
C142  C     C_3   0.599047 0.180572 0.966088 0.167342
C143  C     C_3   0.550718 0.812666 0.463458 0.161613
C144  C     C_3   0.550724 0.812669 0.036542 0.161591
Cr1   Cr    Cr6+3 0.488160 0.884660 0.750000 0.988759
Cr2   Cr    Cr6+3 0.488160 0.115340 0.250000 1.033629
Cr3   Cr    Cr6+3 0.988160 0.384660 0.750000 0.988761
Cr4   Cr    Cr6+3 0.988160 0.615340 0.250000 1.033685
Cr5   Cr    Cr6+3 0.173480 0.883120 0.750000 0.992276
Cr6   Cr    Cr6+3 0.173480 0.116880 0.250000 1.029831
Cr7   Cr    Cr6+3 0.673480 0.383120 0.750000 0.992262
Cr8   Cr    Cr6+3 0.673480 0.616880 0.250000 1.029864
Cr9   Cr    Cr6+3 0.333410 0.727260 0.750000 0.993162
Cr10  Cr    Cr6+3 0.333410 0.272740 0.250000 1.051652
Cr11  Cr    Cr6+3 0.833410 0.227260 0.750000 0.993171
Cr12  Cr    Cr6+3 0.833410 0.772740 0.250000 1.051675
H1    H     H_    0.189345 0.831034 0.506135 0.092346
H2    H     H_    0.189373 0.831023 0.993855 0.092343
H3    H     H_    0.265648 0.211166 0.461414 0.107348
H4    H     H_    0.265520 0.211155 0.038616 0.107359
H5    H     H_    0.689375 0.331035 0.506133 0.092350
H6    H     H_    0.689126 0.330915 0.993884 0.092352
H7    H     H_    0.765654 0.711203 0.461372 0.107391
H8    H     H_    0.765647 0.711202 0.038631 0.107397
H9    H     H_    0.923492 0.986251 0.586768 0.194469
H10   H     H_    0.923516 0.986265 0.913229 0.194492
H11   H     H_    0.915399 0.075380 0.495311 0.174342
H12   H     H_    0.915424 0.075398 0.004683 0.174293
H13   H     H_    0.423488 0.486243 0.586767 0.194477
H14   H     H_    0.423545 0.486224 0.913216 0.194449
H15   H     H_    0.415395 0.575372 0.495315 0.174351
H16   H     H_    0.415428 0.575368 0.004657 0.174319
H17   H     H_    0.953824 0.837451 0.456064 0.188904
H18   H     H_    0.953868 0.837460 0.043944 0.188881
H19   H     H_    0.105025 0.148467 0.561724 0.130603
H20   H     H_    0.104918 0.148491 0.938291 0.130589
H21   H     H_    0.453855 0.337461 0.456065 0.188901
H22   H     H_    0.453624 0.337369 0.043896 0.188914
H23   H     H_    0.605075 0.648463 0.561715 0.130598
H24   H     H_    0.605069 0.648466 0.938286 0.130584
H25   H     H_    0.874695 0.764054 0.583749 0.122361
H26   H     H_    0.874706 0.764071 0.916257 0.122371
H27   H     H_    0.920265 0.174664 0.445918 0.119154
H28   H     H_    0.920164 0.174686 0.054110 0.119167
H29   H     H_    0.374728 0.264050 0.583749 0.122361
H30   H     H_    0.374535 0.264026 0.916213 0.122394
H31   H     H_    0.420269 0.674651 0.445923 0.119160
H32   H     H_    0.420270 0.674651 0.054075 0.119178
H33   H     H_    0.902841 0.642306 0.507653 0.095162
H34   H     H_    0.902834 0.642314 0.992354 0.095160
H35   H     H_    0.867603 0.297314 0.529178 0.095276
H36   H     H_    0.867494 0.297335 0.970896 0.095229
H37   H     H_    0.402908 0.142308 0.507635 0.095153
H38   H     H_    0.402583 0.142262 0.992227 0.095290
H39   H     H_    0.367577 0.797272 0.529189 0.095302
H40   H     H_    0.367595 0.797290 0.970812 0.095297
H41   H     H_    0.229044 0.704267 0.434430 0.140565
H42   H     H_    0.229046 0.704242 0.065561 0.140575
H43   H     H_    0.225134 0.329245 0.543265 0.201872
H44   H     H_    0.225059 0.329253 0.956771 0.201863
H45   H     H_    0.729070 0.204277 0.434423 0.140569
H46   H     H_    0.728823 0.204100 0.065475 0.140629
H47   H     H_    0.725116 0.829249 0.543259 0.201876
H48   H     H_    0.725120 0.829256 0.956748 0.201875
H49   H     H_    0.558069 0.079795 0.404751 0.191531
H50   H     H_    0.558098 0.079777 0.095264 0.191517
H51   H     H_    0.557513 0.912955 0.592538 0.195799
H52   H     H_    0.557524 0.912967 0.907446 0.195803
H53   H     H_    0.058055 0.579804 0.404760 0.191526
H54   H     H_    0.058062 0.579802 0.095241 0.191522
H55   H     H_    0.057515 0.412955 0.592536 0.195789
H56   H     H_    0.057537 0.412968 0.907450 0.195785
H57   H     H_    0.094674 0.096628 0.420125 0.166394
H58   H     H_    0.094698 0.096640 0.079870 0.166391
H59   H     H_    0.087654 0.905345 0.585475 0.164271
H60   H     H_    0.087663 0.905347 0.914535 0.164268
H61   H     H_    0.594667 0.596621 0.420123 0.166398
H62   H     H_    0.594681 0.596619 0.079863 0.166379
H63   H     H_    0.587654 0.405342 0.585477 0.164273
H64   H     H_    0.587701 0.405309 0.914547 0.164232
O1    O     O_R   0.575450 0.828820 0.667950 -0.543806
O2    O     O_R   0.575450 0.828820 0.832050 -0.543802
O3    O     O_R   0.575450 0.171180 0.332050 -0.517469
O4    O     O_R   0.575450 0.171180 0.167950 -0.517591
O5    O     O_R   0.075450 0.328820 0.667950 -0.543807
O6    O     O_R   0.075450 0.328820 0.832050 -0.543808
O7    O     O_R   0.075450 0.671180 0.332050 -0.517526
O8    O     O_R   0.075450 0.671180 0.167950 -0.517535
O9    O     O_R   0.416860 0.942890 0.674680 -0.517340
O10   O     O_R   0.416860 0.942890 0.825320 -0.517384
O11   O     O_R   0.416860 0.057110 0.325320 -0.519557
O12   O     O_R   0.416860 0.057110 0.174680 -0.519626
O13   O     O_R   0.916860 0.442890 0.674680 -0.517340
O14   O     O_R   0.916860 0.442890 0.825320 -0.517362
O15   O     O_R   0.916860 0.557110 0.325320 -0.519559
O16   O     O_R   0.916860 0.557110 0.174680 -0.519563
O17   O     O_R   0.213790 0.953680 0.668330 -0.513188
O18   O     O_R   0.213790 0.953680 0.831670 -0.513186
O19   O     O_R   0.213790 0.046320 0.331670 -0.489401
O20   O     O_R   0.213790 0.046320 0.168330 -0.489388
O21   O     O_R   0.713790 0.453680 0.668330 -0.513187
O22   O     O_R   0.713790 0.453680 0.831670 -0.513175
O23   O     O_R   0.713790 0.546320 0.331670 -0.489412
O24   O     O_R   0.713790 0.546320 0.168330 -0.489410
O25   O     O_R   0.121360 0.817890 0.672660 -0.539952
O26   O     O_R   0.121360 0.817890 0.827340 -0.539947
O27   O     O_R   0.121360 0.182110 0.327340 -0.539657
O28   O     O_R   0.121360 0.182110 0.172660 -0.539686
O29   O     O_R   0.621360 0.317890 0.672660 -0.539974
O30   O     O_R   0.621360 0.317890 0.827340 -0.539951
O31   O     O_R   0.621360 0.682110 0.327340 -0.539664
O32   O     O_R   0.621360 0.682110 0.172660 -0.539652
O33   O     O_R   0.206850 0.711370 0.665820 -0.528427
O34   O     O_R   0.206850 0.711370 0.834180 -0.528430
O35   O     O_R   0.206850 0.288630 0.334180 -0.514831
O36   O     O_R   0.206850 0.288630 0.165820 -0.514876
O37   O     O_R   0.706850 0.211370 0.665820 -0.528443
O38   O     O_R   0.706850 0.211370 0.834180 -0.528403
O39   O     O_R   0.706850 0.788630 0.334180 -0.514825
O40   O     O_R   0.706850 0.788630 0.165820 -0.514824
O41   O     O_R   0.457710 0.733190 0.672630 -0.497417
O42   O     O_R   0.457710 0.733190 0.827370 -0.497418
O43   O     O_R   0.457710 0.266810 0.327370 -0.477050
O44   O     O_R   0.457710 0.266810 0.172630 -0.477125
O45   O     O_R   0.957710 0.233190 0.672630 -0.497419
O46   O     O_R   0.957710 0.233190 0.827370 -0.497399
O47   O     O_R   0.957710 0.766810 0.327370 -0.477123
O48   O     O_R   0.957710 0.766810 0.172630 -0.477128
O49   O     O_3   0.331690 0.831680 0.750000 -0.301482
O50   O     O_3   0.331690 0.168320 0.250000 -0.346618
O51   O     O_3   0.831690 0.331680 0.750000 -0.301504
O52   O     O_3   0.831690 0.668320 0.250000 -0.346479
N1    N     N_2   0.149492 0.619831 0.566432 -0.509206
H65   H     H_    0.242591 0.621252 0.575575 0.271846
C145  C     C_3   0.077659 0.590606 0.624579 -0.263112
H66   H     H_    0.124435 0.544716 0.645597 0.150527
H67   H     H_    0.984880 0.577465 0.605581 0.156074
H68   H     H_    0.064185 0.625677 0.670180 0.160934
N2    N     N_2   0.149460 0.619822 0.933555 -0.509198
H69   H     H_    0.242561 0.621234 0.924409 0.271853
C146  C     C_3   0.077611 0.590610 0.875407 -0.263101
H70   H     H_    0.124374 0.544719 0.854378 0.150530
H71   H     H_    0.064145 0.625690 0.829811 0.160922
H72   H     H_    0.984828 0.577474 0.894406 0.156071
N3    N     N_2   0.027323 0.372205 0.420057 -0.519589
H73   H     H_    0.103233 0.388610 0.392285 0.293522
C147  C     C_3   0.917831 0.369910 0.376095 -0.283338
H74   H     H_    0.909323 0.417457 0.344725 0.184427
H75   H     H_    0.835360 0.365012 0.410577 0.157332
H76   H     H_    0.922169 0.326930 0.337676 0.139438
N4    N     N_2   0.027251 0.372223 0.079973 -0.519602
H77   H     H_    0.103155 0.388622 0.107752 0.293494
C148  C     C_3   0.917745 0.369930 0.123922 -0.283319
H78   H     H_    0.909240 0.417472 0.155299 0.184437
H79   H     H_    0.922060 0.326941 0.162332 0.139454
H80   H     H_    0.835284 0.365045 0.089429 0.157358
N5    N     N_2   0.649532 0.119833 0.566429 -0.509175
H81   H     H_    0.742631 0.121257 0.575577 0.271842
C149  C     C_3   0.577691 0.090607 0.624573 -0.263096
H82   H     H_    0.624477 0.044727 0.645608 0.150516
H83   H     H_    0.484924 0.077453 0.605569 0.156062
H84   H     H_    0.564178 0.125685 0.670164 0.160926
N6    N     N_2   0.649262 0.119766 0.933503 -0.509318
H85   H     H_    0.742369 0.121183 0.924402 0.271867
C150  C     C_3   0.577492 0.090580 0.875315 -0.263105
H86   H     H_    0.624282 0.044709 0.854270 0.150551
H87   H     H_    0.564054 0.125690 0.829748 0.160891
H88   H     H_    0.484707 0.077415 0.894277 0.156156
N7    N     N_2   0.527264 0.872200 0.420060 -0.519588
H89   H     H_    0.603166 0.888611 0.392282 0.293496
C151  C     C_3   0.417763 0.869898 0.376105 -0.283335
H90   H     H_    0.409230 0.917448 0.344743 0.184435
H91   H     H_    0.335299 0.864987 0.410593 0.157320
H92   H     H_    0.422111 0.826923 0.337679 0.139432
N8    N     N_2   0.527280 0.872206 0.079936 -0.519613
H93   H     H_    0.603185 0.888614 0.107708 0.293497
C152  C     C_3   0.417786 0.869907 0.123898 -0.283339
H94   H     H_    0.409264 0.917457 0.155260 0.184437
H95   H     H_    0.422133 0.826931 0.162323 0.139437
H96   H     H_    0.335318 0.864998 0.089415 0.157330
F1    F     F_    0.762021 0.024552 0.424180 -0.637770
F2    F     F_    0.762042 0.024542 0.075807 -0.637824
F3    F     F_    0.764527 0.937161 0.538159 -0.700409
F4    F     F_    0.764536 0.937175 0.961803 -0.700419
F5    F     F_    0.262014 0.524561 0.424179 -0.637783
F6    F     F_    0.262028 0.524565 0.075811 -0.637779
F7    F     F_    0.264530 0.437163 0.538153 -0.700414
F8    F     F_    0.264541 0.437162 0.961839 -0.700407

loop_
_geom_bond_atom_site_label_1
_geom_bond_atom_site_label_2
_ccdc_geom_bond_type
C6    C32   S    
Cr1   O10   S    
C142  N6    S    
C7    C29   S    
C119  C143  S    
Cr4   O52   S    
N4    H77   S    
C120  C144  S    
C110  C118  S    
C36   C50   A    
N6    C150  S    
Cr10  O44   S    
C146  H72   S    
C4    O12   A    
C121  H25   S    
C16   C144  S    
Cr8   O24   S    
C57   C59   A    
Cr1   O1    S    
C8    O24   A    
C58   C60   A    
C62   C70   A    
C61   C63   A    
C62   C64   A    
Cr10  O43   S    
C23   C103  S    
C49   C51   A    
C34   C42   A    
C84   O36   A    
C50   C52   A    
C147  H75   S    
C88   O32   A    
C97   C105  S    
C128  H32   S    
C73   C75   A    
C42   C44   A    
C20   C132  S    
C21   C133  S    
C116  C140  S    
Cr3   O6    S    
Cr10  O35   S    
C45   C47   A    
C112  H8    S    
C46   C48   A    
C115  C123  S    
Cr2   O50   S    
C27   C57   A    
C87   O39   A    
C112  C120  S    
Cr11  O38   S    
C19   C99   S    
C29   C55   A    
C30   C56   A    
C100  C124  S    
C152  H96   S    
C15   C111  S    
Cr11  O51   S    
N6    H85   S    
C104  C128  S    
C12   C20   S    
C13   C21   S    
C85   C117  S    
Cr11  O45   S    
C63   C71   A    
C113  C137  S    
C36   C44   A    
C33   C51   A    
C80   H16   S    
C37   C45   A    
C130  C138  S    
C91   O43   A    
C39   C47   A    
C40   C48   A    
Cr9   O33   S    
C34   C52   A    
C24   C90   S    
C15   H47   S    
C28   C58   A    
C72   H62   S    
C98   C106  S    
C33   C41   A    
N3    C147  S    
C140  N4    S    
C10   C18   S    
C76   H12   S    
N2    C146  S    
C95   O7    A    
C2    C28   S    
C32   C62   A    
C93   O5    A    
C134  H38   S    
C129  C137  S    
C126  C134  S    
Cr6   O19   S    
C83   O27   A    
C10   C138  S    
C85   O37   A    
Cr10  O50   S    
C130  H34   S    
C96   O48   A    
C14   C142  S    
C85   O29   A    
Cr5   O26   S    
C69   C77   A    
Cr4   O8    S    
Cr6   O50   S    
C71   C79   A    
C110  H6    S    
Cr6   O28   S    
C33   H49   S    
C74   C76   A    
C96   O8    A    
C105  C113  S    
N4    C148  S    
C65   H59   S    
C89   O1    A    
C78   C80   A    
C44   F4    S    
C9    C105  S    
C66   C74   A    
C78   H14   S    
C124  C132  S    
C125  H29   S    
C36   H52   S    
C20   C94   S    
C97   C121  S    
C59   C67   A    
C150  H87   S    
C129  H33   S    
C35   C49   A    
C123  H27   S    
C35   C43   A    
C132  H36   S    
C24   C136  S    
C135  C143  S    
C6    O14   A    
C127  H31   S    
C84   C116  S    
N5    C149  S    
C9    H41   S    
Cr7   O30   S    
Cr2   O11   S    
N7    C151  S    
C100  C108  S    
C82   O26   A    
C39   H55   S    
C83   C115  S    
C145  H68   S    
C103  C127  S    
C73   H9    S    
C3    O11   A    
C104  C112  S    
C88   O40   A    
C1    O17   A    
C87   C119  S    
C148  H78   S    
Cr7   O21   S    
Cr2   O4    S    
C95   O47   A    
Cr12  O48   S    
C37   H53   S    
C23   C89   S    
C12   H44   S    
C38   H54   S    
C15   C143  S    
C40   C54   A    
C151  H91   S    
C102  H22   S    
C10   C106  S    
C67   C75   A    
Cr8   O32   S    
C14   C110  S    
Cr1   O9    S    
C121  C129  S    
C102  C126  S    
C146  H71   S    
C84   O28   A    
Cr4   O15   S    
C81   O33   A    
C14   C22   S    
C72   C80   A    
C16   H48   S    
C14   H46   S    
N1    C145  S    
C114  C138  S    
C66   H60   S    
C90   O42   A    
C149  H84   S    
C38   C46   A    
C99   H19   S    
C131  C139  S    
C2    O10   A    
C45   F5    S    
C37   C55   A    
Cr3   O14   S    
C38   C56   A    
C133  H37   S    
C22   C92   S    
C6    O22   A    
C41   F1    S    
C25   C59   A    
C17   C97   S    
C27   C49   A    
C119  C127  S    
N8    C152  S    
C29   C63   A    
C30   C64   A    
C41   C43   A    
C31   C61   A    
C145  H66   S    
Cr9   O34   S    
Cr3   O5    S    
C109  C117  S    
Cr10  O36   S    
C11   C19   S    
C127  C135  S    
C136  H40   S    
C148  H80   S    
C128  C136  S    
Cr11  O37   S    
C93   O45   A    
C101  C109  S    
C103  C111  S    
C79   H15   S    
C152  H95   S    
C11   C139  S    
C86   O38   A    
Cr3   O51   S    
C9    C137  S    
C105  H1    S    
C100  H20   S    
N2    H69   S    
C12   C140  S    
C17   C95   S    
C13   C141  S    
C88   C120  S    
C68   H58   S    
C19   C93   S    
Cr12  O39   S    
C77   C79   A    
N8    H93   S    
C143  N7    S    
C32   C54   A    
C7    O15   A    
C126  H30   S    
C97   H17   S    
Cr8   O23   S    
Cr1   O2    S    
C83   O35   A    
C117  C141  S    
C149  H82   S    
N3    H73   S    
C134  C142  S    
C147  H74   S    
C20   C100  S    
C92   O4    A    
Cr5   O18   S    
C4    O20   A    
C147  H76   S    
C86   C118  S    
C8    O16   A    
C35   H51   S    
C22   C134  S    
Cr6   O20   S    
C102  C110  S    
C68   C76   A    
C91   O3    A    
C74   H10   S    
C16   C112  S    
C12   C108  S    
C21   C91   S    
Cr5   O25   S    
C116  C124  S    
C123  C131  S    
C69   H63   S    
C57   C65   A    
C4    C26   S    
C120  C128  S    
C124  H28   S    
Cr12  O52   S    
C132  C140  S    
C99   C107  S    
C40   H56   S    
C133  C141  S    
C71   H61   S    
C23   C135  S    
C8    C30   S    
C108  C116  S    
Cr5   O49   S    
C136  C144  S    
C24   C104  S    
C39   C53   A    
C103  H23   S    
C11   H43   S    
Cr11  O46   S    
C101  H21   S    
C94   O6    A    
C135  H39   S    
C60   C68   A    
C150  H86   S    
C81   C113  S    
Cr5   O17   S    
C82   O34   A    
C3    O19   A    
C86   O30   A    
C151  H90   S    
C138  N2    S    
C70   C78   A    
C18   C96   S    
N5    H81   S    
Cr7   O29   S    
Cr2   O12   S    
N7    H89   S    
C34   H50   S    
C47   F7    S    
C106  C114  S    
C111  C119  S    
C145  H67   S    
C48   F8    S    
C90   O2    A    
C98   H18   S    
C65   C73   A    
C139  N3    S    
Cr1   O49   S    
C137  N1    S    
C28   C50   A    
C58   C66   A    
C13   C109  S    
C21   C101  S    
C15   C23   S    
C16   C24   S    
C5    O13   A    
Cr4   O7    S    
C10   H42   S    
C53   C55   A    
C19   C131  S    
Cr6   O27   S    
C94   O46   A    
C54   C56   A    
C46   F6    S    
C17   C129  S    
C81   O25   A    
C111  H7    S    
C82   C114  S    
C43   F3    S    
C2    O18   A    
C146  H70   S    
C106  H2    S    
C70   H64   S    
Cr4   O16   S    
C25   C51   A    
C26   C52   A    
C101  C125  S    
C150  H88   S    
C125  C133  S    
N1    H65   S    
C113  C121  S    
C92   O44   A    
C31   C53   A    
Cr9   O42   S    
C149  H83   S    
C107  C115  S    
C98   C122  S    
Cr3   O13   S    
C9    C17   S    
C11   C107  S    
C67   H57   S    
Cr9   O41   S    
C99   C123  S    
C61   C69   A    
Cr9   O49   S    
C115  C139  S    
C118  C142  S    
C144  N8    S    
C107  H3    S    
C108  H4    S    
C131  H35   S    
C118  C126  S    
C22   C102  S    
C5    O21   A    
C87   O31   A    
C148  H79   S    
C109  H5    S    
Cr7   O22   S    
Cr2   O3    S    
Cr7   O51   S    
C104  H24   S    
Cr12  O47   S    
C26   C60   A    
Cr8   O52   S    
C141  N5    S    
C13   H45   S    
C64   C72   A    
C152  H94   S    
C18   C130  S    
C114  C122  S    
C1    O9    A    
C122  H26   S    
C3    C25   S    
C89   O41   A    
C77   H13   S    
C151  H92   S    
C7    O23   A    
C1    C27   S    
C75   H11   S    
C18   C98   S    
C5    C31   S    
C117  C125  S    
C42   F2    S    
C122  C130  S    
Cr8   O31   S    
Cr12  O40   S    
