data_mof_unit_55451.cif
_audit_creation_date              2012-12-10T18:53:04-0500
_audit_creation_method            fapswitch 2.2
_symmetry_space_group_name_H-M    P1
_symmetry_Int_Tables_number       1
_space_group_crystal_system       triclinic
_cell_length_a                    10.05909
_cell_length_b                    10.609873
_cell_length_c                    16.798886
_cell_angle_alpha                 92.772716
_cell_angle_beta                  85.651861
_cell_angle_gamma                 88.68132
_cell_volume                      1784.97829933

loop_
_atom_site_label
_atom_site_type_symbol
_atom_type_description
_atom_site_fract_x
_atom_site_fract_y
_atom_site_fract_z
_atom_type_partial_charge
C1    C     C_R   0.498679 0.738811 0.500442 0.924369
C2    C     C_R   0.063737 0.590017 0.544557 0.152547
C3    C     C_R   0.079452 0.412836 0.453406 0.220737
C4    C     C_R   0.920556 0.587194 0.546569 0.220771
C5    C     C_R   0.481411 0.505649 0.652534 0.838008
C6    C     C_R   0.518579 0.494492 0.347466 0.837976
C7    C     C_R   0.469054 0.526428 0.738719 -0.062528
C8    C     C_R   0.530849 0.474948 0.261217 -0.062573
C9    C     C_R   0.571475 0.586024 0.776575 -0.230566
C10   C     C_R   0.428305 0.416150 0.223025 -0.230259
C11   C     C_R   0.561922 0.608095 0.859171 0.222205
C12   C     C_R   0.501321 0.261191 0.499558 0.924492
C13   C     C_R   0.437495 0.395960 0.140290 0.222135
C14   C     C_R   0.449967 0.562536 0.903764 0.156065
C15   C     C_R   0.549288 0.442462 0.096006 0.156050
C16   C     C_R   0.343449 0.511388 0.865525 -0.206035
C17   C     C_R   0.655904 0.492823 0.134516 -0.206105
C18   C     C_R   0.352536 0.493956 0.783007 -0.213484
C19   C     C_R   0.647135 0.508467 0.217109 -0.213525
C20   C     C_2   0.453228 0.542385 0.988208 -0.271755
C21   C     C_2   0.546294 0.463367 0.011654 -0.270858
C22   C     C_3   0.326095 0.327905 0.101611 -0.443699
C23   C     C_R   0.491367 0.939949 0.574138 0.129595
C24   C     C_3   0.318824 0.191175 0.126012 -0.873797
C25   C     C_3   0.673218 0.676915 0.897448 -0.443443
C26   C     C_3   0.680906 0.812960 0.871771 -0.874196
C27   C     C_3   0.480689 0.870241 0.651565 -0.906589
C28   C     C_3   0.519387 0.129767 0.348434 -0.906990
C29   C     C_3   0.496564 0.148449 0.652907 -0.877303
C30   C     C_3   0.503420 0.851563 0.347094 -0.877093
C31   C     C_3   0.872141 0.302457 0.410644 -0.346506
C32   C     C_3   0.865132 0.183363 0.458975 -0.817096
C33   C     C_3   0.127877 0.697541 0.589359 -0.346386
C34   C     C_R   0.508648 0.060059 0.425863 0.129851
C35   C     C_3   0.134911 0.816649 0.541042 -0.817013
C36   C     C_3   0.159407 0.322271 0.395256 -0.847648
C37   C     C_3   0.840603 0.677848 0.604650 -0.847917
C38   C     C_R   0.496981 0.071134 0.574269 0.151757
C39   C     C_R   0.503016 0.928875 0.425732 0.151636
C40   C     C_R   0.504051 0.128250 0.500069 -0.125682
C41   C     C_R   0.495950 0.871756 0.499932 -0.125685
C42   C     C_R   0.936269 0.409993 0.455436 0.152557
H1    H     H_    0.659165 0.615605 0.741951 0.155391
H2    H     H_    0.293870 0.186901 0.191348 0.255740
H3    H     H_    0.240025 0.142544 0.094380 0.250292
H4    H     H_    0.229518 0.378075 0.119709 0.198432
H5    H     H_    0.339786 0.325732 0.035425 0.227138
H6    H     H_    0.706338 0.815700 0.806394 0.255843
H7    H     H_    0.584028 0.863917 0.887465 0.265190
H8    H     H_    0.759539 0.862263 0.903164 0.250403
H9    H     H_    0.659110 0.680603 0.963651 0.227109
H10   H     H_    0.769773 0.626311 0.879976 0.198410
H11   H     H_    0.571901 0.811277 0.655552 0.228015
H12   H     H_    0.340787 0.385797 0.257501 0.155361
H13   H     H_    0.467972 0.931834 0.706720 0.253925
H14   H     H_    0.393278 0.808446 0.652739 0.228229
H15   H     H_    0.428219 0.188792 0.344429 0.227981
H16   H     H_    0.606840 0.191509 0.347271 0.228130
H17   H     H_    0.532092 0.068167 0.293283 0.253867
H18   H     H_    0.509038 0.250456 0.646027 0.231199
H19   H     H_    0.400515 0.137513 0.688727 0.238061
H20   H     H_    0.580680 0.116567 0.686806 0.241332
H21   H     H_    0.490895 0.749566 0.353978 0.231233
H22   H     H_    0.419322 0.883470 0.313189 0.241304
H23   H     H_    0.728473 0.551733 0.246115 0.162064
H24   H     H_    0.599481 0.862462 0.311279 0.238050
H25   H     H_    0.797941 0.115044 0.431580 0.249192
H26   H     H_    0.964098 0.136024 0.459757 0.235695
H27   H     H_    0.827222 0.206215 0.521926 0.277483
H28   H     H_    0.772829 0.330466 0.394925 0.250330
H29   H     H_    0.924282 0.278839 0.351218 0.175828
H30   H     H_    0.035971 0.864049 0.540302 0.235680
H31   H     H_    0.202165 0.884921 0.568424 0.249201
H32   H     H_    0.172760 0.793802 0.478080 0.277445
H33   H     H_    0.075752 0.721151 0.648788 0.175818
H34   H     H_    0.271240 0.450172 0.754245 0.161906
H35   H     H_    0.227186 0.669519 0.605076 0.250334
H36   H     H_    0.144864 0.223270 0.410767 0.228896
H37   H     H_    0.131948 0.336035 0.333497 0.192324
H38   H     H_    0.265355 0.335780 0.392894 0.285472
H39   H     H_    0.855056 0.776811 0.589028 0.228987
H40   H     H_    0.734676 0.664234 0.607047 0.285443
H41   H     H_    0.868099 0.664265 0.666419 0.192327
H42   H     H_    0.626559 0.424378 0.970044 0.164736
H43   H     H_    0.372886 0.581262 0.029801 0.164730
H44   H     H_    0.257366 0.476992 0.899878 0.137417
H45   H     H_    0.741887 0.527859 0.100385 0.137608
H46   H     H_    0.415703 0.140588 0.109628 0.265221
N1    N     N_R   0.142790 0.500030 0.500020 -0.130407
N2    N     N_R   0.857210 0.499970 0.499980 -0.130400
O1    O     O_R   0.385380 0.683250 0.500010 -0.619947
O2    O     O_R   0.614620 0.316750 0.499990 -0.619919
O3    O     O_R   0.614710 0.683220 0.500000 -0.615146
O4    O     O_R   0.385290 0.316780 0.500000 -0.615088
O5    O     O_R   0.371780 0.500040 0.615800 -0.635325
O6    O     O_R   0.628220 0.499960 0.384200 -0.635365
O7    O     O_R   0.601110 0.500010 0.615800 -0.625481
O8    O     O_R   0.398890 0.499990 0.384200 -0.625501
Zn1   Zn    Zn3+2 0.346870 0.500020 0.500000 0.920916
Zn2   Zn    Zn3+2 0.653130 0.499980 0.500000 0.920870

loop_
_geom_bond_atom_site_label_1
_geom_bond_atom_site_label_2
_ccdc_geom_bond_type
C3    C42   A    
C31   C42   S    
C30   H22   S    
C37   H39   S    
C35   H32   S    
C28   H15   S    
N1    Zn1   S    
C34   C40   A    
C24   H3    S    
C6    O8    A    
C22   C24   S    
C26   H8    S    
C11   C14   A    
O5    Zn1   S    
C11   C25   S    
C7    C9    A    
C33   C35   S    
C33   H33   S    
C31   H28   S    
C29   C38   S    
C30   C39   S    
C21   H42   S    
C23   C27   S    
C26   H6    S    
C32   H26   S    
C31   H29   S    
C22   H5    S    
C28   C34   S    
C1    O1    A    
C30   H21   S    
C16   H44   S    
C12   O4    A    
N2    Zn2   S    
C5    O5    A    
C4    N2    A    
C29   H19   S    
C9    H1    S    
C8    C19   A    
C34   C39   A    
C14   C20   S    
C39   C41   A    
C36   H38   S    
C26   H7    S    
C5    C7    S    
C27   H14   S    
C6    C8    S    
C25   C26   S    
C10   C13   A    
C42   N2    A    
C12   C40   S    
C2    N1    A    
C2    C4    A    
C25   H9    S    
C9    C11   A    
C31   C32   S    
C29   H18   S    
C7    C18   A    
C20   H43   S    
C16   C18   A    
C4    C37   S    
C24   H46   S    
O3    Zn2   S    
C30   H24   S    
C32   H25   S    
C2    C33   S    
C8    C10   A    
C22   H4    S    
C5    O7    A    
C35   H30   S    
C6    O6    A    
C13   C15   A    
C24   H2    S    
C14   C16   A    
C37   H40   S    
O7    Zn2   S    
O2    Zn2   S    
C28   H17   S    
C1    C41   S    
C15   C17   A    
C29   H20   S    
C35   H31   S    
C18   H34   S    
C17   H45   S    
C12   O2    A    
C36   H37   S    
C27   H11   S    
C32   H27   S    
C28   H16   S    
C23   C38   A    
C23   C41   A    
C3    N1    A    
O4    Zn1   S    
C25   H10   S    
C36   H36   S    
C38   C40   A    
C33   H35   S    
C3    C36   S    
O6    Zn2   S    
C17   C19   A    
C13   C22   S    
C19   H23   S    
C27   H13   S    
C10   H12   S    
C15   C21   S    
C20   C21   D    
C1    O3    A    
O8    Zn1   S    
C37   H41   S    
O1    Zn1   S    
