data_mof_unit_30548.cif
_audit_creation_date              2012-10-26T18:54:55-0400
_audit_creation_method            fapswitch 2.2
_symmetry_space_group_name_H-M    P1
_symmetry_Int_Tables_number       1
_space_group_crystal_system       triclinic
_cell_length_a                    10.863657
_cell_length_b                    9.52984
_cell_length_c                    10.890923
_cell_angle_alpha                 90.927071
_cell_angle_beta                  90.633031
_cell_angle_gamma                 88.241745
_cell_volume                      1126.78422568

loop_
_atom_site_label
_atom_site_type_symbol
_atom_type_description
_atom_site_fract_x
_atom_site_fract_y
_atom_site_fract_z
_atom_type_partial_charge
C1    C     C_R   0.262410 0.502396 0.494263 0.581645
C2    C     C_R   0.446436 0.607285 0.935944 -0.033404
C3    C     C_R   0.491012 0.489770 0.127616 -0.004023
C4    C     C_R   0.509846 0.501495 0.870696 -0.030230
C5    C     C_R   0.530670 0.368280 0.058632 0.213300
C6    C     C_R   0.560358 0.385069 0.934441 0.190923
C7    C     C_3   0.466973 0.761905 0.937586 -0.224572
C8    C     C_3   0.464077 0.757915 0.076899 -0.223124
C9    C     C_R   0.066179 0.406858 0.418655 0.203346
C10   C     C_R   0.944753 0.382119 0.448615 0.259828
C11   C     C_R   0.873989 0.493065 0.504311 0.006804
C12   C     C_R   0.738642 0.497414 0.502611 0.582265
C13   C     C_R   0.128822 0.508630 0.486590 -0.035440
C14   C     C_R   0.934578 0.609358 0.554079 -0.147329
C15   C     C_R   0.062338 0.611927 0.552902 -0.163450
C16   C     C_R   0.402998 0.076411 0.452137 0.078625
C17   C     C_R   0.595660 0.071670 0.549458 0.104795
C18   C     C_R   0.403456 0.927886 0.450629 0.034066
C19   C     C_R   0.595782 0.923379 0.550516 0.047205
C20   C     C_R   0.498124 0.497769 0.261853 0.592716
C21   C     C_R   0.505694 0.500970 0.737418 0.587658
C22   C     C_R   0.444218 0.604772 0.062409 -0.016042
Cu1   Cu    Cu3+1 0.500000 0.640660 0.500000 0.978440
Cu2   Cu    Cu3+1 0.500000 0.359340 0.500000 1.162584
H1    H     H_    0.883638 0.694303 0.599703 0.150809
H2    H     H_    0.382819 0.815103 0.116724 0.190819
H3    H     H_    0.387745 0.822275 0.897077 0.190202
H4    H     H_    0.554150 0.781106 0.120999 0.167947
H5    H     H_    0.175344 0.560383 0.213051 0.334723
H6    H     H_    0.893421 0.074248 0.624511 0.354195
H7    H     H_    0.108866 0.695120 0.601907 0.160062
H8    H     H_    0.324731 0.133458 0.415281 0.197027
H9    H     H_    0.671517 0.125651 0.588831 0.216638
H10   H     H_    0.326133 0.874181 0.410520 0.138534
H11   H     H_    0.672640 0.866486 0.592124 0.122280
H12   H     H_    0.610660 0.015610 0.019767 0.376525
H13   H     H_    0.808683 0.326780 0.027218 0.366862
H14   H     H_    0.558460 0.788070 0.900805 0.163271
N1    N     N_R   0.500000 0.852070 0.500000 -0.247039
N2    N     N_R   0.500000 0.147940 0.500000 -0.238957
O1    O     O_R   0.319640 0.618740 0.499990 -0.525325
O2    O     O_2   0.412211 0.175162 0.185849 -0.216912
O3    O     O_3   0.534333 0.072408 0.004325 -0.481835
O4    O     O_2   0.643742 0.159386 0.806798 -0.256463
O5    O     O_2   0.755720 0.375795 0.783396 -0.271395
O6    O     O_3   0.786370 0.238199 0.984958 -0.420754
O7    O     O_2   0.172229 0.211339 0.268025 -0.180454
O8    O     O_2   0.007593 0.359574 0.182637 -0.251197
O9    O     O_3   0.220483 0.468838 0.219336 -0.518737
O10   O     O_2   0.797905 0.168296 0.387613 -0.224106
O11   O     O_2   0.014365 0.108010 0.426014 -0.256973
O12   O     O_R   0.680360 0.618740 0.500010 -0.533069
O13   O     O_3   0.881956 0.176844 0.613541 -0.491511
O14   O     O_R   0.319620 0.381170 0.499990 -0.492439
O15   O     O_R   0.680380 0.381170 0.500010 -0.433585
O16   O     O_R   0.499990 0.618810 0.319660 -0.519213
O17   O     O_R   0.500010 0.618810 0.680340 -0.518836
O18   O     O_R   0.499960 0.381240 0.319650 -0.413431
O19   O     O_R   0.500040 0.381240 0.680350 -0.458037
O20   O     O_2   0.636902 0.171517 0.202416 -0.228006
S1    S     S_3+6 0.529133 0.194616 0.117080 0.089401
S2    S     S_3+6 0.688119 0.287955 0.872381 0.067980
S3    S     S_3+6 0.116263 0.356968 0.269278 0.085932
S4    S     S_3+6 0.908471 0.203463 0.464101 0.058481

loop_
_geom_bond_atom_site_label_1
_geom_bond_atom_site_label_2
_ccdc_geom_bond_type
C2    C22   A    
C8    C22   S    
C18   N1    A    
O13   S4    S    
C21   O17   A    
C7    C8    S    
O9    S3    S    
C16   H8    S    
O10   S4    D    
C9    C10   A    
C12   O12   A    
C2    C4    A    
C2    C7    S    
Cu1   O1    S    
C20   O16   A    
C6    S2    S    
C5    S1    S    
C3    C20   S    
H5    O9    S    
Cu2   O15   S    
C15   H7    S    
C4    C21   S    
C18   H10   S    
O2    S1    D    
Cu1   O12   S    
C17   H9    S    
C16   N2    A    
Cu2   O19   S    
Cu1   N1    S    
C19   N1    A    
Cu2   O18   S    
C17   C19   A    
C7    H14   S    
O6    S2    S    
C21   O19   A    
C13   C15   A    
C14   H1    S    
O7    S3    D    
C5    C6    A    
C8    H4    S    
H6    O13   S    
C12   O15   A    
C1    C13   S    
C10   C11   A    
C8    H2    S    
Cu1   Cu2   S    
Cu2   O14   S    
C3    C5    A    
O5    S2    D    
Cu1   O16   S    
C7    H3    S    
O3    S1    S    
C16   C18   A    
C4    C6    A    
C1    O1    A    
C11   C14   A    
Cu1   O17   S    
C9    C13   A    
C14   C15   A    
Cu2   N2    S    
H12   O3    S    
C19   H11   S    
O4    S2    D    
H13   O6    S    
C9    S3    S    
C20   O18   A    
C1    O14   A    
C10   S4    S    
O11   S4    D    
O8    S3    D    
C11   C12   S    
O20   S1    D    
C3    C22   A    
C17   N2    A    
