data_mof_unit_8236.cif
_audit_creation_date              2013-03-05T15:50:09-0500
_audit_creation_method            fapswitch 2.2
_symmetry_space_group_name_H-M    P1
_symmetry_Int_Tables_number       1
_space_group_crystal_system       triclinic
_cell_length_a                    11.996094
_cell_length_b                    12.844006
_cell_length_c                    15.458986
_cell_angle_alpha                 87.042493
_cell_angle_beta                  115.391821
_cell_angle_gamma                 93.854614
_cell_volume                      2146.23667756

loop_
_atom_site_label
_atom_site_type_symbol
_atom_site_description
_atom_site_fract_x
_atom_site_fract_y
_atom_site_fract_z
_atom_type_partial_charge
O1    O     O_R   0.580150 0.341050 0.504560 -0.627593
O2    O     O_R   0.419850 0.658950 0.495440 -0.630163
O3    O     O_R   0.388090 0.353760 0.493600 -0.579383
O4    O     O_R   0.611910 0.646240 0.506400 -0.581795
C1    C     C_R   0.478179 0.299481 0.501464 0.943099
C2    C     C_R   0.521863 0.700525 0.498599 0.938541
O5    O     O_R   0.650890 0.490020 0.640860 -0.632747
O6    O     O_R   0.349110 0.509980 0.359140 -0.630489
O7    O     O_R   0.458830 0.502730 0.629890 -0.610403
O8    O     O_R   0.541170 0.497270 0.370110 -0.611422
C3    C     C_R   0.576354 0.497170 0.680479 0.913477
C4    C     C_R   0.424348 0.507479 0.319603 0.899360
Zn1   Zn    Zn3+2 0.628240 0.491510 0.507320 0.976664
Zn2   Zn    Zn3+2 0.371760 0.508490 0.492680 0.977225
C5    C     C_R   0.624433 0.512507 0.783424 -0.050973
C6    C     C_R   0.381417 0.528794 0.216942 -0.047964
C7    C     C_R   0.791422 0.544113 0.939687 -0.189232
C8    C     C_R   0.222863 0.569934 0.059578 -0.189940
C9    C     C_R   0.751249 0.520863 0.843362 -0.195082
C10   C     C_R   0.257403 0.545427 0.156374 -0.196983
C11   C     C_R   0.539200 0.528954 0.819822 -0.229820
C12   C     C_R   0.470268 0.540027 0.181047 -0.187926
C13   C     C_R   0.577108 0.558241 0.914055 0.084623
C14   C     C_R   0.438868 0.568552 0.085685 0.091304
C15   C     C_R   0.705041 0.561380 0.975777 0.176755
C16   C     C_R   0.312429 0.579306 0.023413 0.171228
C17   C     C_R   0.489744 0.576990 0.949588 0.069133
C18   C     C_R   0.529417 0.577873 0.049590 0.071056
C19   C     C_R   0.657860 0.585611 0.109832 -0.201573
C20   C     C_R   0.363967 0.593062 0.888738 -0.214634
C21   C     C_R   0.744302 0.579567 0.072780 -0.227450
C22   C     C_R   0.277155 0.596362 0.925708 -0.218008
H1    H     H_    0.841872 0.584737 0.120852 0.145294
H2    H     H_    0.181356 0.607372 0.877160 0.150170
H3    H     H_    0.564087 0.522390 0.227964 0.155569
H4    H     H_    0.442246 0.515869 0.773999 0.165543
H5    H     H_    0.187545 0.538710 0.183480 0.153296
H6    H     H_    0.818777 0.509602 0.815962 0.155779
H7    H     H_    0.889589 0.548075 0.985971 0.131004
H8    H     H_    0.126235 0.579867 0.012786 0.131799
H9    H     H_    0.693805 0.598602 0.185707 0.159271
H10   H     H_    0.330870 0.605343 0.812289 0.150161
C23   C     C_R   0.533233 0.812145 0.492952 -0.183871
C24   C     C_R   0.466987 0.187863 0.507339 -0.185786
C25   C     C_R   0.405221 0.026375 0.564623 -0.242626
C26   C     C_R   0.595302 0.973673 0.435961 -0.243092
C27   C     C_R   0.405293 0.134786 0.557834 0.317600
C28   C     C_R   0.595237 0.865286 0.442718 0.319686
C29   C     C_R   0.527596 0.133862 0.465583 -0.283683
C30   C     C_R   0.472655 0.866114 0.534767 -0.284351
C31   C     C_R   0.531089 0.027016 0.475408 0.121589
C32   C     C_R   0.469300 0.972989 0.525074 0.121905
H11   H     H_    0.426122 0.824357 0.573848 0.173220
H12   H     H_    0.574047 0.175581 0.426424 0.174186
H13   H     H_    0.359311 0.984167 0.603803 0.180340
H14   H     H_    0.641336 0.015898 0.396879 0.181134
N1    N     N_R   0.799120 0.480200 0.517090 -0.106297
N2    N     N_R   0.200880 0.519800 0.482910 -0.106951
C33   C     C_R   0.999943 0.591760 0.403791 -0.298342
C34   C     C_R   0.999955 0.408134 0.596027 -0.293156
C35   C     C_R   0.121527 0.583904 0.414174 0.016821
C36   C     C_R   0.878419 0.415992 0.585707 0.014866
C37   C     C_R   0.162779 0.461672 0.543041 -0.023300
C38   C     C_R   0.837180 0.538361 0.456931 -0.022610
C39   C     C_R   0.041188 0.467007 0.535277 0.074870
C40   C     C_R   0.958745 0.533002 0.464630 0.079384
H15   H     H_    0.773108 0.589221 0.403212 0.173476
H16   H     H_    0.226840 0.410826 0.596772 0.180859
H17   H     H_    0.847504 0.370845 0.633080 0.140005
H18   H     H_    0.152416 0.628946 0.366730 0.136332
H19   H     H_    0.938696 0.643111 0.348502 0.165699
H20   H     H_    0.061134 0.356637 0.651178 0.175152
N3    N     N_R   0.650675 0.811078 0.393312 0.205080
O9    O     O_R   0.754351 0.847605 0.393012 -0.397063
O10   O     O_R   0.587437 0.737578 0.334576 -0.428118
N4    N     N_R   0.350214 0.189097 0.607459 0.205578
O11   O     O_R   0.246987 0.152369 0.608456 -0.394362
O12   O     O_R   0.413343 0.263162 0.665564 -0.420944

loop_
_geom_bond_atom_site_label_1
_geom_bond_atom_site_label_2
_geom_bond_distance
_ccdc_geom_bond_type
C24   C29   1.393883 A    
C15   C21   1.393109 A    
C37   C39   1.417435 A    
C16   C22   1.392342 A    
N3    O9    1.301239 A    
C8    C16   1.404389 A    
N1    C36   1.363835 A    
C35   H18   1.081852 S    
O5    C3    1.292103 A    
C12   H3    1.077632 S    
C33   H19   1.083409 S    
O1    C1    1.283864 A    
C18   C19   1.417608 A    
C14   C16   1.417264 A    
C27   N4    1.436528 S    
C33   C40   1.404840 A    
Zn1   N1    2.004551 S    
C34   H20   1.083260 S    
C29   H12   1.086168 S    
C34   C36   1.407096 A    
C7    H7    1.083696 S    
O4    Zn1   2.008779 S    
C8    H8    1.083709 S    
C3    C5    1.460824 S    
C4    C6    1.460141 S    
C29   C31   1.374367 A    
C30   C32   1.374559 A    
C21   H1    1.084128 S    
C13   C17   1.414003 A    
C23   C28   1.412307 A    
C24   C27   1.412273 A    
O6    C4    1.291607 A    
N2    C35   1.364107 A    
C17   C20   1.417267 A    
N3    O10   1.300987 A    
O2    C2    1.284008 A    
C25   C27   1.390942 A    
Zn2   N2    2.004552 S    
C26   C28   1.390623 A    
C33   C35   1.407335 A    
C30   H11   1.086177 S    
C31   C32   1.408669 A    
C38   H15   1.082253 S    
N4    O11   1.301257 A    
O4    C2    1.283910 A    
C11   H4    1.078060 S    
O6    Zn2   1.962519 S    
C25   C32   1.397151 A    
C26   C31   1.396993 A    
C36   H17   1.081799 S    
C38   C40   1.417523 A    
C5    C9    1.401368 A    
O7    Zn2   1.920878 S    
C9    H6    1.083001 S    
O5    Zn1   1.962519 S    
C6    C10   1.401071 A    
O7    C3    1.290944 A    
O3    Zn2   2.008777 S    
O8    C4    1.290934 A    
C1    C24   1.432716 S    
C34   C39   1.404715 A    
C2    C23   1.432674 S    
C11   C13   1.391333 A    
C12   C14   1.391387 A    
O1    Zn1   1.976544 S    
N1    C38   1.370398 A    
N2    C37   1.370135 A    
C37   H16   1.082154 S    
C6    C12   1.393955 A    
C19   H9    1.079987 S    
C28   N3    1.436353 S    
C14   C18   1.414580 A    
N4    O12   1.301236 A    
O3    C1    1.284000 A    
O8    Zn1   1.920879 S    
C23   C30   1.394029 A    
C7    C15   1.404886 A    
C19   C21   1.390758 A    
C20   C22   1.389897 A    
C10   H5    1.083065 S    
C7    C9    1.396394 A    
C8    C10   1.395379 A    
C13   C15   1.416730 A    
O2    Zn2   1.976544 S    
C5    C11   1.393331 A    
C25   H13   1.084489 S    
C39   C40   1.407205 A    
C26   H14   1.084496 S    
C17   C18   1.409478 A    
C20   H10   1.079823 S    
C22   H2    1.084045 S    
