data_mof_unit_36458.cif
_audit_creation_date              2013-03-05T15:53:46-0500
_audit_creation_method            fapswitch 2.2
_symmetry_space_group_name_H-M    P1
_symmetry_Int_Tables_number       1
_space_group_crystal_system       triclinic
_cell_length_a                    10.80628
_cell_length_b                    10.723031
_cell_length_c                    9.981179
_cell_angle_alpha                 89.071595
_cell_angle_beta                  87.801401
_cell_angle_gamma                 93.848021
_cell_volume                      1152.91840035

loop_
_atom_site_label
_atom_site_type_symbol
_atom_site_description
_atom_site_fract_x
_atom_site_fract_y
_atom_site_fract_z
_atom_type_partial_charge
O1    O     O_R   0.500000 0.316780 0.614690 -0.663415
O2    O     O_R   0.499990 0.316750 0.385360 -0.625156
C1    C     C_R   0.510190 0.260335 0.500922 0.904262
O3    O     O_R   0.314800 0.499990 0.614670 -0.642563
O4    O     O_R   0.314790 0.499970 0.385330 -0.655053
C2    C     C_R   0.258322 0.493539 0.502595 0.935238
Zn1   Zn    Zn3+2 0.500010 0.500020 0.653130 0.985655
Zn2   Zn    Zn3+2 0.499990 0.499980 0.346870 1.031783
O5    O     O_R   0.500010 0.683250 0.614640 -0.591890
O6    O     O_R   0.500000 0.683220 0.385310 -0.588775
O7    O     O_R   0.685210 0.500030 0.614670 -0.618866
O8    O     O_R   0.685200 0.500010 0.385330 -0.535091
C3    C     C_R   0.485058 0.737690 0.500002 0.916464
C4    C     C_R   0.742809 0.503456 0.497951 0.919171
C5    C     C_3   0.059048 0.466384 0.648300 0.197682
H1    H     H_    0.086287 0.552204 0.704180 0.136200
C6    C     C_3   0.918470 0.456970 0.637769 -0.483743
H2    H     H_    0.877248 0.361976 0.664417 0.227537
H3    H     H_    0.880460 0.513729 0.718331 0.260080
H4    H     H_    0.142998 0.693832 0.506859 0.173492
C7    C     C_3   0.089456 0.618965 0.452868 -0.556004
C8    C     C_3   0.071626 0.388554 0.401266 0.110949
C9    C     C_3   0.122229 0.486855 0.504622 -0.196473
H5    H     H_    0.115780 0.418690 0.302957 0.160135
C10   C     C_3   0.880605 0.499804 0.495104 -0.164088
C11   C     C_3   0.947285 0.636559 0.468267 0.366084
C12   C     C_3   0.925774 0.395844 0.392112 0.268556
H6    H     H_    0.123799 0.630452 0.346828 0.252763
C13   C     C_R   0.525923 0.104786 0.754173 -0.180617
H7    H     H_    0.584800 0.189025 0.766165 0.182081
C14   C     C_R   0.481015 0.040935 0.870786 -0.091082
H8    H     H_    0.501230 0.080522 0.966999 0.145092
C15   C     C_R   0.406589 0.929940 0.862509 0.248029
C16   C     C_R   0.392730 0.875255 0.737181 -0.087545
H9    H     H_    0.339042 0.786565 0.731646 0.141404
C17   C     C_R   0.451004 0.933117 0.620702 0.088673
C18   C     C_R   0.499313 0.056958 0.626352 0.075521
C19   C     C_R   0.521909 0.125706 0.503704 -0.125923
C20   C     C_R   0.530051 0.061652 0.380936 0.157367
H10   H     H_    0.504483 0.887065 0.287190 0.217192
C21   C     C_R   0.498667 0.935426 0.380838 -0.128781
C22   C     C_R   0.467750 0.869906 0.499740 -0.183464
C23   C     C_R   0.343969 0.324435 0.147673 -0.112936
H11   H     H_    0.333479 0.323291 0.254151 0.233084
C24   C     C_R   0.277110 0.230150 0.081730 -0.168383
H12   H     H_    0.222384 0.157798 0.137886 0.224036
C25   C     C_R   0.280042 0.228608 0.943188 -0.086360
H13   H     H_    0.225503 0.156793 0.892387 0.202848
C26   C     C_R   0.348959 0.322056 0.869384 -0.045719
H14   H     H_    0.339006 0.322594 0.763467 0.226402
C27   C     C_R   0.424411 0.413096 0.932373 0.044359
C28   C     C_R   0.423260 0.413765 0.076415 0.085736
N1    N     N_R   0.498810 0.498800 0.142780 -0.191307
C29   C     C_R   0.573495 0.582489 0.066069 0.245474
C30   C     C_R   0.573919 0.582479 0.923481 0.264528
N2    N     N_R   0.498760 0.498720 0.857170 -0.206262
N3    N     N_R   0.897312 0.429931 0.251931 0.254086
O9    O     O_R   0.970749 0.508384 0.180433 -0.312252
O10   O     O_R   0.805809 0.372354 0.191696 -0.358397
N4    N     N_R   0.900617 0.700665 0.350092 0.277353
O11   O     O_R   0.790182 0.742338 0.359914 -0.339657
O12   O     O_R   0.977218 0.752341 0.258164 -0.294039
C31   C     C_3   0.579839 0.120078 0.249391 -0.788042
H15   H     H_    0.630860 0.052357 0.189156 0.269450
H16   H     H_    0.502080 0.149705 0.190672 0.229298
H17   H     H_    0.647099 0.200006 0.264583 0.280305
C32   C     C_3   0.348095 0.865918 0.986308 -0.830063
H18   H     H_    0.369172 0.919913 0.077685 0.233903
H19   H     H_    0.245799 0.856104 0.977650 0.255795
H20   H     H_    0.383347 0.771620 0.997839 0.247789
N5    N     N_R   0.659211 0.666684 0.128027 0.275354
O13   O     O_R   0.774043 0.638623 0.123953 -0.196142
O14   O     O_R   0.636430 0.784014 0.130903 -0.376393
N6    N     N_R   0.094531 0.362346 0.731844 0.213763
O15   O     O_R   0.072563 0.247643 0.694617 -0.362124
O16   O     O_R   0.095697 0.382231 0.860097 -0.359331
N7    N     N_R   0.659329 0.667616 0.849623 0.246177
O17   O     O_R   0.777087 0.652398 0.855863 -0.367496
O18   O     O_R   0.626150 0.778640 0.820720 -0.365888
C33   C     C_3   0.925013 0.727891 0.585983 -0.734425
H21   H     H_    0.973220 0.706878 0.678310 0.231559
H22   H     H_    0.959973 0.824389 0.555083 0.259407
H23   H     H_    0.824408 0.730522 0.611407 0.282273
N8    N     N_R   0.114161 0.260902 0.419283 0.218329
O19   O     O_R   0.079354 0.175316 0.335191 -0.396924
O20   O     O_R   0.214035 0.242754 0.483700 -0.399728
C34   C     C_3   0.856536 0.265396 0.428373 -0.719506
H24   H     H_    0.860994 0.200574 0.343113 0.294089
H25   H     H_    0.895348 0.218114 0.515236 0.263007
H26   H     H_    0.757057 0.273149 0.452603 0.170087

loop_
_geom_bond_atom_site_label_1
_geom_bond_atom_site_label_2
_geom_bond_distance
_ccdc_geom_bond_type
C7    C11   1.562461 S    
C31   H16   1.103659 S    
C21   C22   1.387341 A    
C17   C22   1.405724 A    
C30   N2    1.366377 A    
C25   C26   1.391121 A    
N1    C29   1.369692 A    
Zn1   O7    2.023285 S    
C13   H7    1.080409 S    
N6    O16   1.301554 A    
C17   C18   1.396717 A    
N8    O20   1.301334 A    
C16   H9    1.083606 S    
C33   H23   1.109183 S    
C19   C20   1.417098 A    
C30   N7    1.428857 S    
O7    C4    1.298417 A    
C23   C28   1.406624 A    
N3    O10   1.302336 A    
C5    H1    1.112411 S    
N4    O12   1.303019 A    
C27   N2    1.372700 A    
O5    C3    1.296664 A    
C29   N5    1.416087 S    
C14   H8    1.080274 S    
C1    C19   1.457529 S    
C26   C27   1.401950 A    
C14   C15   1.396442 A    
C5    C9    1.570186 S    
C31   H17   1.102226 S    
Zn1   N2    2.035903 S    
O3    Zn1   2.052303 S    
C3    C22   1.442405 S    
C15   C16   1.399086 A    
C24   C25   1.382361 A    
N6    O15   1.299852 A    
C27   C28   1.437423 A    
N8    O19   1.300407 A    
C20   C21   1.373138 A    
C12   N3    1.489094 S    
N5    O14   1.298669 A    
C10   C11   1.603747 S    
N7    O17   1.297476 A    
C11   C33   1.563583 S    
C32   H18   1.110989 S    
N4    O11   1.302880 A    
O1    C1    1.299824 A    
C8    N8    1.483269 S    
C23   H11   1.064254 S    
C18   C19   1.423143 A    
C25   H13   1.082650 S    
Zn2   O8    2.052306 S    
C6    H2    1.108150 S    
N7    O18   1.297379 A    
C12   C34   1.571558 S    
C23   C24   1.391897 A    
C33   H22   1.112126 S    
H10   C21   1.078033 S    
C7    H6    1.110228 S    
O8    C4    1.305542 A    
C8    C12   1.589335 S    
C34   H25   1.107628 S    
C8    H5    1.108165 S    
C24   H12   1.079214 S    
O3    C2    1.295322 A    
C28   N1    1.377645 A    
C15   C32   1.500688 S    
C5    C6    1.523479 S    
C29   C30   1.423030 A    
O1    Zn1   2.008083 S    
O2    Zn2   1.995868 S    
C33   H21   1.103276 S    
O6    C3    1.303017 A    
Zn2   N1    2.037827 S    
O4    Zn2   2.023284 S    
C10   C12   1.615353 S    
C20   C31   1.509891 S    
C32   H20   1.109998 S    
C6    C10   1.566784 S    
C7    C9    1.567391 S    
O2    C1    1.305610 A    
N5    O13   1.295642 A    
C13   C14   1.394728 A    
N3    O9    1.301629 A    
O4    C2    1.297684 A    
C2    C9    1.466937 S    
C6    H3    1.099906 S    
C16   C17   1.414621 A    
C4    C10   1.491405 S    
C31   H15   1.111408 S    
Zn1   O5    1.995868 S    
C5    N6    1.462435 S    
H4    C7    1.115916 S    
C34   H24   1.109136 S    
Zn2   O6    2.008083 S    
C26   H14   1.066691 S    
C34   H26   1.101690 S    
C13   C18   1.415248 A    
C8    C9    1.573371 S    
C32   H19   1.110202 S    
C11   N4    1.477848 S    
