data_mof_unit_13598.cif
_audit_creation_date              2012-12-11T14:41:14-0500
_audit_creation_method            fapswitch 2.2
_symmetry_space_group_name_H-M    P1
_symmetry_Int_Tables_number       1
_space_group_crystal_system       triclinic
_cell_length_a                    6.91865
_cell_length_b                    17.908303
_cell_length_c                    19.051212
_cell_angle_alpha                 89.948183
_cell_angle_beta                  90.000354
_cell_angle_gamma                 90.001247
_cell_volume                      2360.46859693

loop_
_atom_site_label
_atom_site_type_symbol
_atom_type_description
_atom_site_fract_x
_atom_site_fract_y
_atom_site_fract_z
_atom_type_partial_charge
O1    O     O_R   0.377350 0.828520 0.186660 -0.553536
O2    O     O_R   0.622650 0.171480 0.813340 -0.525310
O3    O     O_R   0.122650 0.171480 0.686660 -0.552656
O4    O     O_R   0.877350 0.828520 0.313340 -0.548698
O5    O     O_R   0.877350 0.671480 0.313340 -0.525308
O6    O     O_R   0.122650 0.328520 0.686660 -0.553508
O7    O     O_R   0.622650 0.328520 0.813340 -0.548683
O8    O     O_R   0.377350 0.671480 0.186660 -0.552556
O9    O     O_R   0.707090 0.671930 0.178410 -0.518026
O10   O     O_R   0.292910 0.328070 0.821590 -0.518823
O11   O     O_R   0.792910 0.328070 0.678410 -0.519198
O12   O     O_R   0.207090 0.671930 0.321590 -0.527857
O13   O     O_R   0.207090 0.828070 0.321590 -0.518859
O14   O     O_R   0.792910 0.171930 0.678410 -0.517914
O15   O     O_R   0.292910 0.171930 0.821590 -0.527828
O16   O     O_R   0.707090 0.828070 0.178410 -0.519145
C1    C     C_R   0.539111 0.645607 0.161572 0.784179
C2    C     C_R   0.460899 0.354069 0.838664 0.786144
C3    C     C_R   0.960896 0.354588 0.661702 0.777994
C4    C     C_R   0.039220 0.645613 0.338300 0.827399
C5    C     C_R   0.039103 0.854071 0.338660 0.786161
C6    C     C_R   0.960888 0.145603 0.661571 0.784087
C7    C     C_R   0.460777 0.145613 0.838302 0.827276
C8    C     C_R   0.539106 0.854601 0.161712 0.777890
O17   O     O_3   0.543850 0.750000 0.294270 -0.368842
O18   O     O_3   0.456150 0.250000 0.705730 -0.384452
O19   O     O_3   0.956150 0.250000 0.794270 -0.368807
O20   O     O_3   0.043850 0.750000 0.205730 -0.384468
V1    V     V_3+5 0.818700 0.750000 0.241790 1.525878
V2    V     V_3+5 0.181300 0.250000 0.758210 1.506403
V3    V     V_3+5 0.681300 0.250000 0.741790 1.525880
V4    V     V_3+5 0.318700 0.750000 0.258210 1.506433
C9    C     C_R   0.962013 0.417470 0.609674 -0.205543
C10   C     C_R   0.037948 0.583420 0.390686 -0.139601
C11   C     C_R   0.538831 0.583458 0.108956 -0.198555
C12   C     C_R   0.460963 0.415622 0.891700 -0.198634
C13   C     C_R   0.462029 0.083430 0.890699 -0.139637
C14   C     C_R   0.537997 0.917501 0.109697 -0.205575
C15   C     C_R   0.039030 0.915635 0.391681 -0.198662
C16   C     C_R   0.961138 0.083462 0.608940 -0.198561
C17   C     C_R   0.193646 0.471321 0.437849 0.344124
C18   C     C_R   0.802311 0.529334 0.562685 0.298822
C19   C     C_R   0.280322 0.518447 0.945486 0.350234
C20   C     C_R   0.718862 0.480186 0.055368 0.348784
C21   C     C_R   0.697870 0.029306 0.062652 0.298841
C22   C     C_R   0.306137 0.971405 0.937939 0.344178
C23   C     C_R   0.780932 0.980283 0.555261 0.348900
C24   C     C_R   0.219603 0.018511 0.445418 0.350180
C25   C     C_R   0.182813 0.528557 0.386746 0.179218
C26   C     C_R   0.814245 0.471368 0.613283 0.254650
C27   C     C_R   0.310304 0.468295 0.889124 0.223785
C28   C     C_R   0.690596 0.531177 0.111258 0.225674
C29   C     C_R   0.685933 0.971341 0.113253 0.254848
C30   C     C_R   0.317040 0.028608 0.886805 0.179199
C31   C     C_R   0.809116 0.031283 0.611144 0.225681
C32   C     C_R   0.189610 0.968338 0.389071 0.223845
C33   C     C_R   0.905703 0.582681 0.446953 0.108443
C34   C     C_R   0.096309 0.420472 0.553756 0.122272
C35   C     C_R   0.596781 0.418720 0.947188 0.119838
C36   C     C_R   0.400616 0.579102 0.054299 0.120705
C37   C     C_R   0.403469 0.920600 0.053855 0.122132
C38   C     C_R   0.594377 0.082665 0.946936 0.108416
C39   C     C_R   0.099692 0.078971 0.554404 0.120307
C40   C     C_R   0.903178 0.918756 0.447149 0.119879
C41   C     C_R   0.924666 0.528832 0.502560 -0.071918
C42   C     C_R   0.073101 0.473512 0.498264 -0.015669
C43   C     C_R   0.579463 0.474097 0.000877 -0.046087
C44   C     C_R   0.418724 0.524052 0.000383 -0.046809
C45   C     C_R   0.426775 0.973587 0.998327 -0.015616
C46   C     C_R   0.575389 0.028839 0.002562 -0.071918
C47   C     C_R   0.081330 0.024052 0.500374 -0.046827
C48   C     C_R   0.920466 0.974149 0.500822 -0.046075
N1    N     N_3   0.255664 0.369165 0.552520 -0.558714
H1    H     H_    0.202411 0.314665 0.553859 0.218242
H2    H     H_    0.343596 0.378812 0.596176 0.247656
N2    N     N_3   0.757078 0.638631 0.446579 -0.638490
H3    H     H_    0.621320 0.613087 0.448709 0.282327
H4    H     H_    0.777982 0.675485 0.488367 0.270060
N3    N     N_3   0.245910 0.632426 0.051619 -0.558748
H5    H     H_    0.303979 0.686214 0.051714 0.211594
H6    H     H_    0.156653 0.624977 0.095329 0.260196
N4    N     N_3   0.747606 0.363771 0.950954 -0.563493
H7    H     H_    0.686384 0.310429 0.949898 0.218345
H8    H     H_    0.840073 0.370603 0.908057 0.261429
N5    N     N_3   0.743142 0.138560 0.946513 -0.638407
H9    H     H_    0.878838 0.112969 0.948622 0.282320
H10   H     H_    0.722407 0.175435 0.988295 0.270050
N6    N     N_3   0.243655 0.869498 0.052762 -0.558682
H11   H     H_    0.156071 0.879285 0.096483 0.247660
H12   H     H_    0.296418 0.814931 0.054092 0.218540
N7    N     N_3   0.752365 0.863810 0.450918 -0.563495
H13   H     H_    0.813578 0.810472 0.449883 0.218351
H14   H     H_    0.659932 0.870623 0.408014 0.261479
N8    N     N_3   0.255455 0.131837 0.552122 -0.558818
H15   H     H_    0.198564 0.185805 0.552237 0.212298
H16   H     H_    0.343947 0.123993 0.595968 0.260236
O21   O     O_3   0.683222 0.467011 0.667981 -0.638274
H17   H     H_    0.557138 0.486931 0.651888 0.299332
O22   O     O_3   0.312406 0.531573 0.331539 -0.636102
H18   H     H_    0.438276 0.511315 0.347521 0.303846
O23   O     O_3   0.809549 0.530611 0.169641 -0.639068
H19   H     H_    0.861538 0.479572 0.176425 0.303088
O24   O     O_3   0.193654 0.469866 0.830140 -0.638845
H20   H     H_    0.142140 0.521040 0.823800 0.303432
O25   O     O_3   0.187387 0.031632 0.831616 -0.636149
H21   H     H_    0.061506 0.011414 0.847619 0.303807
O26   O     O_3   0.817076 0.966939 0.167911 -0.638299
H22   H     H_    0.943102 0.986918 0.151825 0.299306
O27   O     O_3   0.306151 0.969931 0.330059 -0.638870
H23   H     H_    0.357332 0.021149 0.323643 0.303397
O28   O     O_3   0.689929 0.030770 0.669467 -0.639208
H24   H     H_    0.637934 0.979734 0.676269 0.303025
O29   O     O_3   0.318121 0.411817 0.428255 -0.611340
H25   H     H_    0.332228 0.402032 0.377322 0.306317
O30   O     O_3   0.672576 0.586940 0.572379 -0.656899
H26   H     H_    0.660037 0.597073 0.623312 0.305509
O31   O     O_3   0.113614 0.560872 0.948123 -0.613341
H27   H     H_    0.006794 0.532583 0.925874 0.306456
O32   O     O_3   0.885611 0.437800 0.052413 -0.615543
H28   H     H_    0.993030 0.466311 0.074012 0.306418
O33   O     O_3   0.827737 0.086876 0.072310 -0.656896
H29   H     H_    0.840237 0.097049 0.123238 0.305424
O34   O     O_3   0.181541 0.911930 0.928395 -0.611380
H30   H     H_    0.167334 0.902127 0.877471 0.306285
O35   O     O_3   0.614122 0.937925 0.552261 -0.615560
H31   H     H_    0.506678 0.966462 0.573812 0.306424
O36   O     O_3   0.386043 0.061116 0.447905 -0.613242
H32   H     H_    0.492977 0.032888 0.425661 0.306494

loop_
_geom_bond_atom_site_label_1
_geom_bond_atom_site_label_2
_ccdc_geom_bond_type
C36   N3    S    
C9    C34   A    
N1    H1    S    
N6    H12   S    
O13   V4    S    
O28   H24   S    
C35   N4    S    
O14   V3    S    
C12   C35   A    
C13   C38   A    
O34   H30   S    
O5    C4    A    
N5    H9    S    
O6    C3    A    
C39   N8    S    
O11   C3    A    
O23   H19   S    
C16   C39   A    
C33   N2    S    
O20   V1    S    
N2    H4    S    
N7    H14   S    
C27   O24   S    
O30   H26   S    
O21   H17   S    
C38   C46   A    
O10   V2    S    
C22   C45   A    
C35   C43   A    
C34   C42   A    
C15   C32   A    
C19   C44   A    
C26   O21   S    
C18   C41   A    
C8    C14   S    
O26   H22   S    
O4    V1    S    
O9    V1    S    
C14   C37   A    
C4    C10   S    
C20   C28   A    
O17   V4    S    
O15   C7    A    
O11   V3    S    
O18   V3    S    
O16   C8    A    
O12   V4    S    
O19   V2    S    
N1    H2    S    
C22   C30   A    
N8    H15   S    
C17   C25   A    
C23   O35   S    
O5    V1    S    
O2    C7    A    
N5    H10   S    
O17   V1    S    
C38   N5    S    
C28   O23   S    
O7    V3    S    
O19   V3    S    
C43   C44   A    
O8    V4    S    
O20   V4    S    
N2    H3    S    
C3    C9    S    
C17   O29   S    
N7    H13   S    
N3    H6    S    
C20   O32   S    
C21   O33   S    
C9    C26   A    
C7    C13   S    
O1    V4    S    
O2    V3    S    
O3    V2    S    
C15   C40   A    
C37   N6    S    
C25   O22   S    
C29   O26   S    
O22   H18   S    
C5    C15   S    
O7    C2    A    
C6    C16   S    
O12   C4    A    
O13   C5    A    
N8    H16   S    
O33   H29   S    
C12   C27   A    
C18   C26   A    
C13   C30   A    
O9    C1    A    
O6    V2    S    
C39   C47   A    
O18   V2    S    
N4    H8    S    
O35   H31   S    
C22   O34   S    
C24   C47   A    
O36   H32   S    
C32   O27   S    
C11   C28   A    
O15   V2    S    
C23   C31   A    
O29   H25   S    
C37   C45   A    
C24   C32   A    
C10   C25   A    
C30   O25   S    
C31   O28   S    
C21   C46   A    
C33   C41   A    
C20   C43   A    
C16   C31   A    
O32   H28   S    
C17   C42   A    
O25   H21   S    
O8    C1    A    
O14   C6    A    
O16   V1    S    
C47   C48   A    
C41   C42   A    
O31   H27   S    
C24   O36   S    
O4    C5    A    
C19   C27   A    
C14   C29   A    
O10   C2    A    
C10   C33   A    
C40   C48   A    
C45   C46   A    
C23   C48   A    
C21   C29   A    
N3    H5    S    
C18   O30   S    
N6    H11   S    
C36   C44   A    
O1    C8    A    
N4    H7    S    
O24   H20   S    
C19   O31   S    
C11   C36   A    
O3    C6    A    
C1    C11   S    
C40   N7    S    
O27   H23   S    
C2    C12   S    
C34   N1    S    
