data_mof_unit_32269.cif
_audit_creation_date              2013-03-05T15:53:06-0500
_audit_creation_method            fapswitch 2.2
_symmetry_space_group_name_H-M    P1
_symmetry_Int_Tables_number       1
_space_group_crystal_system       triclinic
_cell_length_a                    9.981548
_cell_length_b                    10.612368
_cell_length_c                    15.492233
_cell_angle_alpha                 92.707536
_cell_angle_beta                  67.437807
_cell_angle_gamma                 91.169767
_cell_volume                      1513.76191807

loop_
_atom_site_label
_atom_site_type_symbol
_atom_site_description
_atom_site_fract_x
_atom_site_fract_y
_atom_site_fract_z
_atom_type_partial_charge
O1    O     O_R   0.385310 0.683220 0.500000 -0.622798
O2    O     O_R   0.614640 0.683250 0.500010 -0.608027
C1    C     C_R   0.502689 0.739038 0.497123 0.877495
O3    O     O_R   0.319840 0.499980 0.632240 -0.635991
O4    O     O_R   0.549160 0.500000 0.632250 -0.586970
C2    C     C_R   0.408696 0.495059 0.675572 0.899243
Zn1   Zn    Zn3+2 0.346880 0.499980 0.499990 0.942990
Zn2   Zn    Zn3+2 0.653120 0.500020 0.500010 0.945250
O5    O     O_R   0.385360 0.316750 0.499990 -0.606466
O6    O     O_R   0.614690 0.316780 0.500000 -0.615078
O7    O     O_R   0.450840 0.500000 0.367750 -0.613319
O8    O     O_R   0.680160 0.500020 0.367760 -0.632463
C3    C     C_R   0.500894 0.260734 0.496665 0.858421
C4    C     C_R   0.591333 0.498124 0.324122 0.835103
C5    C     C_R   0.351817 0.480151 0.776539 -0.090062
C6    C     C_R   0.646435 0.478522 0.222714 -0.048868
C7    C     C_R   0.161267 0.502776 0.929885 -0.184411
C8    C     C_R   0.205906 0.500963 0.832968 -0.123365
C9    C     C_R   0.449210 0.448287 0.816848 -0.280774
C10   C     C_R   0.406570 0.446211 0.913699 0.097850
C11   C     C_R   0.261317 0.478983 0.970672 0.160835
C12   C     C_R   0.507712 0.422416 0.954943 0.071706
C13   C     C_R   0.467812 0.451666 0.051555 0.072562
C14   C     C_R   0.320724 0.479484 0.107277 -0.225338
C15   C     C_R   0.218859 0.490656 0.067311 -0.236016
C16   C     C_R   0.646984 0.370613 0.903148 -0.215089
C17   C     C_R   0.746720 0.354982 0.944466 -0.212839
C18   C     C_R   0.713106 0.394847 0.037287 0.186665
C19   C     C_R   0.575537 0.448571 0.089926 0.099099
C20   C     C_R   0.814262 0.380501 0.078953 -0.210631
C21   C     C_R   0.780031 0.420332 0.172110 -0.219038
C22   C     C_R   0.550021 0.498883 0.179516 -0.240025
H1    H     H_    0.107539 0.512947 0.112020 0.148494
H2    H     H_    0.453090 0.552534 0.218205 0.155202
H3    H     H_    0.855120 0.401889 0.205195 0.142995
H4    H     H_    0.851247 0.313067 0.903204 0.152239
H5    H     H_    0.050098 0.527514 0.972751 0.168439
H6    H     H_    0.128062 0.520419 0.802471 0.182273
H7    H     H_    0.561043 0.433588 0.771498 0.169023
H8    H     H_    0.280278 0.489205 0.182617 0.143342
H9    H     H_    0.679790 0.336110 0.831428 0.150151
H10   H     H_    0.917598 0.335007 0.040458 0.141885
H11   H     H_    0.310670 0.890099 0.615512 0.184308
C23   C     C_R   0.723857 0.862818 0.342286 -0.192723
H12   H     H_    0.727826 0.760964 0.339016 0.152507
C24   C     C_R   0.827342 0.925882 0.269048 -0.114279
H13   H     H_    0.908872 0.872845 0.212452 0.149939
C25   C     C_R   0.824665 0.056852 0.267967 -0.128723
H14   H     H_    0.904022 0.105590 0.210535 0.140633
C26   C     C_R   0.718591 0.125218 0.340176 -0.184762
H15   H     H_    0.718114 0.226500 0.335343 0.140931
C27   C     C_R   0.613789 0.062801 0.415567 0.103134
C28   C     C_R   0.616359 0.930855 0.416627 0.092082
C29   C     C_R   0.507451 0.871274 0.491061 -0.114001
C30   C     C_R   0.395280 0.937871 0.559976 -0.209162
H16   H     H_    0.308285 0.118279 0.614735 0.162009
C31   C     C_R   0.393331 0.066383 0.559253 -0.192904
C32   C     C_R   0.503039 0.127977 0.489216 -0.099714
H17   H     H_    0.946768 0.387895 0.376001 0.132562
C33   C     C_R   0.783836 0.636319 0.649801 0.184154
C34   C     C_R   0.813292 0.665185 0.730489 -0.305035
H18   H     H_    0.730638 0.706576 0.792724 0.209663
C35   C     C_R   0.955370 0.672774 0.724215 0.262545
C36   C     C_R   0.064620 0.631348 0.641138 -0.273201
H19   H     H_    0.173098 0.654188 0.632305 0.240427
C37   C     C_R   0.033353 0.564034 0.570963 0.088276
C38   C     C_R   0.888356 0.565228 0.572565 0.092338
N1    N     N_R   0.856800 0.501200 0.500850 -0.103838
C39   C     C_R   0.967805 0.438507 0.431806 -0.118536
H20   H     H_    0.195179 0.387525 0.376117 0.142550
C40   C     C_R   0.110241 0.438416 0.431931 -0.094500
N2    N     N_R   0.142390 0.501280 0.500880 -0.099758
N3    N     N_2   0.684609 0.717384 0.634339 -0.235450
H21   H     H_    0.738603 0.784330 0.586833 0.233803
C41   C     C_3   0.563855 0.771855 0.713207 -0.716563
H22   H     H_    0.480251 0.804738 0.688788 0.239870
H23   H     H_    0.601220 0.854284 0.745094 0.225476
H24   H     H_    0.512778 0.701270 0.766767 0.246259
N4    N     N_R   0.989235 0.733200 0.798675 0.207130
O9    O     O_R   0.888610 0.751440 0.881723 -0.397716
O10   O     O_R   0.120592 0.771607 0.783967 -0.443430

loop_
_geom_bond_atom_site_label_1
_geom_bond_atom_site_label_2
_geom_bond_distance
_ccdc_geom_bond_type
C5    C8    1.397152 A    
N3    H21   1.032586 S    
C9    C10   1.394858 A    
C35   N4    1.441045 S    
C28   C29   1.410721 A    
C23   H12   1.080531 S    
C6    C21   1.399936 A    
Zn1   O7    1.908562 S    
C16   C17   1.390721 A    
C13   C19   1.415789 A    
C18   C19   1.415761 A    
C19   C22   1.393064 A    
C20   C21   1.395754 A    
O7    C4    1.302421 A    
C33   N3    1.419423 S    
H16   C31   1.084984 S    
C39   C40   1.422505 A    
C34   C35   1.384707 A    
O5    C3    1.290521 A    
C2    C5    1.460250 S    
C24   H13   1.082763 S    
C23   C28   1.415582 A    
C37   N2    1.364319 A    
C33   C38   1.441621 A    
N1    C39   1.366694 A    
C26   C27   1.415777 A    
C13   C14   1.417364 A    
H20   C40   1.081741 S    
C25   C26   1.394501 A    
C37   C38   1.438252 A    
N3    C41   1.453088 S    
O3    Zn1   1.961194 S    
C23   C24   1.395131 A    
C26   H15   1.081198 S    
C27   C32   1.411058 A    
C24   C25   1.391716 A    
C38   N1    1.408476 A    
C14   C15   1.387874 A    
O3    C2    1.304651 A    
Zn1   N2    2.036200 S    
N4    O10   1.301868 A    
C3    C32   1.408069 S    
C7    C11   1.403556 A    
C35   C36   1.388530 A    
C33   C34   1.408928 A    
O1    C1    1.288280 A    
C36   C37   1.402696 A    
C5    C9    1.395914 A    
C41   H22   1.108098 S    
Zn2   O8    1.961191 S    
C7    C8    1.391946 A    
C7    H5    1.082207 S    
C41   H23   1.111568 S    
C9    H7    1.076534 S    
C1    C29   1.409517 S    
H17   C39   1.082058 S    
H11   C30   1.084729 S    
C25   H14   1.082831 S    
O8    C4    1.304432 A    
Zn2   N1    2.037850 S    
C30   C31   1.364986 A    
C4    C6    1.457613 S    
C27   C28   1.402011 A    
Zn1   O5    1.989752 S    
C11   C15   1.390730 A    
C29   C30   1.391650 A    
O1    Zn1   1.974390 S    
O2    Zn2   1.989753 S    
C10   C12   1.418407 A    
O6    C3    1.288855 A    
O4    Zn2   1.908562 S    
C17   H4    1.084136 S    
C6    C22   1.391793 A    
C36   H19   1.062364 S    
C18   C20   1.405362 A    
O2    C1    1.291926 A    
C8    H6    1.080317 S    
C40   N2    1.369671 A    
C31   C32   1.389141 A    
O4    C2    1.302757 A    
C14   H8    1.079213 S    
C21   H3    1.083072 S    
C34   H18   1.080540 S    
C41   H24   1.108173 S    
N4    O9    1.301689 A    
C10   C11   1.418329 A    
Zn2   O6    1.974389 S    
C12   C16   1.418510 A    
C15   H1    1.083983 S    
C17   C18   1.391933 A    
C12   C13   1.413831 A    
C20   H10   1.083398 S    
C16   H9    1.078473 S    
C22   H2    1.079237 S    
