data_mof_unit_12817.cif
_audit_creation_date              2012-12-10T20:56:30-0500
_audit_creation_method            fapswitch 2.2
_symmetry_space_group_name_H-M    P1
_symmetry_Int_Tables_number       1
_space_group_crystal_system       triclinic
_cell_length_a                    12.970778
_cell_length_b                    15.087731
_cell_length_c                    15.801195
_cell_angle_alpha                 90.096024
_cell_angle_beta                  90.733098
_cell_angle_gamma                 70.175264
_cell_volume                      2908.77175059

loop_
_atom_site_label
_atom_site_type_symbol
_atom_type_description
_atom_site_fract_x
_atom_site_fract_y
_atom_site_fract_z
_atom_type_partial_charge
C1    C     C_R   0.497887 0.500620 0.661153 0.884384
C2    C     C_R   0.994094 0.443017 0.532497 0.037287
C3    C     C_R   0.884971 0.459085 0.555331 -0.000821
C4    C     C_R   0.039153 0.513522 0.552596 0.013915
C5    C     C_R   0.994195 0.579538 0.617336 -0.168194
C6    C     C_R   0.888052 0.590174 0.646277 0.384604
C7    C     C_R   0.838854 0.523780 0.621576 0.058739
C8    C     C_R   0.123556 0.523616 0.504703 -0.242398
C9    C     C_R   0.146008 0.639424 0.603150 0.038318
C10   C     C_R   0.825747 0.411579 0.508926 -0.149424
C11   C     C_R   0.522982 0.407025 0.045274 0.425769
C12   C     C_R   0.705780 0.447978 0.502957 0.907147
C13   C     C_R   0.542777 0.481930 0.088112 -0.078809
C14   C     C_R   0.564995 0.555097 0.044745 0.104531
C15   C     C_R   0.556921 0.557936 0.955891 0.122365
C16   C     C_R   0.524834 0.488891 0.913705 0.031251
C17   C     C_R   0.507368 0.413526 0.956976 -0.014287
C18   C     C_1   0.527544 0.489286 0.176786 0.099355
C19   C     C_1   0.512587 0.494635 0.824375 0.024972
C20   C     C_1   0.504081 0.498505 0.749587 -0.135269
C21   C     C_1   0.513477 0.495371 0.250922 -0.091770
C22   C     C_R   0.474018 0.054681 0.575454 0.443499
C23   C     C_R   0.500439 0.499760 0.338789 0.905079
C24   C     C_R   0.500782 0.094668 0.501030 -0.164601
C25   C     C_R   0.525769 0.040003 0.425824 -0.017180
C26   C     C_R   0.517535 0.947799 0.423162 0.376914
C27   C     C_R   0.492346 0.907280 0.497802 -0.152151
C28   C     C_R   0.466598 0.962142 0.572869 0.020409
C29   C     C_1   0.500019 0.192999 0.500530 0.248283
C30   C     C_1   0.496625 0.807947 0.498781 0.250048
C31   C     C_R   0.294448 0.551834 0.503289 0.899274
C32   C     C_R   0.059130 0.630377 0.651626 0.492876
C33   C     C_R   0.180743 0.581602 0.531065 -0.118005
C34   C     C_R   0.881502 0.334242 0.458474 -0.317364
C35   C     C_R   0.995372 0.303322 0.452548 0.468104
C36   C     C_R   0.053938 0.356313 0.491701 0.045171
H1    H     H_    0.150111 0.481916 0.448107 0.181825
H2    H     H_    0.835477 0.297822 0.423756 0.198277
N1    N     N_1   0.500030 0.729450 0.499980 -0.070075
N2    N     N_1   0.499970 0.270550 0.500020 -0.071198
O1    O     O_R   0.500000 0.426350 0.621980 -0.569459
O2    O     O_R   0.499950 0.573700 0.621980 -0.630729
O3    O     O_R   0.653660 0.389750 0.499980 -0.610717
O4    O     O_R   0.653610 0.537090 0.499980 -0.590947
O5    O     O_R   0.500050 0.426300 0.378020 -0.588549
O6    O     O_R   0.500000 0.573650 0.378020 -0.581187
O7    O     O_R   0.346390 0.462910 0.500020 -0.610137
O8    O     O_R   0.346340 0.610250 0.500020 -0.609372
Zn1   Zn    Zn3+2 0.500030 0.401620 0.500000 1.033070
Zn2   Zn    Zn3+2 0.499970 0.598380 0.500000 1.017382
C37   C     C_3   0.204929 0.705852 0.630746 -0.696456
H3    H     H_    0.212188 0.749534 0.576191 0.231887
H4    H     H_    0.159453 0.756010 0.679777 0.272784
H5    H     H_    0.287579 0.665501 0.656200 0.248998
S1    S     S_3+6 0.512257 0.308504 0.103303 0.036663
O9    O     O_2   0.581214 0.291913 0.182792 -0.281602
O10   O     O_2   0.394398 0.329471 0.126623 -0.282229
O11   O     O_3   0.554436 0.209031 0.045796 -0.533119
H6    H     H_    0.537273 0.161377 0.080565 0.405423
C38   C     C_3   0.595812 0.630274 0.092467 -0.719550
H7    H     H_    0.602614 0.619744 0.161936 0.248970
H8    H     H_    0.677299 0.630054 0.071572 0.252792
H9    H     H_    0.533190 0.700527 0.080279 0.257445
C39   C     C_3   0.578762 0.634772 0.904376 -0.730633
H10   H     H_    0.603004 0.686374 0.942190 0.258484
H11   H     H_    0.645938 0.602088 0.859323 0.255444
H12   H     H_    0.503721 0.675038 0.867949 0.240714
C40   C     C_3   0.429001 0.922321 0.650099 -0.616420
H13   H     H_    0.400433 0.862627 0.635075 0.193643
H14   H     H_    0.497461 0.896867 0.696653 0.299643
H15   H     H_    0.357645 0.976351 0.679208 0.266944
S2    S     S_3+6 0.446770 0.121399 0.671815 0.026560
O12   O     O_2   0.500765 0.195181 0.673813 -0.290452
O13   O     O_2   0.324922 0.168911 0.678602 -0.306456
O14   O     O_3   0.492816 0.051189 0.756599 -0.523131
H16   H     H_    0.465122 0.092294 0.806160 0.400043
C41   C     C_3   0.563272 0.079778 0.348483 -0.630462
H17   H     H_    0.595824 0.137010 0.364048 0.213032
H18   H     H_    0.631966 0.024931 0.317371 0.284406
H19   H     H_    0.493635 0.108513 0.303389 0.266312
S3    S     S_3+6 0.540747 0.882390 0.326149 0.042534
O15   O     O_2   0.662051 0.834068 0.316664 -0.246683
O16   O     O_2   0.486148 0.808999 0.324881 -0.291447
O17   O     O_3   0.493090 0.953536 0.242199 -0.510370
H20   H     H_    0.412851 0.980474 0.250395 0.377766
S4    S     S_3+6 0.802628 0.698810 0.690732 0.077743
O18   O     O_2   0.791982 0.687951 0.784370 -0.196793
O19   O     O_2   0.847046 0.777046 0.674433 -0.238633
O20   O     O_3   0.677289 0.729840 0.646104 -0.567920
H21   H     H_    0.690846 0.732185 0.584784 0.347738
S5    S     S_3+6 0.066514 0.642704 0.763846 0.075820
O21   O     O_2   0.013083 0.743878 0.789187 -0.208697
O22   O     O_2   0.012264 0.582500 0.808186 -0.248063
O23   O     O_3   0.199027 0.606930 0.794647 -0.584033
H22   H     H_    0.197593 0.616084 0.856766 0.393258
C42   C     C_3   0.177602 0.313032 0.500971 -0.715387
H23   H     H_    0.217697 0.315109 0.439766 0.248013
H24   H     H_    0.211080 0.348579 0.550215 0.251271
H25   H     H_    0.200948 0.238843 0.522511 0.282890
S6    S     S_3+6 0.061345 0.199715 0.393705 0.050479
O24   O     O_2   0.142236 0.216933 0.334380 -0.239250
O25   O     O_2   0.121705 0.120981 0.453156 -0.303618
O26   O     O_3   0.969605 0.167427 0.336568 -0.494449
H26   H     H_    0.939960 0.131726 0.376378 0.365229
C43   C     C_3   0.753820 0.509687 0.679232 -0.750374
H27   H     H_    0.784124 0.504184 0.745741 0.249778
H28   H     H_    0.676967 0.570129 0.674792 0.285679
H29   H     H_    0.737706 0.443364 0.666109 0.202809
C44   C     C_3   0.469296 0.342267 0.909535 -0.615266
H30   H     H_    0.431687 0.368060 0.846935 0.232495
H31   H     H_    0.539904 0.276832 0.899136 0.276260
H32   H     H_    0.404525 0.326339 0.945236 0.271339

loop_
_geom_bond_atom_site_label_1
_geom_bond_atom_site_label_2
_ccdc_geom_bond_type
S1    O9    D    
C23   O5    A    
C18   C21   T    
C35   C36   A    
C9    C37   S    
C4    C8    A    
S3    O15   D    
O7    Zn1   S    
C41   H17   S    
C43   H28   S    
C26   C27   A    
C13   C18   S    
C38   H9    S    
C25   C41   S    
C28   C40   S    
C12   O3    A    
C3    C7    A    
C44   H31   S    
C5    C6    A    
S4    O19   D    
C32   S5    S    
C2    C36   A    
N2    Zn1   S    
C42   H25   S    
C38   H8    S    
C34   C35   A    
O1    Zn1   S    
C24   C29   S    
C9    C32   A    
C19   C20   T    
C40   H13   S    
C42   H24   S    
C15   C39   S    
C7    C43   S    
C5    C32   A    
O8    Zn2   S    
C23   O6    A    
C31   O7    A    
C13   C14   A    
C27   C30   S    
C9    C33   A    
S2    O14   S    
C22   S2    S    
S3    O16   D    
C41   H18   S    
C43   H29   S    
C31   C33   S    
C37   H3    S    
C39   H12   S    
C24   C25   A    
S2    O13   D    
C44   H32   S    
S5    O21   D    
S4    O18   D    
C16   C17   A    
O11   H6    S    
S6    O26   S    
C38   H7    S    
C37   H4    S    
C39   H11   S    
C2    C4    A    
O14   H16   S    
S5    O22   D    
C36   C42   S    
O5    Zn1   S    
C42   H23   S    
S6    O25   D    
C10   C34   A    
O17   H20   S    
C10   C12   S    
O2    Zn2   S    
C1    O1    A    
C26   S3    S    
C31   O8    A    
S1    O10   D    
C22   C24   A    
C8    H1    S    
C35   S6    S    
O26   H26   S    
S3    O17   S    
C11   S1    S    
C41   H19   S    
O4    Zn2   S    
C11   C17   A    
C1    C20   S    
C34   H2    S    
O3    Zn1   S    
S2    O12   D    
S4    O20   S    
C17   C44   S    
C40   H15   S    
C6    C7    A    
C14   C38   S    
C43   H27   S    
O6    Zn2   S    
C6    S4    S    
C37   H5    S    
C39   H10   S    
C21   C23   S    
C2    C3    A    
C25   C26   A    
C12   O4    A    
C3    C10   A    
C44   H30   S    
S5    O23   S    
C11   C13   A    
C16   C19   S    
C29   N2    T    
S6    O24   D    
C30   N1    T    
C8    C33   A    
O23   H22   S    
C1    O2    A    
C4    C5    A    
N1    Zn2   S    
C40   H14   S    
S1    O11   S    
C27   C28   A    
C14   C15   A    
C22   C28   A    
O20   H21   S    
C15   C16   A    
