data_mof_unit_33158.cif
_audit_creation_date              2012-12-10T17:02:14-0500
_audit_creation_method            fapswitch 2.2
_symmetry_space_group_name_H-M    P1
_symmetry_Int_Tables_number       1
_space_group_crystal_system       triclinic
_cell_length_a                    10.807508
_cell_length_b                    10.640905
_cell_length_c                    10.016661
_cell_angle_alpha                 86.351857
_cell_angle_beta                  90.028838
_cell_angle_gamma                 89.535043
_cell_volume                      1149.55999153

loop_
_atom_site_label
_atom_site_type_symbol
_atom_type_description
_atom_site_fract_x
_atom_site_fract_y
_atom_site_fract_z
_atom_type_partial_charge
C1    C     C_R   0.511909 0.261542 0.503951 1.000258
C2    C     C_R   0.066733 0.412736 0.608156 0.027452
C3    C     C_R   0.129260 0.477845 0.501121 -0.092209
C4    C     C_R   0.066285 0.540247 0.395805 -0.221137
C5    C     C_R   0.939590 0.546295 0.394694 0.128850
C6    C     C_R   0.873472 0.483949 0.501344 -0.104423
C7    C     C_2   0.585335 0.930428 0.415286 -0.188822
C8    C     C_2   0.494569 0.870489 0.482528 -0.340066
C9    C     C_2   0.587189 0.067611 0.407931 0.088116
C10   C     C_2   0.548995 0.129068 0.516053 -0.202361
C11   C     C_2   0.565125 0.577134 0.920605 0.007507
C12   C     C_R   0.260711 0.493339 0.500591 0.933964
C13   C     C_2   0.539281 0.593412 0.067066 -0.071790
C14   C     C_R   0.496722 0.737668 0.495615 0.935497
C15   C     C_R   0.740259 0.496395 0.500499 0.863386
C16   C     C_R   0.129586 0.341542 0.712913 -0.010166
C17   C     C_R   0.072144 0.325101 0.838773 0.033004
C18   C     C_R   0.942046 0.329814 0.843076 0.024891
C19   C     C_R   0.877458 0.350829 0.720838 0.135836
C20   C     C_R   0.936936 0.416881 0.610257 -0.020886
H1    H     H_    0.117220 0.590660 0.316146 0.164099
H2    H     H_    0.429372 0.455515 0.901124 0.155946
H3    H     H_    0.496297 0.414401 0.108619 0.191611
H4    H     H_    0.655702 0.878834 0.363147 0.188383
H5    H     H_    0.420088 0.919008 0.531377 0.173854
N1    N     N_2   0.501340 0.501330 0.852150 -0.237537
N2    N     N_2   0.501380 0.501360 0.147810 -0.240795
O1    O     O_R   0.499980 0.319060 0.613040 -0.599481
O2    O     O_R   0.500020 0.319100 0.386900 -0.613868
O3    O     O_R   0.316750 0.499980 0.613090 -0.635036
O4    O     O_R   0.316790 0.500020 0.386950 -0.616266
O5    O     O_R   0.499980 0.680900 0.613100 -0.588810
O6    O     O_R   0.500020 0.680940 0.386960 -0.636165
O7    O     O_R   0.683210 0.499980 0.613050 -0.644841
O8    O     O_R   0.683250 0.500020 0.386910 -0.609182
Zn1   Zn    Zn3+2 0.499970 0.499970 0.650990 0.959739
Zn2   Zn    Zn3+2 0.500030 0.500030 0.349010 0.950770
C21   C     C_2   0.560392 0.065926 0.654218 0.369936
H6    H     H_    0.623568 0.986873 0.672338 0.144209
O9    O     O_2   0.500107 0.100721 0.748189 -0.552075
C22   C     C_2   0.662412 0.653051 0.851900 0.588770
H7    H     H_    0.743187 0.607065 0.812781 0.065334
O10   O     O_2   0.652945 0.767501 0.838334 -0.575219
C23   C     C_2   0.555822 0.718801 0.118380 0.561718
H8    H     H_    0.476801 0.767797 0.157657 0.066973
O11   O     O_2   0.656965 0.768985 0.115819 -0.589103
C24   C     C_2   0.233577 0.255996 0.682951 0.454439
H9    H     H_    0.295502 0.219557 0.761150 0.136514
O12   O     O_2   0.245802 0.218548 0.570941 -0.595893
C25   C     C_3   0.147371 0.293230 0.963879 -0.949055
H10   H     H_    0.247246 0.311853 0.948112 0.233770
H11   H     H_    0.117471 0.353637 0.044542 0.251730
H12   H     H_    0.134985 0.192630 0.997257 0.252007
C26   C     C_2   0.874266 0.298670 0.970368 0.385383
H13   H     H_    0.920330 0.249910 0.054993 0.091122
O13   O     O_2   0.766251 0.330042 0.983366 -0.602907
C27   C     C_3   0.770580 0.265192 0.699015 -0.727054
H14   H     H_    0.687442 0.297206 0.752030 0.305801
H15   H     H_    0.752502 0.258479 0.590959 0.176193
H16   H     H_    0.793787 0.168079 0.739108 0.216257
C28   C     C_3   0.879534 0.627737 0.282568 -0.749190
H17   H     H_    0.829944 0.568020 0.213386 0.272332
H18   H     H_    0.815072 0.696697 0.324635 0.243855
H19   H     H_    0.948209 0.683080 0.221417 0.219888
C29   C     C_3   0.625350 0.131576 0.275206 -0.721132
H20   H     H_    0.672543 0.064152 0.211511 0.246107
H21   H     H_    0.542894 0.168568 0.218992 0.258468
H22   H     H_    0.691566 0.208518 0.291265 0.231502

loop_
_geom_bond_atom_site_label_1
_geom_bond_atom_site_label_2
_ccdc_geom_bond_type
C17   C25   S    
C28   H19   S    
C25   H11   S    
C26   O13   D    
C4    H1    S    
H3    N2    S    
C1    O1    A    
C6    C20   A    
C22   H7    S    
C15   O7    A    
C19   C20   A    
O3    Zn1   S    
C10   C21   S    
C29   H22   S    
C12   O3    A    
C28   H17   S    
C14   O6    A    
C1    O2    A    
C17   C18   A    
C5    C28   S    
C7    C8    D    
C24   O12   D    
C19   C27   S    
C21   O9    D    
C8    H5    S    
C22   O10   D    
C27   H14   S    
C5    C6    A    
N2    Zn2   S    
C7    H4    S    
O5    Zn1   S    
C16   C24   S    
C15   O8    A    
O8    Zn2   S    
C23   O11   D    
O6    Zn2   S    
C11   C22   S    
O7    Zn1   S    
C12   O4    A    
C21   H6    S    
C9    C29   S    
C27   H15   S    
C25   H12   S    
C16   C17   A    
C18   C26   S    
C2    C20   A    
C3    C4    A    
C9    C10   D    
O4    Zn2   S    
C11   C13   S    
C2    C16   A    
C23   H8    S    
O1    Zn1   S    
C7    C9    S    
C29   H20   S    
H2    N1    S    
O2    Zn2   S    
C28   H18   S    
N1    Zn1   S    
C26   H13   S    
C18   C19   A    
C27   H16   S    
C2    C3    A    
C3    C12   S    
C8    C14   S    
C11   N1    D    
C25   H10   S    
C6    C15   S    
C13   C23   S    
C13   N2    D    
C1    C10   S    
C24   H9    S    
C14   O5    A    
C4    C5    A    
C29   H21   S    
