data_mof_unit_66388.cif
_audit_creation_date              2012-12-11T14:06:00-0500
_audit_creation_method            fapswitch 2.2
_symmetry_space_group_name_H-M    P1
_symmetry_Int_Tables_number       1
_space_group_crystal_system       triclinic
_cell_length_a                    23.756785
_cell_length_b                    23.756785
_cell_length_c                    23.75678
_cell_angle_alpha                 90.00001
_cell_angle_beta                  90.00001
_cell_angle_gamma                 90.000016
_cell_volume                      13407.9663257

loop_
_atom_site_label
_atom_site_type_symbol
_atom_type_description
_atom_site_fract_x
_atom_site_fract_y
_atom_site_fract_z
_atom_type_partial_charge
C1    C     C_R   0.277705 0.722294 0.205507 -0.380991
C2    C     C_R   0.794493 0.722294 0.277705 -0.380992
C3    C     C_1   0.689649 0.833480 0.689650 0.289258
C4    C     C_1   0.833481 0.310350 0.310350 0.289258
C5    C     C_1   0.166519 0.689650 0.689650 0.289258
C6    C     C_1   0.689649 0.833480 0.310350 0.289257
C7    C     C_1   0.310350 0.166520 0.689650 0.289257
C8    C     C_1   0.166520 0.310350 0.689650 0.289257
C9    C     C_1   0.833480 0.689649 0.310350 0.289257
C10   C     C_1   0.310350 0.833481 0.689650 0.289257
C11   C     C_1   0.689650 0.166519 0.310350 0.289258
C12   C     C_1   0.833480 0.689649 0.689650 0.289258
C13   C     C_R   0.205507 0.277706 0.277705 -0.380991
C14   C     C_1   0.166519 0.310350 0.310350 0.289258
C15   C     C_1   0.689650 0.166519 0.689650 0.289258
C16   C     C_1   0.310350 0.833481 0.310350 0.289258
C17   C     C_1   0.310350 0.310350 0.166519 0.289258
C18   C     C_1   0.689650 0.689650 0.833481 0.289258
C19   C     C_1   0.310350 0.689649 0.833480 0.289258
C20   C     C_1   0.689649 0.310350 0.166519 0.289258
C21   C     C_1   0.689649 0.310350 0.833480 0.289258
C22   C     C_1   0.310350 0.689650 0.166519 0.289258
C23   C     C_1   0.689650 0.689650 0.166519 0.289257
C24   C     C_R   0.794493 0.722294 0.722294 -0.380991
C25   C     C_1   0.310350 0.310350 0.833481 0.289257
C26   C     C_R   0.365713 0.430416 0.090050 0.731874
C27   C     C_R   0.634287 0.569584 0.909950 0.731873
C28   C     C_R   0.569583 0.365713 0.090050 0.731876
C29   C     C_R   0.430417 0.634286 0.909950 0.731876
C30   C     C_R   0.634287 0.569584 0.090050 0.731874
C31   C     C_R   0.365713 0.430416 0.909950 0.731874
C32   C     C_R   0.430417 0.634286 0.090050 0.731874
C33   C     C_R   0.569583 0.365713 0.909950 0.731874
C34   C     C_R   0.365713 0.569583 0.909950 0.731874
C35   C     C_R   0.205506 0.722295 0.277705 -0.380990
C36   C     C_R   0.634286 0.430417 0.090050 0.731874
C37   C     C_R   0.569584 0.634287 0.909950 0.731874
C38   C     C_R   0.430416 0.365713 0.090050 0.731874
C39   C     C_R   0.634286 0.430417 0.909950 0.731876
C40   C     C_R   0.365713 0.569583 0.090050 0.731875
C41   C     C_R   0.430416 0.365713 0.909950 0.731874
C42   C     C_R   0.569584 0.634287 0.090050 0.731874
C43   C     C_R   0.090050 0.365713 0.430416 0.731874
C44   C     C_R   0.909950 0.634286 0.569583 0.731874
C45   C     C_R   0.090050 0.569583 0.365713 0.731875
C46   C     C_R   0.794493 0.277705 0.722294 -0.380990
C47   C     C_R   0.909950 0.430416 0.634286 0.731875
C48   C     C_R   0.090050 0.634287 0.569584 0.731875
C49   C     C_R   0.909950 0.365713 0.430416 0.731875
C50   C     C_R   0.090050 0.430417 0.634286 0.731873
C51   C     C_R   0.909949 0.569583 0.365714 0.731873
C52   C     C_R   0.909950 0.365713 0.569583 0.731873
C53   C     C_R   0.090050 0.634286 0.430417 0.731873
C54   C     C_R   0.909950 0.569583 0.634286 0.731875
C55   C     C_R   0.090050 0.430417 0.365713 0.731875
C56   C     C_R   0.909950 0.634286 0.430417 0.731875
C57   C     C_R   0.205506 0.722295 0.722295 -0.380990
C58   C     C_R   0.090050 0.365714 0.569583 0.731875
C59   C     C_R   0.909951 0.430416 0.365713 0.731876
C60   C     C_R   0.090049 0.569584 0.634287 0.731876
C61   C     C_R   0.430417 0.090050 0.365713 0.731875
C62   C     C_R   0.569583 0.909950 0.634286 0.731875
C63   C     C_R   0.365714 0.090050 0.569583 0.731875
C64   C     C_R   0.634286 0.909950 0.430417 0.731875
C65   C     C_R   0.569584 0.090049 0.634287 0.731876
C66   C     C_R   0.430416 0.909951 0.365713 0.731876
C67   C     C_R   0.634286 0.090050 0.430417 0.731873
C68   C     C_R   0.794494 0.277705 0.277705 -0.380990
C69   C     C_R   0.365713 0.909950 0.569583 0.731873
C70   C     C_R   0.569583 0.909949 0.365714 0.731873
C71   C     C_R   0.430417 0.090050 0.634286 0.731873
C72   C     C_R   0.634286 0.909950 0.569583 0.731874
C73   C     C_R   0.365713 0.090050 0.430416 0.731874
C74   C     C_R   0.430416 0.909950 0.634286 0.731875
C75   C     C_R   0.569583 0.090050 0.365713 0.731875
C76   C     C_R   0.365713 0.909950 0.430416 0.731875
C77   C     C_R   0.634287 0.090050 0.569584 0.731875
C78   C     C_R   0.722295 0.205506 0.277705 -0.380990
C79   C     C_R   0.277705 0.794493 0.722294 -0.380990
C80   C     C_R   0.277706 0.205507 0.277705 -0.380991
C81   C     C_R   0.722294 0.277705 0.794493 -0.380991
C82   C     C_R   0.722294 0.794493 0.722294 -0.380991
C83   C     C_R   0.277705 0.205507 0.722294 -0.380992
C84   C     C_R   0.722295 0.794493 0.277705 -0.380992
C85   C     C_R   0.722295 0.205506 0.722295 -0.380990
C86   C     C_R   0.277705 0.794494 0.277705 -0.380990
C87   C     C_R   0.229231 0.698525 0.229231 0.687289
C88   C     C_R   0.770769 0.301474 0.770769 0.687289
C89   C     C_R   0.301475 0.229231 0.229230 0.687291
C90   C     C_R   0.698525 0.770769 0.770769 0.687291
C91   C     C_R   0.770770 0.301474 0.229230 0.687290
C92   C     C_R   0.277705 0.277705 0.205506 -0.380992
C93   C     C_R   0.229230 0.698526 0.770770 0.687290
C94   C     C_R   0.698526 0.770770 0.229230 0.687291
C95   C     C_R   0.301474 0.229230 0.770770 0.687291
C96   C     C_R   0.229230 0.301474 0.770770 0.687291
C97   C     C_R   0.770770 0.698526 0.229230 0.687291
C98   C     C_R   0.301475 0.770769 0.770769 0.687289
C99   C     C_R   0.698525 0.229231 0.229231 0.687289
C100  C     C_R   0.770769 0.698525 0.770769 0.687291
C101  C     C_R   0.229231 0.301475 0.229230 0.687291
C102  C     C_R   0.698526 0.229230 0.770770 0.687290
C103  C     C_R   0.722294 0.722294 0.794494 -0.380992
C104  C     C_R   0.301474 0.770770 0.229230 0.687290
C105  C     C_R   0.229231 0.229231 0.698525 0.687291
C106  C     C_R   0.770769 0.770769 0.301475 0.687291
C107  C     C_R   0.229230 0.770770 0.301474 0.687290
C108  C     C_R   0.770770 0.229230 0.698526 0.687290
C109  C     C_R   0.770770 0.229230 0.301474 0.687290
C110  C     C_R   0.229230 0.770770 0.698526 0.687290
C111  C     C_R   0.770769 0.770769 0.698525 0.687290
C112  C     C_R   0.229231 0.229231 0.301475 0.687290
C113  C     C_R   0.377740 0.377740 0.110158 -0.447214
C114  C     C_R   0.722295 0.277706 0.205507 -0.380991
C115  C     C_R   0.622259 0.622259 0.889842 -0.447214
C116  C     C_R   0.622259 0.377741 0.110158 -0.447216
C117  C     C_R   0.377741 0.622259 0.889842 -0.447216
C118  C     C_R   0.622259 0.622259 0.110158 -0.447217
C119  C     C_R   0.377741 0.377741 0.889842 -0.447217
C120  C     C_R   0.377741 0.622259 0.110158 -0.447216
C121  C     C_R   0.622259 0.377741 0.889842 -0.447216
C122  C     C_R   0.110158 0.377741 0.377741 -0.447216
C123  C     C_R   0.889842 0.622259 0.622259 -0.447216
C124  C     C_R   0.110158 0.622259 0.377741 -0.447216
C125  C     C_R   0.277705 0.722294 0.794493 -0.380991
C126  C     C_R   0.889842 0.377741 0.622259 -0.447216
C127  C     C_R   0.110157 0.622260 0.622260 -0.447215
C128  C     C_R   0.889843 0.377740 0.377740 -0.447215
C129  C     C_R   0.110159 0.377741 0.622259 -0.447219
C130  C     C_R   0.889841 0.622259 0.377741 -0.447218
C131  C     C_R   0.377741 0.110158 0.377741 -0.447216
C132  C     C_R   0.622259 0.889842 0.622259 -0.447216
C133  C     C_R   0.377741 0.110159 0.622259 -0.447219
C134  C     C_R   0.622259 0.889841 0.377741 -0.447218
C135  C     C_R   0.622260 0.110157 0.622260 -0.447215
C136  C     C_R   0.722295 0.722295 0.205506 -0.380990
C137  C     C_R   0.377740 0.889843 0.377740 -0.447215
C138  C     C_R   0.622259 0.110158 0.377741 -0.447216
C139  C     C_R   0.377741 0.889842 0.622259 -0.447216
C140  C     C_1   0.138498 0.659861 0.340139 0.257835
C141  C     C_1   0.861502 0.340139 0.659861 0.257835
C142  C     C_1   0.340139 0.138497 0.340139 0.257835
C143  C     C_1   0.659861 0.861502 0.659861 0.257835
C144  C     C_1   0.861503 0.340139 0.340139 0.257834
C145  C     C_1   0.138496 0.659861 0.659861 0.257834
C146  C     C_1   0.659860 0.861502 0.340139 0.257837
C147  C     C_R   0.277705 0.277705 0.794494 -0.380990
C148  C     C_1   0.340139 0.138498 0.659861 0.257837
C149  C     C_1   0.138498 0.340139 0.659861 0.257837
C150  C     C_1   0.861502 0.659860 0.340139 0.257837
C151  C     C_1   0.340139 0.861502 0.659861 0.257835
C152  C     C_1   0.659861 0.138497 0.340139 0.257835
C153  C     C_1   0.861502 0.659861 0.659861 0.257835
C154  C     C_1   0.138498 0.340139 0.340139 0.257835
C155  C     C_1   0.659861 0.138496 0.659861 0.257834
C156  C     C_1   0.340139 0.861503 0.340139 0.257834
C157  C     C_1   0.340139 0.340139 0.138497 0.257834
C158  C     C_R   0.205507 0.277705 0.722294 -0.380992
C159  C     C_1   0.659861 0.659861 0.861503 0.257834
C160  C     C_1   0.340139 0.659861 0.861502 0.257835
C161  C     C_1   0.659861 0.340139 0.138497 0.257835
C162  C     C_1   0.659861 0.340139 0.861502 0.257835
C163  C     C_1   0.340139 0.659861 0.138497 0.257835
C164  C     C_1   0.659861 0.659861 0.138497 0.257835
C165  C     C_1   0.340139 0.340139 0.861503 0.257835
C166  C     C_1   0.166519 0.689650 0.310350 0.289258
C167  C     C_1   0.833481 0.310350 0.689650 0.289257
C168  C     C_1   0.310350 0.166519 0.310350 0.289258
F1    F     F_    0.208881 0.649027 0.208881 -0.598195
F2    F     F_    0.791120 0.649027 0.208880 -0.598194
F3    F     F_    0.350973 0.791119 0.791119 -0.598195
F4    F     F_    0.649027 0.208881 0.208881 -0.598195
F5    F     F_    0.791119 0.649027 0.791119 -0.598194
F6    F     F_    0.208881 0.350973 0.208880 -0.598194
F7    F     F_    0.649027 0.208880 0.791119 -0.598194
F8    F     F_    0.350973 0.791120 0.208880 -0.598194
F9    F     F_    0.208881 0.208881 0.649027 -0.598194
F10   F     F_    0.791119 0.791119 0.350973 -0.598194
F11   F     F_    0.208880 0.791120 0.350973 -0.598194
F12   F     F_    0.791119 0.350973 0.791119 -0.598194
F13   F     F_    0.791120 0.208880 0.649027 -0.598194
F14   F     F_    0.791120 0.208880 0.350973 -0.598194
F15   F     F_    0.208880 0.791120 0.649027 -0.598194
F16   F     F_    0.791119 0.791119 0.649027 -0.598195
F17   F     F_    0.208881 0.208881 0.350973 -0.598195
F18   F     F_    0.312575 0.449153 0.082166 -0.534730
F19   F     F_    0.687425 0.550847 0.917834 -0.534730
F20   F     F_    0.550847 0.312575 0.082167 -0.534732
F21   F     F_    0.449153 0.687425 0.917833 -0.534732
F22   F     F_    0.687425 0.550847 0.082166 -0.534731
F23   F     F_    0.350973 0.208881 0.208880 -0.598194
F24   F     F_    0.312575 0.449153 0.917834 -0.534731
F25   F     F_    0.449153 0.687425 0.082167 -0.534732
F26   F     F_    0.550847 0.312575 0.917833 -0.534732
F27   F     F_    0.312575 0.550847 0.917833 -0.534732
F28   F     F_    0.687425 0.449153 0.082167 -0.534732
F29   F     F_    0.550847 0.687425 0.917834 -0.534730
F30   F     F_    0.449153 0.312575 0.082166 -0.534730
F31   F     F_    0.687424 0.449153 0.917833 -0.534732
F32   F     F_    0.312575 0.550847 0.082167 -0.534732
F33   F     F_    0.449153 0.312575 0.917834 -0.534731
F34   F     F_    0.649027 0.791119 0.791119 -0.598194
F35   F     F_    0.550847 0.687425 0.082166 -0.534731
F36   F     F_    0.082167 0.312575 0.449153 -0.534731
F37   F     F_    0.917833 0.687425 0.550847 -0.534731
F38   F     F_    0.082167 0.550847 0.312575 -0.534732
F39   F     F_    0.917833 0.449153 0.687425 -0.534732
F40   F     F_    0.082166 0.687425 0.550847 -0.534731
F41   F     F_    0.917834 0.312575 0.449153 -0.534731
F42   F     F_    0.082167 0.449153 0.687425 -0.534732
F43   F     F_    0.917833 0.550847 0.312575 -0.534732
F44   F     F_    0.917833 0.312575 0.550847 -0.534732
F45   F     F_    0.791119 0.350973 0.208880 -0.598194
F46   F     F_    0.082167 0.687425 0.449153 -0.534732
F47   F     F_    0.917833 0.550847 0.687425 -0.534731
F48   F     F_    0.082167 0.449153 0.312575 -0.534731
F49   F     F_    0.917833 0.687425 0.449153 -0.534731
F50   F     F_    0.082167 0.312575 0.550847 -0.534731
F51   F     F_    0.917834 0.449153 0.312575 -0.534731
F52   F     F_    0.082166 0.550847 0.687425 -0.534731
F53   F     F_    0.449153 0.082167 0.312575 -0.534731
F54   F     F_    0.550847 0.917833 0.687425 -0.534731
F55   F     F_    0.312575 0.082167 0.550847 -0.534731
F56   F     F_    0.208880 0.649027 0.791119 -0.598194
F57   F     F_    0.687425 0.917833 0.449153 -0.534731
F58   F     F_    0.550847 0.082166 0.687425 -0.534731
F59   F     F_    0.449153 0.917834 0.312575 -0.534731
F60   F     F_    0.687425 0.082167 0.449153 -0.534732
F61   F     F_    0.312575 0.917833 0.550847 -0.534732
F62   F     F_    0.550847 0.917833 0.312575 -0.534732
F63   F     F_    0.449153 0.082167 0.687425 -0.534732
F64   F     F_    0.687425 0.917833 0.550847 -0.534731
F65   F     F_    0.312575 0.082167 0.449153 -0.534731
F66   F     F_    0.449153 0.917833 0.687425 -0.534732
F67   F     F_    0.649027 0.791120 0.208880 -0.598194
F68   F     F_    0.550847 0.082167 0.312575 -0.534732
F69   F     F_    0.312575 0.917834 0.449153 -0.534731
F70   F     F_    0.687425 0.082166 0.550847 -0.534731
F71   F     F_    0.350973 0.208880 0.791120 -0.598194
F72   F     F_    0.208880 0.350973 0.791120 -0.598194
N1    N     N_R   0.411340 0.449990 0.062390 -0.184194
N2    N     N_R   0.588660 0.449990 0.062390 -0.184193
N3    N     N_R   0.550010 0.588660 0.937610 -0.184194
N4    N     N_R   0.449990 0.411340 0.062390 -0.184194
N5    N     N_R   0.588660 0.449990 0.937610 -0.184193
N6    N     N_R   0.411340 0.550010 0.062390 -0.184193
N7    N     N_R   0.449990 0.411340 0.937610 -0.184193
N8    N     N_R   0.550010 0.588660 0.062390 -0.184193
N9    N     N_R   0.062390 0.411340 0.449990 -0.184193
N10   N     N_R   0.937610 0.588660 0.550010 -0.184193
N11   N     N_R   0.062390 0.550010 0.411340 -0.184193
N12   N     N_R   0.588660 0.550010 0.937610 -0.184194
N13   N     N_R   0.937610 0.449990 0.588660 -0.184193
N14   N     N_R   0.062390 0.588660 0.550010 -0.184194
N15   N     N_R   0.937610 0.411340 0.449990 -0.184194
N16   N     N_R   0.062390 0.449990 0.588660 -0.184192
N17   N     N_R   0.937610 0.550010 0.411340 -0.184192
N18   N     N_R   0.937610 0.411340 0.550010 -0.184193
N19   N     N_R   0.062390 0.588660 0.449990 -0.184193
N20   N     N_R   0.937610 0.550010 0.588660 -0.184193
N21   N     N_R   0.062390 0.449990 0.411340 -0.184193
N22   N     N_R   0.937610 0.588660 0.449990 -0.184193
N23   N     N_R   0.550010 0.411340 0.062390 -0.184193
N24   N     N_R   0.062390 0.411340 0.550010 -0.184193
N25   N     N_R   0.937610 0.449990 0.411340 -0.184194
N26   N     N_R   0.062390 0.550010 0.588660 -0.184194
N27   N     N_R   0.449990 0.062390 0.411340 -0.184193
N28   N     N_R   0.550010 0.937610 0.588660 -0.184193
N29   N     N_R   0.411340 0.062390 0.550010 -0.184193
N30   N     N_R   0.588660 0.937610 0.449990 -0.184193
N31   N     N_R   0.550010 0.062390 0.588660 -0.184194
N32   N     N_R   0.449990 0.937610 0.411340 -0.184194
N33   N     N_R   0.588660 0.062390 0.449990 -0.184193
N34   N     N_R   0.449990 0.588660 0.937610 -0.184193
N35   N     N_R   0.411340 0.937610 0.550010 -0.184193
N36   N     N_R   0.550010 0.937610 0.411340 -0.184192
N37   N     N_R   0.449990 0.062390 0.588660 -0.184192
N38   N     N_R   0.588660 0.937610 0.550010 -0.184193
N39   N     N_R   0.411340 0.062390 0.449990 -0.184193
N40   N     N_R   0.449990 0.937610 0.588660 -0.184193
N41   N     N_R   0.550010 0.062390 0.411340 -0.184193
N42   N     N_R   0.411340 0.937610 0.449990 -0.184194
N43   N     N_R   0.588660 0.062390 0.550010 -0.184194
N44   N     N_R   0.588660 0.550010 0.062390 -0.184193
N45   N     N_R   0.411340 0.449990 0.937610 -0.184193
N46   N     N_R   0.449990 0.588660 0.062390 -0.184193
N47   N     N_R   0.550010 0.411340 0.937610 -0.184193
N48   N     N_R   0.411340 0.550010 0.937610 -0.184193
Ni1   Ni    Ni4+2 0.412730 0.500000 0.000000 0.332238
Ni2   Ni    Ni4+2 0.500000 0.000000 0.587270 0.332238
Ni3   Ni    Ni4+2 0.412730 1.000000 0.500000 0.332238
Ni4   Ni    Ni4+2 0.587270 1.000000 0.500000 0.332238
Ni5   Ni    Ni4+2 0.587270 0.500000 0.000000 0.332238
Ni6   Ni    Ni4+2 0.500000 0.412730 0.000000 0.332238
Ni7   Ni    Ni4+2 0.500000 0.587270 0.000000 0.332238
Ni8   Ni    Ni4+2 0.000000 0.412730 0.500000 0.332238
Ni9   Ni    Ni4+2 0.000000 0.587270 0.500000 0.332238
Ni10  Ni    Ni4+2 0.000000 0.500000 0.412730 0.332238
Ni11  Ni    Ni4+2 0.000000 0.500000 0.587270 0.332238
Ni12  Ni    Ni4+2 0.500000 0.000000 0.412730 0.332238

loop_
_geom_bond_atom_site_label_1
_geom_bond_atom_site_label_2
_ccdc_geom_bond_type
C109  F14   S    
C69   C139  A    
N6    Ni1   S    
C1    C87   A    
C53   F46   S    
C54   N20   A    
N7    N45   A    
C101  F6    S    
C24   C111  A    
C118  C164  S    
C63   C133  A    
C76   N42   A    
C13   C112  A    
C6    C146  T    
C96   C147  A    
C67   C138  A    
C61   N27   A    
C18   C159  T    
C28   C116  A    
C120  C163  S    
N13   N18   A    
N22   Ni9   S    
C66   F59   S    
C74   F66   S    
C15   C85   S    
C72   C132  A    
N32   N42   A    
C134  C146  S    
C64   C134  A    
C46   C167  S    
C62   C132  A    
C3    C143  T    
N16   Ni11  S    
C31   F24   S    
C19   C125  S    
C83   C105  A    
C76   F69   S    
N34   Ni7   S    
C10   C151  T    
C105  C158  A    
C52   N18   A    
C48   F40   S    
C25   C147  S    
C95   F71   S    
C128  C144  S    
C43   C122  A    
C65   C135  A    
C64   N30   A    
N46   Ni7   S    
C127  C145  S    
C33   F26   S    
N16   N24   A    
C77   F70   S    
C29   F21   S    
N34   N48   A    
N8    N44   A    
C47   C126  A    
N9    Ni8   S    
N14   N26   A    
C44   C123  A    
C107  F11   S    
C24   C100  A    
C105  F9    S    
N15   Ni8   S    
C75   C138  A    
C82   C90   A    
C4    C144  T    
N43   Ni4   S    
C126  C141  S    
C82   C111  A    
C60   F52   S    
N35   N40   A    
N33   N41   A    
C91   F45   S    
N14   Ni9   S    
C48   C127  A    
C29   C117  A    
C49   N15   A    
C44   F37   S    
N23   Ni6   S    
C72   N38   A    
C81   C88   A    
C35   C107  A    
C142  C168  T    
N17   Ni10  S    
C78   C99   A    
C52   F44   S    
C71   F63   S    
C110  F15   S    
C113  C157  S    
C80   C168  S    
C90   F34   S    
C27   C115  A    
C7    C83   S    
C54   C123  A    
C45   F38   S    
N5    N47   A    
C86   C104  A    
C99   C114  A    
C104  F8    S    
C76   C137  A    
C73   N39   A    
C42   N8    A    
N25   Ni10  S    
C23   C136  S    
C19   C160  T    
C32   N46   A    
C58   C129  A    
C87   F1    S    
N45   Ni1   S    
C62   N28   A    
C35   C87   A    
C98   C125  A    
C33   N47   A    
C34   N48   A    
C130  C150  S    
C38   F30   S    
C17   C157  T    
C119  C165  S    
C15   C155  T    
C18   C103  S    
C1    C22   S    
C13   C14   S    
C14   C154  T    
N41   Ni12  S    
C64   F57   S    
C93   C125  A    
C69   N35   A    
N11   Ni10  S    
C70   N36   A    
C59   N25   A    
N12   Ni5   S    
C63   F55   S    
C116  C161  S    
C95   C147  A    
C112  F17   S    
C4    C68   S    
C52   C126  A    
C99   F4    S    
C30   C118  A    
C102  F7    S    
N1    Ni1   S    
C2    C106  A    
C97   F2    S    
N8    Ni7   S    
C36   F28   S    
C129  C149  S    
C50   C129  A    
C69   F61   S    
C43   N9    A    
N31   N43   A    
N29   N37   A    
C75   F68   S    
N6    N46   A    
C36   C116  A    
N2    Ni5   S    
C70   C134  A    
C23   C164  T    
C49   C128  A    
C39   F31   S    
N19   Ni9   S    
C21   C162  T    
C72   F64   S    
C58   N24   A    
N26   Ni11  S    
C60   N26   A    
C32   F25   S    
C53   C124  A    
N20   Ni11  S    
C28   N23   A    
N38   Ni4   S    
C12   C24   S    
C91   C114  A    
N1    N4    A    
C36   N2    A    
C63   N29   A    
C45   N11   A    
C58   F50   S    
C139  C151  S    
C78   C109  A    
C62   F54   S    
N13   Ni11  S    
C50   N16   A    
C61   C131  A    
C50   F42   S    
C43   F36   S    
C2    C9    S    
C13   C101  A    
C106  F10   S    
C56   C130  A    
C85   C102  A    
C34   F27   S    
C37   N3    A    
C8    C158  S    
C26   N1    A    
N7    Ni6   S    
C71   N37   A    
C108  F13   S    
N29   Ni3   S    
C28   F20   S    
N30   Ni4   S    
C94   F67   S    
N28   N38   A    
C35   C166  S    
C80   C89   A    
N11   N19   A    
C2    C97   A    
C16   C156  T    
C84   C106  A    
C85   C108  A    
N32   Ni12  S    
C73   F65   S    
C132  C143  S    
C117  C160  S    
C16   C86   S    
C96   F72   S    
C31   N45   A    
C56   F49   S    
N36   Ni12  S    
C88   F12   S    
C140  C166  T    
C54   F47   S    
C9    C150  T    
C141  C167  T    
C6    C84   S    
N17   N22   A    
C38   C113  A    
C42   C118  A    
C40   F32   S    
C138  C152  S    
C100  C103  A    
N40   Ni2   S    
C115  C159  S    
C56   N22   A    
C27   N12   A    
C57   C110  A    
C5    C145  T    
N10   Ni9   S    
C74   N40   A    
C84   C94   A    
C41   C119  A    
C31   C119  A    
C92   C101  A    
C44   N10   A    
C40   C120  A    
C41   F33   S    
C123  C153  S    
C79   C110  A    
C124  C140  S    
C60   C127  A    
C40   N6    A    
C10   C79   S    
C37   C115  A    
C38   N4    A    
C39   C121  A    
C5    C57   S    
C25   C165  T    
C8    C149  T    
C26   C113  A    
N35   Ni3   S    
C20   C114  S    
C121  C162  S    
N27   N39   A    
C65   F58   S    
C93   F56   S    
C68   C109  A    
C61   F53   S    
C90   C103  A    
N18   Ni8   S    
N42   Ni3   S    
C49   F41   S    
N24   Ni8   S    
C96   C158  A    
N21   Ni10  S    
C73   C131  A    
C53   N19   A    
C26   F18   S    
C79   C98   A    
C86   C107  A    
C12   C153  T    
C67   F60   S    
C47   N13   A    
N3    Ni7   S    
C68   C91   A    
C135  C155  S    
C39   N5    A    
N5    Ni5   S    
C94   C136  A    
N2    N23   A    
N33   Ni4   S    
C37   F29   S    
N31   Ni2   S    
C34   C117  A    
C30   F22   S    
C51   N17   A    
C55   C122  A    
C57   C93   A    
C41   N7    A    
C33   C121  A    
C122  C154  S    
C80   C112  A    
C42   F35   S    
C17   C92   S    
C32   C120  A    
N10   N20   A    
C51   C130  A    
C46   C88   A    
C81   C102  A    
C45   C124  A    
N30   N36   A    
C55   F48   S    
C27   F19   S    
N37   Ni2   S    
C59   C128  A    
N15   N25   A    
C77   N43   A    
C137  C156  S    
C46   C108  A    
C67   N33   A    
C70   F62   S    
C11   C78   S    
C83   C95   A    
C3    C82   S    
C30   N44   A    
C89   F23   S    
N27   Ni12  S    
C133  C148  S    
C89   C92   A    
C1    C104  A    
C131  C142  S    
C98   F3    S    
C21   C81   S    
N39   Ni3   S    
N28   Ni2   S    
C7    C148  T    
C29   N34   A    
N3    N12   A    
C55   N21   A    
C71   C133  A    
C74   C139  A    
C75   N41   A    
N47   Ni6   S    
C47   F39   S    
N48   Ni1   S    
C59   F51   S    
C22   C163  T    
N4    Ni6   S    
C66   C137  A    
N44   Ni5   S    
C20   C161  T    
C111  F16   S    
C65   N31   A    
C66   N32   A    
C51   F43   S    
C11   C152  T    
C100  F5    S    
C77   C135  A    
C97   C136  A    
N9    N21   A    
C48   N14   A    
