data_mof_unit_8965.cif
_audit_creation_date              2012-12-11T15:50:35-0500
_audit_creation_method            fapswitch 2.2
_symmetry_space_group_name_H-M    P1
_symmetry_Int_Tables_number       1
_space_group_crystal_system       triclinic
_cell_length_a                    18.848275
_cell_length_b                    11.030192
_cell_length_c                    18.794184
_cell_angle_alpha                 89.92582
_cell_angle_beta                  90.969264
_cell_angle_gamma                 90.01996
_cell_volume                      3906.75001884

loop_
_atom_site_label
_atom_site_type_symbol
_atom_type_description
_atom_site_fract_x
_atom_site_fract_y
_atom_site_fract_z
_atom_type_partial_charge
C1    C     C_R   0.272769 0.041539 0.853736 0.544939
C2    C     C_R   0.755490 0.585446 0.923870 0.024418
C3    C     C_R   0.229314 0.546177 0.353444 0.553408
C4    C     C_R   0.470968 0.823173 0.647661 0.548396
C5    C     C_R   0.533219 0.823197 0.354900 0.557959
C6    C     C_R   0.970958 0.323173 0.647655 0.549868
C7    C     C_R   0.033206 0.323198 0.354893 0.557997
C8    C     C_R   0.259942 0.638512 0.643020 0.555346
C9    C     C_R   0.738333 0.643031 0.358885 0.549364
C10   C     C_R   0.759929 0.138465 0.643042 0.551023
C11   C     C_R   0.238339 0.143003 0.358872 0.549129
C12   C     C_3   0.495911 0.932179 0.027046 -0.104234
C13   C     C_R   0.743913 0.082921 0.075457 0.035791
C14   C     C_3   0.546257 0.930107 0.962573 -0.123031
C15   C     C_3   0.993163 0.429092 0.027437 -0.106989
C16   C     C_3   0.044008 0.429468 0.963447 -0.124877
C17   C     C_3   0.448868 0.834626 0.991124 -0.109572
C18   C     C_3   0.591063 0.828997 0.999074 -0.137392
C19   C     C_3   0.947275 0.330812 0.990600 -0.108208
C20   C     C_3   0.089395 0.328909 0.999614 -0.139015
C21   C     C_3   0.499798 0.831571 0.928102 0.054768
C22   C     C_3   0.539985 0.830094 0.062007 0.049512
C23   C     C_3   0.998786 0.330460 0.928105 0.056030
C24   C     C_R   0.254425 0.087629 0.923182 0.023662
C25   C     C_3   0.037878 0.327763 0.062170 0.051123
C26   C     C_3   0.422777 0.408476 0.872518 -0.019893
C27   C     C_3   0.408650 0.314320 0.815165 -0.330296
C28   C     C_3   0.635771 0.366292 0.146088 0.010657
C29   C     C_3   0.686038 0.339907 0.208748 -0.310597
C30   C     C_3   0.895792 0.885063 0.864876 0.000806
C31   C     C_3   0.857935 0.842803 0.796933 -0.316663
C32   C     C_3   0.140062 0.864283 0.147234 0.011425
C33   C     C_3   0.191217 0.839555 0.209390 -0.309763
C34   C     C_R   0.310422 0.576028 0.045968 -0.037730
C35   C     C_R   0.690749 0.562507 0.956301 -0.051753
C36   C     C_R   0.811550 0.075817 0.046294 -0.037428
C37   C     C_R   0.190594 0.060655 0.956447 -0.052585
C38   C     C_R   0.320414 0.604360 0.974995 0.020620
C39   C     C_R   0.681833 0.587356 0.028079 0.021534
C40   C     C_R   0.821587 0.105084 0.975072 0.022791
C41   C     C_R   0.726887 0.040388 0.145881 0.524401
C42   C     C_R   0.181617 0.086116 0.028149 0.021942
C43   C     C_R   0.194349 0.636290 0.959920 -0.165348
C44   C     C_R   0.803817 0.653537 0.036584 -0.159703
C45   C     C_R   0.695858 0.143737 0.961365 -0.160823
C46   C     C_R   0.302057 0.160067 0.035238 -0.159939
C47   C     C_R   0.185035 0.613876 0.030954 -0.119915
C48   C     C_R   0.811184 0.635545 0.964894 -0.119015
C49   C     C_R   0.686630 0.120340 0.032160 -0.113909
C50   C     C_R   0.308935 0.143206 0.963346 -0.120082
C51   C     C_3   0.363668 0.476262 0.044585 -0.225044
C52   C     C_R   0.772973 0.541064 0.853902 0.534382
C53   C     C_3   0.651187 0.446196 0.961142 -0.213134
C54   C     C_3   0.859164 0.968317 0.042002 -0.225788
C55   C     C_3   0.153011 0.942424 0.961879 -0.212407
C56   C     C_3   0.378793 0.513111 0.968226 0.149750
C57   C     C_3   0.639435 0.474369 0.039129 0.155773
C58   C     C_3   0.872497 0.002643 0.965084 0.152671
C59   C     C_3   0.141255 0.971057 0.039829 0.155527
C60   C     C_R   0.261997 0.629653 0.930503 0.050880
C61   C     C_R   0.738984 0.630466 0.069127 0.055018
C62   C     C_R   0.763272 0.136463 0.931651 0.055227
C63   C     C_R   0.226581 0.539591 0.145667 0.526149
C64   C     C_R   0.238225 0.132912 0.068614 0.052766
C65   C     C_R   0.517906 0.829596 0.430387 0.017619
C66   C     C_R   0.506308 0.829208 0.579350 0.018013
C67   C     C_R   0.017868 0.329599 0.430372 0.017619
C68   C     C_R   0.006273 0.329210 0.579334 0.018569
C69   C     C_R   0.471064 0.822005 0.855124 0.541788
C70   C     C_R   0.561140 0.818109 0.137724 0.546942
C71   C     C_R   0.970990 0.321854 0.855025 0.542292
C72   C     C_R   0.060209 0.317832 0.137564 0.546026
C73   C     C_R   0.523527 0.722497 0.469308 0.040883
C74   C     C_3   0.543766 0.731144 0.963328 -0.132918
C75   C     C_R   0.518574 0.721535 0.541962 0.027425
C76   C     C_R   0.023480 0.222497 0.469292 0.040864
C77   C     C_R   0.018526 0.221535 0.541944 0.027898
C78   C     C_R   0.513721 0.939563 0.542715 -0.168367
C79   C     C_R   0.518317 0.939818 0.468143 -0.162969
C80   C     C_R   0.013677 0.439566 0.542697 -0.168061
C81   C     C_R   0.018277 0.439821 0.468126 -0.162878
C82   C     C_3   0.483866 0.606590 0.459982 -0.278517
C83   C     C_3   0.478871 0.603604 0.540104 -0.268877
C84   C     C_3   0.983809 0.106599 0.459965 -0.278423
C85   C     C_3   0.493215 0.733758 0.026873 -0.125677
C86   C     C_3   0.978808 0.103618 0.540087 -0.269282
C87   C     C_R   0.252912 0.591080 0.421422 0.015865
C88   C     C_R   0.748202 0.606027 0.581788 0.018507
C89   C     C_R   0.752893 0.091017 0.421450 0.015777
C90   C     C_R   0.248227 0.105953 0.581756 0.019443
C91   C     C_R   0.217607 0.686944 0.453568 0.012777
C92   C     C_R   0.796974 0.678107 0.545282 0.019982
C93   C     C_R   0.717599 0.186888 0.453596 0.012837
C94   C     C_R   0.297020 0.177978 0.545244 0.021581
C95   C     C_R   0.217527 0.694592 0.526120 0.050018
C96   C     C_3   0.043250 0.230343 0.962976 -0.130462
C97   C     C_R   0.793615 0.684364 0.472820 0.038309
C98   C     C_R   0.717511 0.194523 0.526147 0.051247
C99   C     C_R   0.293648 0.184258 0.472788 0.037914
C100  C     C_R   0.297459 0.525153 0.537080 -0.176292
C101  C     C_R   0.684011 0.572987 0.471332 -0.153029
C102  C     C_R   0.797413 0.025047 0.537117 -0.176667
C103  C     C_R   0.184011 0.072967 0.471314 -0.153263
C104  C     C_R   0.298441 0.517371 0.463246 -0.164089
C105  C     C_R   0.686785 0.566863 0.545619 -0.154738
C106  C     C_R   0.798400 0.017275 0.463279 -0.163611
C107  C     C_3   0.992138 0.230162 0.026088 -0.119207
C108  C     C_R   0.186795 0.066835 0.545598 -0.155017
C109  C     C_3   0.142327 0.730753 0.447730 -0.275458
C110  C     C_3   0.876781 0.676329 0.544161 -0.270834
C111  C     C_3   0.642330 0.230744 0.447747 -0.275685
C112  C     C_3   0.376825 0.176095 0.544103 -0.270148
C113  C     C_3   0.142094 0.734996 0.528023 -0.263903
C114  C     C_3   0.871988 0.682963 0.464148 -0.277986
C115  C     C_3   0.642086 0.234977 0.528041 -0.263886
C116  C     C_3   0.372017 0.182801 0.464094 -0.278819
C117  C     C_R   0.271382 0.674108 0.859231 0.558210
C118  C     C_R   0.242672 0.579291 0.074666 0.037684
C119  C     C_R   0.729183 0.672906 0.140794 0.542885
C120  C     C_R   0.772185 0.177338 0.859297 0.561594
C121  C     C_R   0.228850 0.173972 0.140743 0.544350
C122  C     C_R   0.253109 0.609839 0.568932 0.024389
C123  C     C_R   0.741641 0.622021 0.434379 0.022157
C124  C     C_R   0.753077 0.109755 0.568963 0.025318
C125  C     C_R   0.241652 0.121958 0.434356 0.022003
C126  C     C_R   0.270570 0.048770 0.647407 0.552625
C127  C     C_R   0.729309 0.046159 0.353454 0.553586
C128  C     C_R   0.770558 0.548806 0.647426 0.550014
Cr1   Cr    Cr6+3 0.229640 0.835880 0.747370 0.999447
Cr2   Cr    Cr6+3 0.614230 0.677220 0.250660 0.978400
Cr3   Cr    Cr6+3 0.885770 0.177220 0.749340 0.982065
Cr4   Cr    Cr6+3 0.114230 0.177220 0.250660 0.979220
Cr5   Cr    Cr6+3 0.770360 0.835880 0.252630 0.994974
Cr6   Cr    Cr6+3 0.729640 0.335880 0.747370 0.997521
Cr7   Cr    Cr6+3 0.270360 0.335880 0.252630 0.994648
Cr8   Cr    Cr6+3 0.387390 0.989720 0.750850 0.982567
Cr9   Cr    Cr6+3 0.612610 0.989720 0.249150 0.983027
Cr10  Cr    Cr6+3 0.887390 0.489720 0.750850 0.983097
Cr11  Cr    Cr6+3 0.112610 0.489720 0.249150 0.982697
Cr12  Cr    Cr6+3 0.385770 0.677220 0.749340 0.991536
H1    H     H_    0.390081 0.837615 0.986616 0.114129
H2    H     H_    0.923716 0.113145 0.558428 0.176556
H3    H     H_    0.516788 0.532297 0.438386 0.129965
H4    H     H_    0.423779 0.613111 0.558446 0.176261
H5    H     H_    0.431901 0.619912 0.432269 0.142621
H6    H     H_    0.509576 0.528277 0.565065 0.121763
H7    H     H_    0.931845 0.119929 0.432249 0.142743
H8    H     H_    0.009505 0.028282 0.565050 0.121397
H9    H     H_    0.330027 0.464308 0.568984 0.121767
H10   H     H_    0.638668 0.536112 0.443020 0.126082
H11   H     H_    0.829973 0.964199 0.569030 0.118744
H12   H     H_    0.649845 0.829858 0.003489 0.114906
H13   H     H_    0.138649 0.036142 0.443008 0.126216
H14   H     H_    0.329195 0.445836 0.439655 0.141328
H15   H     H_    0.644697 0.522295 0.573885 0.116788
H16   H     H_    0.829149 0.945744 0.439684 0.141343
H17   H     H_    0.144695 0.022311 0.573871 0.116910
H18   H     H_    0.104095 0.663637 0.426313 0.163064
H19   H     H_    0.899188 0.588908 0.562444 0.174124
H20   H     H_    0.604089 0.163656 0.426317 0.162967
H21   H     H_    0.399178 0.088620 0.562365 0.173595
H22   H     H_    0.138621 0.821589 0.422443 0.120614
H23   H     H_    0.888536 0.333333 0.985477 0.112580
H24   H     H_    0.900792 0.758453 0.568959 0.121252
H25   H     H_    0.638648 0.321586 0.422464 0.120686
H26   H     H_    0.400887 0.258165 0.568913 0.123577
H27   H     H_    0.136147 0.827310 0.549590 0.140270
H28   H     H_    0.893204 0.768889 0.442303 0.132763
H29   H     H_    0.636159 0.327292 0.549613 0.140490
H30   H     H_    0.393237 0.268742 0.442270 0.132831
H31   H     H_    0.106895 0.666037 0.552170 0.133212
H32   H     H_    0.890726 0.599350 0.437352 0.138504
H33   H     H_    0.606869 0.166038 0.552181 0.133056
H34   H     H_    0.148144 0.330796 0.004468 0.112742
H35   H     H_    0.390728 0.099199 0.437266 0.138521
H36   H     H_    0.476431 0.014721 0.054234 0.117174
H37   H     H_    0.566403 0.010082 0.933559 0.109696
H38   H     H_    0.972670 0.510576 0.054949 0.116170
H39   H     H_    0.063203 0.510457 0.934828 0.108166
H40   H     H_    0.560132 0.649450 0.933880 0.114277
H41   H     H_    0.473265 0.655738 0.057375 0.117720
H42   H     H_    0.060791 0.149535 0.933296 0.116913
H43   H     H_    0.971922 0.149338 0.054053 0.115668
H44   H     H_    0.147993 0.661351 0.928478 0.126622
H45   H     H_    0.510421 0.024722 0.570786 0.113755
H46   H     H_    0.849913 0.684855 0.066436 0.128387
H47   H     H_    0.649355 0.169172 0.930218 0.125108
H48   H     H_    0.348082 0.192144 0.064814 0.129921
H49   H     H_    0.131272 0.617546 0.050325 0.138959
H50   H     H_    0.863233 0.651946 0.943444 0.153495
H51   H     H_    0.632873 0.124739 0.051473 0.140636
H52   H     H_    0.360223 0.163800 0.941323 0.165739
H53   H     H_    0.828722 0.883766 0.048386 0.166925
H54   H     H_    0.190109 0.866812 0.952801 0.174412
H55   H     H_    0.337286 0.387777 0.049409 0.164584
H56   H     H_    0.519281 0.025200 0.440105 0.118627
H57   H     H_    0.687378 0.369774 0.951763 0.173598
H58   H     H_    0.408665 0.490580 0.082430 0.084147
H59   H     H_    0.601671 0.445882 0.928262 0.070181
H60   H     H_    0.906716 0.976166 0.077359 0.081074
H61   H     H_    0.103209 0.939815 0.929413 0.073997
H62   H     H_    0.430851 0.558666 0.962920 0.088110
H63   H     H_    0.582426 0.492816 0.050176 0.074866
H64   H     H_    0.927739 0.034970 0.956746 0.083552
H65   H     H_    0.084015 0.986787 0.051161 0.073269
H66   H     H_    0.471148 0.381086 0.903459 0.093404
H67   H     H_    0.010381 0.524725 0.570767 0.113451
H68   H     H_    0.433612 0.495508 0.845103 0.181914
H69   H     H_    0.351740 0.314059 0.798804 0.197287
H70   H     H_    0.441082 0.334567 0.767785 0.068295
H71   H     H_    0.425181 0.224128 0.835313 0.155998
H72   H     H_    0.602263 0.285358 0.135378 0.132651
H73   H     H_    0.600097 0.441460 0.162439 0.129430
H74   H     H_    0.729262 0.278323 0.192499 0.175657
H75   H     H_    0.711030 0.424444 0.228752 0.169656
H76   H     H_    0.656202 0.297810 0.252857 0.105175
H77   H     H_    0.929633 0.810510 0.886195 0.110478
H78   H     H_    0.019249 0.525204 0.440089 0.118598
H79   H     H_    0.930799 0.962045 0.849674 0.133421
H80   H     H_    0.808386 0.793733 0.809608 0.192300
H81   H     H_    0.843427 0.921407 0.762895 0.156026
H82   H     H_    0.893337 0.782692 0.766189 0.098964
H83   H     H_    0.107111 0.782584 0.136923 0.136391
H84   H     H_    0.103896 0.938570 0.163825 0.129123
H85   H     H_    0.233645 0.776198 0.193311 0.173303
H86   H     H_    0.217144 0.924538 0.227552 0.170933
H87   H     H_    0.161879 0.800101 0.254661 0.104782
H88   H     H_    0.016731 0.032300 0.438373 0.130011
O1    O     O_R   0.214300 0.709080 0.827500 -0.538184
O2    O     O_R   0.543340 0.717710 0.330180 -0.516063
O3    O     O_R   0.956660 0.217710 0.669820 -0.526297
O4    O     O_R   0.043340 0.217710 0.330180 -0.515971
O5    O     O_R   0.320590 0.625770 0.672930 -0.509855
O6    O     O_R   0.679410 0.625770 0.327070 -0.517243
O7    O     O_R   0.820590 0.125770 0.672930 -0.520179
O8    O     O_R   0.179410 0.125770 0.327070 -0.516800
O9    O     O_3   0.334270 0.834280 0.749190 -0.258357
O10   O     O_3   0.665730 0.834280 0.250810 -0.274655
O11   O     O_3   0.834270 0.334280 0.749190 -0.258205
O12   O     O_R   0.785700 0.709080 0.172500 -0.529553
O13   O     O_3   0.165730 0.334280 0.250810 -0.274649
O14   O     O_R   0.236190 0.958390 0.823150 -0.516894
O15   O     O_R   0.763810 0.958390 0.176850 -0.516730
O16   O     O_R   0.736190 0.458390 0.823150 -0.518098
O17   O     O_R   0.263810 0.458390 0.176850 -0.517524
O18   O     O_R   0.332090 0.075280 0.831290 -0.546909
O19   O     O_R   0.667910 0.075280 0.168710 -0.550266
O20   O     O_R   0.832090 0.575280 0.831290 -0.543539
O21   O     O_R   0.167910 0.575280 0.168710 -0.550603
O22   O     O_R   0.446280 0.918040 0.826620 -0.507266
O23   O     O_R   0.714300 0.209080 0.827500 -0.538021
O24   O     O_R   0.553720 0.918040 0.173380 -0.499888
O25   O     O_R   0.946280 0.418040 0.826620 -0.505306
O26   O     O_R   0.053720 0.418040 0.173380 -0.500498
O27   O     O_R   0.457080 0.716270 0.831760 -0.555710
O28   O     O_R   0.542920 0.716270 0.168240 -0.533267
O29   O     O_R   0.957080 0.216270 0.831760 -0.544639
O30   O     O_R   0.042920 0.216270 0.168240 -0.531545
O31   O     O_R   0.320980 0.624440 0.823040 -0.478973
O32   O     O_R   0.679020 0.624440 0.176960 -0.515697
O33   O     O_R   0.820980 0.124440 0.823040 -0.482640
O34   O     O_R   0.285700 0.209080 0.172500 -0.528688
O35   O     O_R   0.179020 0.124440 0.176960 -0.515896
O36   O     O_R   0.213880 0.710510 0.665560 -0.516355
O37   O     O_R   0.786120 0.710510 0.334440 -0.514409
O38   O     O_R   0.713880 0.210510 0.665560 -0.514809
O39   O     O_R   0.286120 0.210510 0.334440 -0.514542
O40   O     O_R   0.235800 0.959720 0.673040 -0.504571
O41   O     O_R   0.764200 0.959720 0.326960 -0.507158
O42   O     O_R   0.735800 0.459720 0.673040 -0.503564
O43   O     O_R   0.264200 0.459720 0.326960 -0.507198
O44   O     O_R   0.331670 0.076720 0.669350 -0.529898
O45   O     O_R   0.445900 0.919370 0.676500 -0.507033
O46   O     O_R   0.668330 0.076720 0.330650 -0.534306
O47   O     O_R   0.831670 0.576720 0.669350 -0.533918
O48   O     O_R   0.168330 0.576720 0.330650 -0.534150
O49   O     O_3   0.363864 0.420233 0.918003 -0.543222
O50   O     O_3   0.675881 0.392358 0.084910 -0.547603
O51   O     O_3   0.844833 0.916222 0.916248 -0.544650
O52   O     O_3   0.179317 0.891271 0.085659 -0.547057
O53   O     O_R   0.554100 0.919370 0.323500 -0.500027
O54   O     O_R   0.945900 0.419370 0.676500 -0.506528
O55   O     O_R   0.054100 0.419370 0.323500 -0.499949
O56   O     O_R   0.456660 0.717710 0.669820 -0.526882

loop_
_geom_bond_atom_site_label_1
_geom_bond_atom_site_label_2
_ccdc_geom_bond_type
C87   C91   A    
C35   C53   S    
C3    O48   A    
C10   O7    A    
C17   C85   S    
C14   C21   S    
C126  O44   A    
C84   C86   S    
C55   C59   S    
C117  O31   A    
C119  O12   A    
C27   H69   S    
C37   C42   A    
C31   H81   S    
C89   C106  A    
Cr5   O12   S    
C8    O36   A    
C16   H39   S    
C102  H11   S    
C8    O5    A    
C119  O32   A    
C58   H64   S    
C59   O52   S    
C73   C75   A    
Cr8   O22   S    
C26   H66   S    
C18   H12   S    
C52   O20   A    
C32   H84   S    
C7    O4    A    
C39   C61   A    
C40   C58   S    
C70   O28   A    
C99   C116  S    
C63   C118  S    
C110  H24   S    
Cr4   O30   S    
Cr3   O7    S    
C9    O37   A    
C17   C21   S    
C19   C23   S    
C111  H20   S    
C16   C20   S    
Cr7   O43   S    
C90   C126  S    
C60   C117  S    
Cr8   O44   S    
Cr4   O8    S    
C2    C52   S    
Cr4   O35   S    
C95   C122  A    
Cr12  O5    S    
C42   C64   A    
C82   H5    S    
C7    O55   A    
C25   C107  S    
C31   H80   S    
C89   C127  S    
C84   H7    S    
C68   C77   A    
Cr1   O9    S    
C128  O42   A    
C33   H87   S    
Cr2   O32   S    
Cr5   O37   S    
C10   C124  S    
C53   H57   S    
Cr7   O13   S    
C51   H55   S    
C4    C66   S    
C9    C123  S    
C58   O51   S    
C120  O33   A    
C107  H43   S    
C43   C47   A    
C44   C48   A    
C34   C118  A    
C65   C79   A    
C101  H10   S    
Cr8   O45   S    
C100  C104  A    
C98   C124  A    
C34   C51   S    
C4    O45   A    
C29   H75   S    
Cr1   O14   S    
C55   H61   S    
C12   C22   S    
C45   C62   A    
C3    O43   A    
C22   C85   S    
C20   H34   S    
C111  H25   S    
Cr10  O25   S    
C110  C114  S    
C12   H36   S    
C57   O50   S    
C20   C96   S    
C126  O40   A    
Cr12  O56   S    
C92   C97   A    
C24   C50   A    
C63   O17   A    
C116  H30   S    
C53   H59   S    
Cr11  O26   S    
C65   C73   A    
C45   H47   S    
C108  H17   S    
C21   C69   S    
C128  O47   A    
C121  O34   A    
C24   C37   A    
Cr8   O18   S    
Cr10  O11   S    
Cr12  O27   S    
C19   H23   S    
Cr6   O16   S    
Cr1   O40   S    
C38   C60   A    
C105  H15   S    
C67   C81   A    
C16   C23   S    
C106  H16   S    
C70   O24   A    
C112  C116  S    
Cr9   O24   S    
C33   H85   S    
Cr3   O3    S    
C28   H73   S    
C85   H41   S    
C10   O38   A    
C116  H35   S    
C56   O49   S    
C18   C22   S    
C62   C120  S    
C72   O26   A    
C86   H8    S    
C42   C59   S    
C44   C61   A    
Cr6   O42   S    
Cr10  O47   S    
C90   C108  A    
C115  H33   S    
C88   C105  A    
C8    C122  S    
C98   C115  S    
C117  O1    A    
Cr12  O9    S    
C4    O56   A    
C74   C85   S    
C89   C93   A    
Cr11  O13   S    
C36   C54   S    
C1    O14   A    
C7    C67   S    
C37   C55   S    
C55   H54   S    
C38   C56   S    
Cr7   O34   S    
C127  O41   A    
C5    O2    A    
C97   C114  S    
C22   C70   S    
Cr3   O33   S    
C19   C107  S    
C2    C35   A    
C68   C80   A    
Cr6   O11   S    
Cr7   O17   S    
C76   C84   S    
C13   C41   S    
C6    O54   A    
C15   C19   S    
C112  H21   S    
C26   C27   S    
C41   O15   A    
C28   C29   S    
C11   C125  S    
C109  H22   S    
C30   C31   S    
Cr9   O19   S    
C20   C25   S    
Cr2   O2    S    
C64   C121  S    
Cr9   O46   S    
C17   H1    S    
C71   O25   A    
C47   C118  A    
C12   C17   S    
C50   H52   S    
C48   H50   S    
C59   H65   S    
Cr9   O53   S    
Cr8   O9    S    
Cr6   O23   S    
C102  C124  A    
C90   C94   A    
C66   C78   A    
C23   C71   S    
C99   C125  A    
C33   H86   S    
C53   C57   S    
C80   C81   A    
C2    C48   A    
Cr2   O6    S    
C27   H70   S    
C35   C39   A    
C51   H58   S    
C83   H6    S    
C45   C49   A    
C112  H26   S    
C57   H63   S    
C78   H45   S    
C69   O22   A    
C93   C111  S    
C63   O21   A    
C96   C107  S    
C71   O29   A    
C73   C82   S    
C32   H83   S    
C86   H2    S    
C11   O8    A    
C9    O6    A    
C96   H42   S    
C113  H27   S    
C114  H28   S    
C100  H9    S    
C28   H72   S    
C32   C33   S    
C75   C83   S    
C29   H74   S    
C66   C75   A    
C15   C25   S    
C87   C104  A    
Cr4   O13   S    
C97   C123  A    
C82   C83   S    
C11   O39   A    
C104  H14   S    
C26   O49   S    
C121  O35   A    
C44   H46   S    
C30   H79   S    
C39   C57   S    
Cr6   O38   S    
C72   O30   A    
Cr12  O31   S    
C61   C119  S    
C14   C18   S    
C120  O23   A    
C115  H29   S    
C92   C110  S    
C40   C62   A    
C113  H31   S    
C114  H32   S    
C30   O51   S    
C101  C123  A    
C5    O53   A    
C1    O18   A    
C52   O16   A    
C83   H4    S    
C56   H62   S    
C15   C16   S    
C31   H82   S    
Cr1   O1    S    
C43   H44   S    
C54   H60   S    
C23   C96   S    
C51   C56   S    
C94   C112  S    
Cr9   O10   S    
Cr3   O29   S    
C103  H13   S    
C88   C92   A    
Cr3   O11   S    
C103  C108  A    
C32   O52   S    
C109  C113  S    
C6    C68   S    
C18   C74   S    
C54   H53   S    
C6    O3    A    
C41   O19   A    
Cr7   O39   S    
Cr10  O54   S    
C103  C125  A    
C109  H18   S    
Cr4   O4    S    
C101  C105  A    
C3    C87   S    
C36   C40   A    
C76   C77   A    
C13   C36   A    
C5    C65   S    
C78   C79   A    
C29   H76   S    
C91   C95   A    
C21   C74   S    
C79   H56   S    
C46   C64   A    
C47   H49   S    
Cr5   O41   S    
C27   H71   S    
C25   C72   S    
C43   C60   A    
C1    C24   S    
C30   H77   S    
C13   C49   A    
C12   C14   S    
C77   C86   S    
Cr11  O21   S    
Cr11  O48   S    
Cr5   O10   S    
C127  O46   A    
C84   H88   S    
C69   O27   A    
C54   C58   S    
Cr2   O10   S    
C34   C38   A    
C26   H68   S    
Cr1   O36   S    
C82   H3    S    
C28   O50   S    
C49   H51   S    
C46   C50   A    
Cr11  O55   S    
C91   C109  S    
C88   C128  S    
Cr5   O15   S    
C94   C99   A    
C95   C113  S    
C81   H78   S    
C102  C106  A    
C100  C122  A    
C14   H37   S    
Cr10  O20   S    
C80   H67   S    
C74   H40   S    
C15   H38   S    
C111  C115  S    
C67   C76   A    
C46   H48   S    
C93   C98   A    
C110  H19   S    
Cr2   O28   S    
