data_mof_unit_12277.cif
_audit_creation_date              2013-03-05T16:13:33-0500
_audit_creation_method            fapswitch 2.2
_symmetry_space_group_name_H-M    P1
_symmetry_Int_Tables_number       1
_space_group_crystal_system       triclinic
_cell_length_a                    10.770607
_cell_length_b                    10.004946
_cell_length_c                    10.768883
_cell_angle_alpha                 87.559731
_cell_angle_beta                  96.381594
_cell_angle_gamma                 86.334527
_cell_volume                      1149.45298084

loop_
_atom_site_label
_atom_site_type_symbol
_atom_site_description
_atom_site_fract_x
_atom_site_fract_y
_atom_site_fract_z
_atom_type_partial_charge
O1    O     O_R   0.316770 0.614620 0.499990 -0.522536
O2    O     O_R   0.683230 0.614620 0.500010 -0.547645
O3    O     O_R   0.316800 0.385290 0.500000 -0.681270
O4    O     O_R   0.683200 0.385290 0.500000 -0.656682
C1    C     C_R   0.259613 0.503343 0.500931 0.893996
C2    C     C_R   0.738633 0.496617 0.494440 0.898629
O5    O     O_R   0.500000 0.614690 0.316780 -0.561373
O6    O     O_R   0.500000 0.614690 0.683220 -0.540555
O7    O     O_R   0.500020 0.385360 0.316780 -0.615936
O8    O     O_R   0.499980 0.385360 0.683220 -0.608848
C3    C     C_R   0.496965 0.502753 0.259906 0.939322
C4    C     C_R   0.497316 0.497999 0.738471 0.862240
Zn1   Zn    Zn3+2 0.500000 0.653120 0.500000 1.144990
Zn2   Zn    Zn3+2 0.500000 0.346880 0.500000 0.983743
C5    C     C_R   0.436786 0.608981 0.047595 -0.204660
C6    C     C_R   0.431458 0.601289 0.920814 -0.158079
C7    C     C_R   0.499606 0.506402 0.127468 -0.001157
C8    C     C_R   0.494201 0.495635 0.869038 -0.049713
C9    C     C_R   0.568745 0.402700 0.075906 -0.162549
C10   C     C_R   0.566694 0.397801 0.946859 -0.190733
H1    H     H_    0.622739 0.324460 0.135136 0.171958
H2    H     H_    0.620441 0.317824 0.908144 0.175958
C11   C     C_3   0.304595 0.680125 0.893262 0.552974
C12   C     C_3   0.317837 0.702227 0.035640 0.609005
C13   C     C_R   0.074129 0.388873 0.539353 -0.233990
C14   C     C_R   0.946578 0.382041 0.530870 -0.232973
H3    H     H_    0.132808 0.302383 0.579804 0.196471
H4    H     H_    0.909395 0.292716 0.567318 0.167465
C15   C     C_R   0.869028 0.491987 0.480407 -0.166980
C16   C     C_R   0.125192 0.506756 0.499751 -0.166972
C17   C     C_R   0.918060 0.605900 0.429628 0.265817
C18   C     C_R   0.046221 0.617052 0.447445 0.252113
C19   C     C_R   0.567433 0.062479 0.594267 0.367394
C20   C     C_R   0.431009 0.082297 0.406686 0.363374
C21   C     C_R   0.574458 0.919224 0.589031 0.307516
C22   C     C_R   0.422165 0.940343 0.413634 0.185553
N1    N     N_R   0.500000 0.857200 0.500000 -0.203296
N2    N     N_R   0.500000 0.142810 0.500000 -0.197066
N3    N     N_R   0.301823 0.807332 0.820020 0.234696
O9    O     O_R   0.203578 0.891018 0.815137 -0.306112
O10   O     O_R   0.387646 0.832370 0.748775 -0.382666
N4    N     N_R   0.212436 0.651293 0.094164 0.258117
O11   O     O_R   0.100809 0.709146 0.064409 -0.240187
O12   O     O_R   0.226982 0.547675 0.172579 -0.493023
O13   O     O_3   0.196538 0.611052 0.850496 -0.573940
C23   C     C_3   0.209983 0.469561 0.863126 0.084401
H5    H     H_    0.267825 0.432422 0.950612 0.146243
H6    H     H_    0.251740 0.429655 0.781374 0.141628
C24   C     C_3   0.081253 0.416067 0.866358 -0.726552
H7    H     H_    0.016816 0.457223 0.784150 0.272608
H8    H     H_    0.088907 0.304924 0.865274 0.197080
H9    H     H_    0.041721 0.445950 0.952827 0.282250
O14   O     O_3   0.333042 0.839902 0.063401 -0.571583
C25   C     C_3   0.456343 0.883060 0.060193 0.149301
H10   H     H_    0.512111 0.828831 0.995367 0.193989
H11   H     H_    0.507697 0.871281 0.155765 0.190653
C26   C     C_3   0.450210 0.029530 0.014461 -0.690599
H12   H     H_    0.397231 0.092126 0.074610 0.280492
H13   H     H_    0.546352 0.064175 0.016780 0.217564
H14   H     H_    0.403732 0.042512 0.917037 0.282113
N5    N     N_R   0.837715 0.710126 0.359784 0.247812
O15   O     O_R   0.764881 0.681461 0.261248 -0.394761
O16   O     O_R   0.833190 0.832112 0.397331 -0.319229
N6    N     N_R   0.093332 0.740291 0.410884 0.261771
O17   O     O_R   0.130873 0.819681 0.497965 -0.289608
O18   O     O_R   0.058441 0.790255 0.298013 -0.218267
O19   O     O_3   0.617498 0.119157 0.702057 -0.576102
C27   C     C_3   0.744361 0.144309 0.695909 0.108855
H15   H     H_    0.750606 0.254260 0.691173 0.166468
H16   H     H_    0.786052 0.101119 0.614647 0.152231
C28   C     C_3   0.823686 0.092049 0.816289 -0.684906
H17   H     H_    0.831532 0.981037 0.822903 0.319136
H18   H     H_    0.919481 0.127328 0.817377 0.205956
H19   H     H_    0.781771 0.129576 0.898927 0.236575
O20   O     O_3   0.391047 0.152255 0.292984 -0.615798
C29   C     C_3   0.273259 0.224861 0.291708 0.257014
H20   H     H_    0.288002 0.331542 0.299047 0.209462
H21   H     H_    0.217674 0.192595 0.367638 0.160171
C30   C     C_3   0.196217 0.221228 0.163948 -0.757943
H22   H     H_    0.180185 0.118380 0.135221 0.313582
H23   H     H_    0.103995 0.277214 0.165398 0.227952
H24   H     H_    0.246238 0.269988 0.092094 0.224442
N7    N     N_R   0.657193 0.839963 0.680826 0.248798
O21   O     O_R   0.767403 0.798777 0.653698 -0.360525
O22   O     O_R   0.637518 0.839944 0.797768 -0.357123
N8    N     N_R   0.321499 0.889662 0.335548 0.270246
O23   O     O_R   0.218346 0.963351 0.306695 -0.324491
O24   O     O_R   0.321342 0.765832 0.308700 -0.293690

loop_
_geom_bond_atom_site_label_1
_geom_bond_atom_site_label_2
_geom_bond_distance
_ccdc_geom_bond_type
O6    Zn1   1.994055 S    
C11   O13   1.433528 S    
C12   N4    1.466729 S    
C17   N5    1.440520 S    
C9    C10   1.390413 A    
C29   C30   1.528758 S    
O7    Zn2   1.994157 S    
C30   H24   1.105037 S    
N3    O10   1.294887 A    
O14   C25   1.426029 S    
O5    C3    1.299638 A    
C23   C24   1.521202 S    
O1    C1    1.306376 A    
C22   N1    1.389752 A    
C9    H1    1.083793 S    
C29   H21   1.114591 S    
N8    O24   1.284193 A    
C26   H13   1.110822 S    
C5    C6    1.365766 A    
N5    O16   1.301612 A    
O2    Zn1   1.986409 S    
C19   C21   1.434262 A    
C25   H10   1.107388 S    
N7    O21   1.299602 A    
C27   H15   1.105750 S    
C24   H8    1.110418 S    
C11   C12   1.550604 S    
Zn1   N1    2.041809 S    
C20   O20   1.394906 S    
O2    C2    1.295161 A    
N4    O12   1.299091 A    
C23   H6    1.109833 S    
C25   H11   1.110794 S    
O19   C27   1.413294 S    
C29   H20   1.093951 S    
C18   N6    1.419798 S    
O4    C2    1.299204 A    
O8    Zn2   2.026329 S    
N3    O9    1.301574 A    
C30   H23   1.110708 S    
C21   N7    1.430804 S    
N8    O23   1.293633 A    
C26   H14   1.109734 S    
C22   N8    1.429587 S    
C12   O14   1.437547 S    
O13   C23   1.412952 S    
N6    O18   1.300471 A    
O20   C29   1.419431 S    
Zn2   N2    2.041710 S    
C17   C18   1.384675 A    
O6    C4    1.291071 A    
C24   H9    1.110551 S    
O7    C3    1.298069 A    
O3    Zn2   1.985987 S    
O8    C4    1.296771 A    
C27   H16   1.117547 S    
C5    C12   1.525963 S    
N7    O22   1.300058 A    
C10   H2    1.082604 S    
C6    C11   1.526216 S    
O1    Zn1   2.034754 S    
N4    O11   1.301071 A    
C19   O19   1.384096 S    
C28   H18   1.110624 S    
C1    C16   1.444642 S    
C13   C16   1.402721 A    
C5    C7    1.399139 A    
C23   H5    1.106304 S    
C3    C7    1.428614 S    
C21   N1    1.375065 A    
C20   N2    1.368150 A    
O3    C1    1.297645 A    
C28   H19   1.110330 S    
C13   H3    1.083865 S    
C14   H4    1.078876 S    
C19   N2    1.376939 A    
N6    O17   1.301540 A    
C13   C14   1.372952 A    
C28   H17   1.107131 S    
C15   C17   1.401755 A    
C16   C18   1.406769 A    
C26   H12   1.099272 S    
C27   C28   1.524087 S    
C11   N3    1.465330 S    
C7    C9    1.407667 A    
C20   C22   1.428840 A    
C8    C10   1.398932 A    
O4    Zn2   2.034220 S    
N5    O15   1.301251 A    
C30   H22   1.105574 S    
O5    Zn1   2.026193 S    
C2    C15   1.427192 S    
C14   C15   1.390575 A    
C6    C8    1.388367 A    
C24   H7    1.109409 S    
C4    C8    1.409411 S    
C25   C26   1.520951 S    
