data_mof_unit_15629.cif
_audit_creation_date              2012-12-10T20:51:44-0500
_audit_creation_method            fapswitch 2.2
_symmetry_space_group_name_H-M    P1
_symmetry_Int_Tables_number       1
_space_group_crystal_system       triclinic
_cell_length_a                    8.1063
_cell_length_b                    8.915001
_cell_length_c                    16.828923
_cell_angle_alpha                 89.476557
_cell_angle_beta                  94.586214
_cell_angle_gamma                 89.952803
_cell_volume                      1212.24098049

loop_
_atom_site_label
_atom_site_type_symbol
_atom_type_description
_atom_site_fract_x
_atom_site_fract_y
_atom_site_fract_z
_atom_type_partial_charge
C1    C     C_R   0.500052 0.218018 0.500200 1.006357
C2    C     C_R   0.500067 0.781964 0.500541 0.903593
C3    C     C_R   0.521072 0.500163 0.653625 0.928194
C4    C     C_R   0.478304 0.504553 0.346559 0.945606
C5    C     C_R   0.528480 0.511617 0.739921 -0.177059
C6    C     C_R   0.460595 0.528603 0.260990 -0.148580
C7    C     C_R   0.419373 0.613769 0.772236 0.152034
C8    C     C_R   0.513560 0.666772 0.229564 0.128094
C9    C     C_R   0.381209 0.595077 0.851328 0.179784
C10   C     C_R   0.483572 0.695817 0.147330 0.178671
C11   C     C_R   0.480970 0.496953 0.902106 0.192324
C12   C     C_R   0.406402 0.585080 0.098370 0.209549
C13   C     C_R   0.602320 0.405236 0.871230 -0.154202
C14   C     C_R   0.337868 0.454285 0.131287 -0.136734
C15   C     C_R   0.623268 0.409319 0.789041 -0.179089
C16   C     C_R   0.368429 0.424495 0.213122 -0.173493
C17   C     C_1   0.500128 0.065215 0.500457 -0.144599
C18   C     C_1   0.500038 0.934760 0.500584 -0.182438
N1    N     N_1   0.073640 0.500030 0.499990 -0.023618
N2    N     N_1   0.926360 0.499970 0.500010 -0.022838
N3    N     N_2   0.461316 0.483415 0.984499 -0.132240
N4    N     N_2   0.415927 0.600790 0.015565 -0.162029
O1    O     O_R   0.636850 0.285340 0.500000 -0.591589
O2    O     O_R   0.363150 0.714660 0.500000 -0.621481
O3    O     O_R   0.363100 0.285350 0.500000 -0.619372
O4    O     O_R   0.636900 0.714650 0.500000 -0.616950
O5    O     O_R   0.652140 0.498630 0.616140 -0.610818
O6    O     O_R   0.347860 0.501370 0.383860 -0.621882
O7    O     O_R   0.378390 0.498650 0.616130 -0.611150
O8    O     O_R   0.621610 0.501350 0.383870 -0.603832
Zn1   Zn    Zn3+2 0.682780 0.499990 0.500010 1.029142
Zn2   Zn    Zn3+2 0.317220 0.500010 0.499990 1.011335
C19   C     C_3   0.597953 0.782108 0.285109 -0.805165
H1    H     H_    0.514690 0.811904 0.331733 0.213200
H2    H     H_    0.715225 0.735298 0.313613 0.255968
H3    H     H_    0.630254 0.888360 0.255813 0.259506
C20   C     C_3   0.344826 0.743791 0.722450 -0.804550
H4    H     H_    0.424183 0.776390 0.674383 0.224391
H5    H     H_    0.220003 0.713247 0.695520 0.249492
H6    H     H_    0.335488 0.845264 0.759645 0.246877
C21   C     C_3   0.538519 0.842256 0.111044 -0.789248
H7    H     H_    0.504978 0.852336 0.046051 0.249478
H8    H     H_    0.477741 0.937945 0.138851 0.270110
H9    H     H_    0.675083 0.853212 0.120658 0.248927
C22   C     C_3   0.227802 0.670769 0.878753 -0.777687
H10   H     H_    0.161703 0.593991 0.917495 0.288892
H11   H     H_    0.262354 0.775725 0.910941 0.237767
H12   H     H_    0.135789 0.698669 0.828461 0.239922
C23   C     C_2   0.699392 0.298096 0.925194 1.008655
O9    O     O_2   0.760163 0.339702 0.990123 -0.553331
O10   O     O_R   0.719262 0.149235 0.902172 -0.793800
H13   H     H_    0.786991 0.087707 0.943984 0.349236
C24   C     C_2   0.237792 0.348389 0.079332 1.015498
O11   O     O_2   0.127619 0.396529 0.032071 -0.582938
O12   O     O_R   0.271645 0.194535 0.083431 -0.796165
H14   H     H_    0.195922 0.134717 0.044748 0.349995
C25   C     C_2   0.745302 0.308646 0.755065 1.007519
O13   O     O_2   0.701013 0.223337 0.701008 -0.630128
O14   O     O_R   0.910658 0.310679 0.785893 -0.779660
H15   H     H_    0.981917 0.237086 0.758286 0.347791
C26   C     C_2   0.304140 0.285331 0.249411 0.991135
O15   O     O_2   0.157949 0.252040 0.237609 -0.589191
O16   O     O_R   0.411170 0.193656 0.297719 -0.818473
H16   H     H_    0.353386 0.102596 0.318932 0.335290

loop_
_geom_bond_atom_site_label_1
_geom_bond_atom_site_label_2
_ccdc_geom_bond_type
C20   H5    S    
O12   H14   S    
O2    Zn2   S    
C9    C22   S    
C20   H4    S    
C2    C18   S    
C21   H8    S    
C21   H7    S    
C24   O12   S    
C1    C17   S    
N1    N2    T    
C13   C15   A    
C14   C24   S    
O3    Zn2   S    
C3    O5    A    
C19   H1    S    
C7    C20   S    
O14   H15   S    
C2    O4    A    
N3    N4    D    
C10   C21   S    
C1    O3    A    
C15   C25   S    
C3    O7    A    
C25   O13   D    
C26   O15   D    
C10   C12   A    
C13   C23   S    
N1    Zn2   S    
C8    C10   A    
C19   H2    S    
C12   C14   A    
C17   C18   T    
C20   H6    S    
C7    C9    A    
C8    C19   S    
C9    C11   A    
O5    Zn1   S    
C2    O2    A    
O8    Zn1   S    
C25   O14   S    
C21   H9    S    
C14   C16   A    
C5    C15   A    
C11   C13   A    
O7    Zn2   S    
C16   C26   S    
C6    C16   A    
O10   H13   S    
C12   N4    S    
O6    Zn2   S    
C19   H3    S    
C4    C6    S    
C23   O9    D    
C22   H11   S    
C5    C7    A    
C23   O10   S    
C6    C8    A    
C1    O1    A    
C22   H12   S    
C4    O6    A    
C22   H10   S    
O4    Zn1   S    
C11   N3    S    
C26   O16   S    
C4    O8    A    
O16   H16   S    
C24   O11   D    
C3    C5    S    
N2    Zn1   S    
O1    Zn1   S    
