data_mof_unit_41001.cif
_audit_creation_date              2012-12-11T14:46:08-0500
_audit_creation_method            fapswitch 2.2
_symmetry_space_group_name_H-M    P1
_symmetry_Int_Tables_number       1
_space_group_crystal_system       triclinic
_cell_length_a                    11.185699
_cell_length_b                    11.035245
_cell_length_c                    18.718509
_cell_angle_alpha                 90.134926
_cell_angle_beta                  90.276817
_cell_angle_gamma                 120.565627
_cell_volume                      1989.44298941

loop_
_atom_site_label
_atom_site_type_symbol
_atom_type_description
_atom_site_fract_x
_atom_site_fract_y
_atom_site_fract_z
_atom_type_partial_charge
C1    C     C_R   0.908847 0.609128 0.611034 0.525197
C2    C     C_R   0.953640 0.163598 0.710627 -0.026009
C3    C     C_R   0.955267 0.184466 0.785987 0.005525
C4    C     C_R   0.270041 0.632857 0.603298 0.558635
C5    C     C_R   0.713613 0.108023 0.704957 -0.012893
C6    C     C_R   0.720863 0.144223 0.777292 -0.063771
C7    C     C_R   0.586306 0.053571 0.667157 0.245474
C8    C     C_R   0.478113 0.065440 0.696291 0.316947
C9    C     C_R   0.486965 0.111235 0.767025 0.301316
C10   C     C_R   0.613170 0.161401 0.804437 -0.095935
C11   C     C_R   0.838084 0.146010 0.669913 0.008169
C12   C     C_R   0.431527 0.618528 0.770270 0.286374
C13   C     C_R   0.759826 0.607521 0.705098 0.252522
C14   C     C_R   0.762580 0.669985 0.769849 0.247657
C15   C     C_R   0.820800 0.641475 0.828932 0.076096
C16   C     C_R   0.861382 0.223992 0.601775 0.561738
C17   C     C_R   0.918947 0.599488 0.815009 0.188083
C18   C     C_R   0.953709 0.591132 0.743034 -0.148344
C19   C     C_R   0.882181 0.614395 0.687270 -0.032927
C20   C     C_R   0.413757 0.644201 0.296471 0.206477
C21   C     C_R   0.438600 0.654873 0.224221 -0.100923
C22   C     C_R   0.364765 0.693516 0.178028 -0.015445
C23   C     C_R   0.418532 0.625067 0.696883 0.310465
C24   C     C_R   0.270768 0.728852 0.203933 -0.096895
C25   C     C_R   0.248321 0.724149 0.277330 0.242134
C26   C     C_R   0.314374 0.672723 0.323115 0.098110
C27   C     C_R   0.716627 0.088653 0.297641 0.276101
C28   C     C_R   0.866038 0.638129 0.397551 0.633593
C29   C     C_R   0.700840 0.085563 0.224427 0.248039
C30   C     C_R   0.819707 0.133146 0.179919 -0.026870
C31   C     C_R   0.952170 0.197273 0.210023 -0.219057
C32   C     C_R   0.967110 0.222494 0.282833 -0.154225
C33   C     C_R   0.848630 0.171271 0.326247 0.080676
C34   C     C_R   0.337664 0.679599 0.671658 0.000067
C35   C     C_R   0.848317 0.789056 0.306347 0.211561
C36   C     C_R   0.832067 0.811658 0.235110 -0.170611
C37   C     C_R   0.788905 0.702674 0.185316 -0.059859
C38   C     C_R   0.757454 0.567953 0.206622 0.264848
C39   C     C_R   0.763756 0.541922 0.278851 0.243845
C40   C     C_R   0.266263 0.632619 0.395559 0.628553
C41   C     C_R   0.820007 0.655663 0.327902 0.073686
C42   C     C_R   0.804266 0.102192 0.894382 0.631760
C43   C     C_R   0.448146 0.719916 0.889143 0.627217
C44   C     C_R   0.799607 0.686355 0.899607 0.633463
C45   C     C_R   0.834509 0.161105 0.820288 0.070811
C46   C     C_R   0.800945 0.098247 0.104570 0.550886
C47   C     C_R   0.398144 0.704614 0.103733 0.567568
C48   C     C_R   0.776618 0.732500 0.111588 0.546332
C49   C     C_R   0.862859 0.229501 0.396677 0.626984
C50   C     C_R   0.293623 0.748346 0.718124 -0.185974
C51   C     C_R   0.331965 0.765718 0.789213 -0.165713
C52   C     C_R   0.402393 0.701482 0.815548 0.029285
C53   C     C_3   0.364892 0.091704 0.872047 -0.126230
C54   C     C_3   0.200814 0.901463 0.289968 -0.058642
C55   C     C_3   0.839742 0.460801 0.135578 -0.040840
C56   C     C_R   0.079081 0.230327 0.824901 0.222310
C57   C     C_3   0.581260 0.330801 0.309560 -0.014527
C58   C     C_3   0.561416 0.655653 0.602429 -0.004704
C59   C     C_3   0.967013 0.988277 0.594495 -0.018239
C60   C     C_R   0.188606 0.229346 0.792894 -0.071883
C61   C     C_R   0.187237 0.202363 0.720650 -0.008513
C62   C     C_R   0.069716 0.163694 0.679164 0.287795
Cl1   Cl    Cl    0.334685 0.030144 0.641723 -0.510962
Cl2   Cl    Cl    0.472927 0.497885 0.805360 -0.537605
Cl3   Cl    Cl    0.113857 0.315077 0.909189 -0.517005
Cl4   Cl    Cl    0.559786 0.965762 0.583851 -0.547490
Cl5   Cl    Cl    0.622755 0.431629 0.692808 -0.492962
Cl6   Cl    Cl    0.750690 0.822831 0.769355 -0.718355
Cl7   Cl    Cl    0.005256 0.568582 0.884883 -0.574956
Cl8   Cl    Cl    0.511186 0.599048 0.352696 -0.627174
Cl9   Cl    Cl    0.571564 0.991603 0.353833 -0.524691
Cl10  Cl    Cl    0.533230 0.039277 0.193409 -0.593047
Cl11  Cl    Cl    0.900154 0.927400 0.368308 -0.605122
Cr1   Cr    Cr6+3 0.791660 0.390250 0.499930 1.143416
Cr2   Cr    Cr6+3 0.098520 0.708290 0.500540 1.130879
Cr3   Cr    Cr6+3 0.109770 0.401430 0.499480 1.122826
Cr4   Cr    Cr6+3 0.874790 0.925890 0.000070 1.080115
Cr5   Cr    Cr6+3 0.574120 0.948670 0.999300 1.059272
Cr6   Cr    Cr6+3 0.551420 0.625320 0.000920 1.120921
H1    H     H_    0.222786 0.781488 0.700571 0.202011
H2    H     H_    0.279671 0.214141 0.696596 0.267114
H3    H     H_    0.628445 0.217656 0.854087 0.170046
H4    H     H_    0.255409 0.045675 0.889060 0.162363
H5    H     H_    0.425995 0.197097 0.897601 0.150566
H6    H     H_    0.400805 0.020770 0.891892 0.137400
H7    H     H_    0.314092 0.971012 0.300089 0.187916
H8    H     H_    0.173681 0.914879 0.234541 0.127134
H9    H     H_    0.148191 0.937690 0.326739 0.194130
H10   H     H_    0.888357 0.436113 0.180955 0.134199
H11   H     H_    0.916538 0.563019 0.111176 0.132884
H12   H     H_    0.030049 0.561965 0.730999 0.130932
H13   H     H_    0.810265 0.378175 0.094203 0.179398
H14   H     H_    0.552265 0.368489 0.357816 0.173711
H15   H     H_    0.547531 0.219273 0.318727 0.196488
H16   H     H_    0.523197 0.334205 0.261820 0.161248
H17   H     H_    0.641385 0.754662 0.628755 0.146281
H18   H     H_    0.509488 0.679902 0.558923 0.177674
H19   H     H_    0.616056 0.607664 0.576170 0.188872
H20   H     H_    0.868034 0.983238 0.581213 0.135234
H21   H     H_    0.951347 0.915857 0.639457 0.158111
H22   H     H_    0.995832 0.951639 0.545958 0.213452
H23   H     H_    0.515605 0.632293 0.203873 0.150838
H24   H     H_    0.215773 0.759917 0.167452 0.137273
H25   H     H_    0.297122 0.819191 0.824218 0.191075
H26   H     H_    0.043305 0.233315 0.177016 0.156082
H27   H     H_    0.070991 0.285426 0.304720 0.165553
H28   H     H_    0.854578 0.914452 0.218250 0.152770
H29   H     H_    0.277143 0.254349 0.825141 0.236917
O1    O     O_R   0.766500 0.250040 0.579790 -0.446915
O2    O     O_R   0.413330 0.603360 0.920440 -0.402319
O3    O     O_R   0.676110 0.626250 0.926750 -0.462420
O4    O     O_R   0.798570 0.516780 0.574780 -0.456333
O5    O     O_R   0.895350 0.809870 0.080950 -0.515039
O6    O     O_R   0.872490 0.049760 0.073800 -0.510664
O7    O     O_R   0.691680 0.088070 0.079070 -0.450444
O8    O     O_R   0.451720 0.825250 0.074050 -0.449836
O9    O     O_R   0.413580 0.606370 0.080960 -0.516501
O10   O     O_R   0.676340 0.629040 0.075550 -0.458825
O11   O     O_3   0.666780 0.833290 0.000090 -0.330600
O12   O     O_R   0.218690 0.701900 0.425960 -0.435698
O13   O     O_R   0.984000 0.732950 0.581090 -0.534254
O14   O     O_R   0.218600 0.700890 0.574760 -0.472945
O15   O     O_R   0.249390 0.515350 0.579940 -0.466197
O16   O     O_R   0.982790 0.280900 0.573700 -0.464305
O17   O     O_R   0.766600 0.251130 0.419260 -0.437660
O18   O     O_R   0.798660 0.517790 0.425980 -0.479867
O19   O     O_R   0.984100 0.734040 0.420570 -0.459855
O20   O     O_3   0.370140 0.104747 0.796677 -0.566965
O21   O     O_3   0.153834 0.758325 0.303913 -0.570953
O22   O     O_3   0.719045 0.460553 0.157324 -0.515473
O23   O     O_R   0.249490 0.516440 0.419420 -0.487745
O24   O     O_3   0.726454 0.407195 0.299687 -0.554130
O25   O     O_3   0.465110 0.558093 0.651838 -0.477598
O26   O     O_3   0.074173 0.127296 0.608696 -0.520045
O27   O     O_R   0.982880 0.281910 0.424890 -0.503895
O28   O     O_3   0.999980 0.499990 0.499980 -0.349444
O29   O     O_R   0.895110 0.806860 0.920430 -0.478899
O30   O     O_R   0.872260 0.046970 0.925000 -0.435248
O31   O     O_R   0.691430 0.085060 0.918550 -0.555052
O32   O     O_R   0.451490 0.822460 0.925250 -0.526876

loop_
_geom_bond_atom_site_label_1
_geom_bond_atom_site_label_2
_ccdc_geom_bond_type
C17   Cl7   S    
C44   O29   A    
C6    C45   A    
C27   C29   A    
Cr2   O14   S    
C59   H20   S    
C57   O24   S    
Cr5   O7    S    
C58   H19   S    
C25   O21   S    
Cr5   O31   S    
Cr1   O1    S    
Cr3   O28   S    
C7    C8    A    
C39   C41   A    
C54   H8    S    
C27   C33   A    
C12   C23   A    
C55   H13   S    
C46   O7    A    
C53   H5    S    
C5    C6    A    
C18   H12   S    
C38   O22   S    
C36   C37   A    
Cr4   O29   S    
C15   C44   S    
C5    C11   A    
C55   H11   S    
C50   H1    S    
C1    O4    A    
Cr1   O4    S    
C30   C31   A    
C12   Cl2   S    
Cr3   O23   S    
C43   C52   S    
Cr1   O17   S    
C42   O30   A    
C39   O24   S    
C33   C49   S    
C56   Cl3   S    
Cr6   O10   S    
C28   C41   S    
C18   C19   A    
C3    C56   A    
C58   H17   S    
C35   C36   A    
C8    C9    A    
Cr6   O11   S    
C43   O2    A    
C29   C30   A    
C9    C10   A    
C60   H29   S    
C28   O19   A    
C29   Cl10  S    
C55   O22   S    
C22   C47   S    
C49   O27   A    
C57   H14   S    
C21   C22   A    
C36   H28   S    
C59   H21   S    
C31   H26   S    
C20   Cl8   S    
C58   H18   S    
Cr4   O5    S    
C2    C11   A    
C12   C52   A    
Cr3   O27   S    
C28   O18   A    
C16   O1    A    
C50   C51   A    
C58   O25   S    
C47   O8    A    
C4    C34   S    
C34   C50   A    
C9    O20   S    
C1    C19   S    
C23   O25   S    
C51   C52   A    
Cr3   O16   S    
C38   C39   A    
Cr4   O30   S    
C5    C7    A    
C13   C19   A    
Cr2   O28   S    
C48   O10   A    
C25   C26   A    
C3    C45   A    
C56   C60   A    
C4    O15   A    
Cr1   O28   S    
C60   C61   A    
C42   C45   S    
C59   H22   S    
C37   C38   A    
C53   O20   S    
C11   C16   S    
C31   C32   A    
C23   C34   A    
C17   C18   A    
C4    O14   A    
C43   O32   A    
C24   C25   A    
C37   C48   S    
C21   H23   S    
C40   O12   A    
C40   O23   A    
C57   H15   S    
C22   C24   A    
Cr4   O6    S    
C27   Cl9   S    
C54   H7    S    
C13   Cl5   S    
C15   C17   A    
C54   O21   S    
C35   Cl11  S    
Cr6   O2    S    
C42   O31   A    
Cr2   O13   S    
Cr3   O15   S    
C30   C46   S    
Cr5   O8    S    
Cr2   O12   S    
C46   O6    A    
Cr4   O11   S    
Cr5   O32   S    
C6    C10   A    
C53   H6    S    
C49   O17   A    
C59   O26   S    
Cr6   O3    S    
C53   H4    S    
C24   H24   S    
C32   C33   A    
C62   O26   S    
C2    C3    A    
C51   H25   S    
C55   H10   S    
C61   H2    S    
C7    Cl4   S    
C54   H9    S    
C26   C40   S    
Cr1   O18   S    
C20   C26   A    
Cr6   O9    S    
C10   H3    S    
Cr5   O11   S    
Cr2   O19   S    
C16   O16   A    
C61   C62   A    
C35   C41   A    
C1    O13   A    
C8    Cl1   S    
C44   O3    A    
C47   O9    A    
C20   C21   A    
C57   H16   S    
C14   Cl6   S    
C14   C15   A    
C32   H27   S    
C13   C14   A    
C2    C62   A    
C48   O5    A    
