data_mof_unit_46726.cif
_audit_creation_date              2012-12-10T18:04:32-0500
_audit_creation_method            fapswitch 2.2
_symmetry_space_group_name_H-M    P1
_symmetry_Int_Tables_number       1
_space_group_crystal_system       triclinic
_cell_length_a                    19.425854
_cell_length_b                    17.546868
_cell_length_c                    12.558542
_cell_angle_alpha                 91.02681
_cell_angle_beta                  98.647133
_cell_angle_gamma                 89.852965
_cell_volume                      4231.40233488

loop_
_atom_site_label
_atom_site_type_symbol
_atom_type_description
_atom_site_fract_x
_atom_site_fract_y
_atom_site_fract_z
_atom_type_partial_charge
C1    C     C_R   0.419953 0.110055 0.451106 0.856928
C2    C     C_R   0.409097 0.898895 0.441639 0.860734
C3    C     C_R   0.919953 0.610055 0.451106 0.856928
C4    C     C_R   0.909097 0.398896 0.441639 0.860734
C5    C     C_R   0.713371 0.252110 0.518083 0.067542
C6    C     C_R   0.755324 0.790705 0.556110 0.073089
C7    C     C_R   0.213371 0.752110 0.518082 0.067541
C8    C     C_R   0.255324 0.290705 0.556110 0.073089
C9    C     C_R   0.693424 0.312545 0.584243 0.121025
C10   C     C_R   0.770730 0.768148 0.665664 0.119897
C11   C     C_R   0.193423 0.812546 0.584240 0.121025
C12   C     C_R   0.270729 0.268148 0.665665 0.119897
C13   C     C_R   0.221932 0.884998 0.575921 -0.262147
C14   C     C_R   0.333936 0.231295 0.699522 -0.273024
C15   C     C_R   0.721934 0.384997 0.575924 -0.262148
C16   C     C_R   0.833936 0.731295 0.699521 -0.273022
C17   C     C_R   0.273449 0.895430 0.512095 -0.202976
C18   C     C_R   0.375959 0.208654 0.624601 -0.197903
C19   C     C_R   0.773449 0.395430 0.512097 -0.202975
C20   C     C_R   0.875959 0.708654 0.624600 -0.197904
C21   C     C_R   0.686192 0.179903 0.527325 -0.269916
C22   C     C_R   0.692757 0.827414 0.521909 -0.282457
C23   C     C_R   0.186193 0.679903 0.527325 -0.269916
C24   C     C_R   0.192756 0.327413 0.521908 -0.282456
C25   C     C_R   0.611658 0.227383 0.650708 -0.260361
C26   C     C_R   0.663115 0.826969 0.701600 -0.249646
C27   C     C_R   0.111656 0.727384 0.650706 -0.260361
C28   C     C_R   0.163115 0.326970 0.701600 -0.249647
C29   C     C_R   0.357561 0.839871 0.403489 -0.174122
C30   C     C_R   0.389421 0.186812 0.433086 -0.194549
C31   C     C_R   0.857560 0.339871 0.403488 -0.174122
C32   C     C_R   0.889421 0.686812 0.433085 -0.194549
C33   C     C_R   0.643534 0.998090 0.132114 -0.337637
C34   C     C_R   0.143534 0.498090 0.132114 -0.337637
C35   C     C_R   0.378394 0.002033 0.762892 0.030898
C36   C     C_R   0.878394 0.502033 0.762892 0.030898
C37   C     C_R   0.352341 0.002722 0.859651 -0.272950
C38   C     C_R   0.852341 0.502723 0.859651 -0.272951
C39   C     C_R   0.590753 0.898814 0.556584 0.870079
C40   C     C_R   0.589415 0.102343 0.556960 0.843160
C41   C     C_R   0.090753 0.398813 0.556584 0.870079
C42   C     C_R   0.089415 0.602343 0.556960 0.843161
C43   C     C_R   0.398485 0.001415 0.955482 -0.210033
C44   C     C_R   0.898485 0.501416 0.955482 -0.210033
C45   C     C_R   0.471284 0.999881 0.954213 0.002422
C46   C     C_R   0.971284 0.499882 0.954213 0.002422
C47   C     C_R   0.495031 0.999693 0.853510 0.226325
C48   C     C_R   0.995031 0.499693 0.853510 0.226325
C49   C     C_R   0.521246 0.999190 0.048154 -0.021963
C50   C     C_R   0.021246 0.499191 0.048154 -0.021963
C51   C     C_R   0.593560 0.998572 0.039853 0.193110
C52   C     C_R   0.093560 0.498572 0.039853 0.193110
C53   C     C_R   0.615257 0.999188 0.939676 -0.305251
C54   C     C_R   0.115257 0.499188 0.939676 -0.305252
C55   C     C_R   0.566499 0.999877 0.847747 -0.217441
C56   C     C_R   0.066499 0.499877 0.847747 -0.217441
C57   C     C_R   0.502506 0.999705 0.150963 0.005017
C58   C     C_R   0.002505 0.499705 0.150963 0.005018
C59   C     C_R   0.621382 0.998896 0.231539 0.005040
C60   C     C_R   0.121382 0.498895 0.231539 0.005040
C61   C     C_R   0.643608 0.298985 0.653768 0.007631
C62   C     C_R   0.723160 0.785220 0.738304 0.005065
C63   C     C_R   0.143605 0.798987 0.653764 0.007630
C64   C     C_R   0.223160 0.285220 0.738304 0.005065
C65   C     C_R   0.632180 0.169040 0.585236 -0.067217
C66   C     C_R   0.648533 0.848487 0.594048 -0.077043
C67   C     C_R   0.132179 0.669040 0.585236 -0.067216
C68   C     C_R   0.148533 0.348486 0.594048 -0.077043
C69   C     C_R   0.370465 0.784240 0.325062 -0.005912
C70   C     C_R   0.388577 0.224130 0.333522 0.007547
C71   C     C_R   0.870464 0.284241 0.325060 -0.005912
C72   C     C_R   0.888578 0.724130 0.333521 0.007547
C73   C     C_R   0.325713 0.722170 0.303676 -0.190010
C74   C     C_R   0.341135 0.283226 0.307540 -0.200585
C75   C     C_R   0.825711 0.222172 0.303674 -0.190010
C76   C     C_R   0.841135 0.783225 0.307539 -0.200586
C77   C     C_R   0.273015 0.711046 0.364990 -0.233393
C78   C     C_R   0.295638 0.304888 0.378095 -0.237597
C79   C     C_R   0.773014 0.211047 0.364988 -0.233393
C80   C     C_R   0.795638 0.804887 0.378094 -0.237596
C81   C     C_R   0.260999 0.764745 0.445666 0.101009
C82   C     C_R   0.301401 0.273083 0.482012 0.101074
C83   C     C_R   0.760999 0.264746 0.445666 0.101008
C84   C     C_R   0.801401 0.773083 0.482011 0.101073
C85   C     C_R   0.297589 0.833965 0.453727 0.085163
C86   C     C_R   0.355901 0.221936 0.513597 0.079610
C87   C     C_R   0.797589 0.333965 0.453728 0.085163
C88   C     C_R   0.855901 0.721936 0.513597 0.079609
H1    H     H_    0.569564 0.217920 0.696696 0.156468
H2    H     H_    0.627312 0.841991 0.757016 0.171030
H3    H     H_    0.069561 0.717922 0.696691 0.156467
H4    H     H_    0.127313 0.341992 0.757016 0.171030
H5    H     H_    0.670136 0.999703 0.932266 0.150545
H6    H     H_    0.170136 0.499704 0.932266 0.150545
H7    H     H_    0.698778 0.997366 0.127301 0.139215
H8    H     H_    0.198777 0.497366 0.127301 0.139215
H9    H     H_    0.449464 0.000004 0.166112 0.125028
H10   H     H_    0.949464 0.500005 0.166112 0.125028
H11   H     H_    0.375556 0.002090 0.028413 0.136046
H12   H     H_    0.875556 0.502091 0.028414 0.136045
H13   H     H_    0.296754 0.004397 0.860342 0.142281
H14   H     H_    0.796754 0.504398 0.860342 0.142283
H15   H     H_    0.205401 0.933923 0.619264 0.157905
H16   H     H_    0.350930 0.218721 0.783439 0.161500
H17   H     H_    0.705403 0.433921 0.619269 0.157904
H18   H     H_    0.850930 0.718721 0.783439 0.161501
H19   H     H_    0.704102 0.130960 0.485937 0.148175
H20   H     H_    0.677196 0.839883 0.438128 0.157382
H21   H     H_    0.204103 0.630960 0.485939 0.148175
H22   H     H_    0.177195 0.339881 0.438127 0.157381
H23   H     H_    0.741169 0.160997 0.345255 0.133168
H24   H     H_    0.760167 0.850665 0.352283 0.132640
H25   H     H_    0.241171 0.660995 0.345258 0.133169
H26   H     H_    0.260167 0.350666 0.352285 0.132641
H27   H     H_    0.333699 0.680059 0.242502 0.144957
H28   H     H_    0.339694 0.313245 0.232608 0.148251
H29   H     H_    0.833697 0.180061 0.242499 0.144957
H30   H     H_    0.839694 0.813244 0.232607 0.148251
H31   H     H_    0.293493 0.952547 0.507482 0.160302
H32   H     H_    0.425195 0.182259 0.655077 0.176588
H33   H     H_    0.793493 0.452547 0.507485 0.160303
H34   H     H_    0.925195 0.682259 0.655077 0.176588
H35   H     H_    0.658852 0.998649 0.304569 0.125411
H36   H     H_    0.158852 0.498649 0.304569 0.125411
N1    N     N_R   0.552340 0.000000 0.237260 -0.093205
N2    N     N_R   0.052340 0.500000 0.237260 -0.093205
N3    N     N_R   0.448170 0.000000 0.762060 -0.132417
N4    N     N_R   0.948170 0.500000 0.762060 -0.132417
O1    O     O_R   0.448200 0.076800 0.373930 -0.603001
O2    O     O_R   0.448200 0.923200 0.373930 -0.596723
O3    O     O_R   0.948200 0.576800 0.373930 -0.603001
O4    O     O_R   0.948200 0.423200 0.373930 -0.596723
O5    O     O_R   0.414750 0.076790 0.542400 -0.627398
O6    O     O_R   0.414750 0.923210 0.542400 -0.603439
O7    O     O_R   0.914750 0.576790 0.542400 -0.627398
O8    O     O_R   0.914750 0.423210 0.542400 -0.603439
O9    O     O_R   0.585240 0.923200 0.457600 -0.616278
O10   O     O_R   0.585240 0.076800 0.457600 -0.618275
O11   O     O_R   0.085240 0.423200 0.457600 -0.616277
O12   O     O_R   0.085240 0.576800 0.457600 -0.618276
O13   O     O_R   0.551780 0.923190 0.626070 -0.632474
O14   O     O_R   0.551780 0.076810 0.626070 -0.646804
O15   O     O_R   0.051780 0.423190 0.626070 -0.632474
O16   O     O_R   0.051780 0.576810 0.626070 -0.646804
Zn1   Zn    Zn3+2 0.522330 1.000000 0.387520 0.943323
Zn2   Zn    Zn3+2 0.022330 0.500000 0.387520 0.943322
Zn3   Zn    Zn3+2 0.477660 0.000000 0.612480 0.912017
Zn4   Zn    Zn3+2 0.977660 0.500000 0.612480 0.912017
H37   H     H_    0.343014 0.003533 0.687864 0.138430
H38   H     H_    0.843014 0.503534 0.687864 0.138429
H39   H     H_    0.586419 0.001157 0.773274 0.219325
H40   H     H_    0.086419 0.501157 0.773274 0.219325
C89   C     C_R   0.622742 0.358039 0.728390 0.114059
C90   C     C_R   0.671944 0.388391 0.811718 -0.173137
C91   C     C_R   0.651775 0.442490 0.884063 -0.149952
C92   C     C_R   0.582510 0.466609 0.873808 -0.098004
C93   C     C_R   0.533151 0.436219 0.791616 -0.129823
C94   C     C_R   0.553020 0.381839 0.719344 -0.161585
H41   H     H_    0.725687 0.369748 0.820960 0.136449
H42   H     H_    0.689764 0.465339 0.948472 0.118235
H43   H     H_    0.567032 0.508550 0.929863 0.127001
H44   H     H_    0.479442 0.454624 0.784099 0.131479
H45   H     H_    0.514239 0.358482 0.656240 0.131472
C95   C     C_R   0.731801 0.758371 0.851000 0.108597
C96   C     C_R   0.735822 0.680010 0.872583 -0.150191
C97   C     C_R   0.735503 0.654555 0.977436 -0.143097
C98   C     C_R   0.730266 0.706869 0.061095 -0.139398
C99   C     C_R   0.727027 0.784867 0.040606 -0.157892
C100  C     C_R   0.727804 0.810591 0.936137 -0.149873
H46   H     H_    0.737431 0.638666 0.807916 0.130969
H47   H     H_    0.738503 0.594234 0.993726 0.119396
H48   H     H_    0.729406 0.687014 0.142001 0.135505
H49   H     H_    0.723094 0.825397 0.105425 0.126825
H50   H     H_    0.724086 0.871116 0.921129 0.122921
C101  C     C_R   0.122736 0.858042 0.728381 0.114057
C102  C     C_R   0.171936 0.888396 0.811711 -0.173138
C103  C     C_R   0.151765 0.942499 0.884051 -0.149947
C104  C     C_R   0.082499 0.966618 0.873788 -0.098003
C105  C     C_R   0.033142 0.936226 0.791594 -0.129824
C106  C     C_R   0.053015 0.881844 0.719327 -0.161582
H51   H     H_    0.225679 0.869753 0.820959 0.136447
H52   H     H_    0.189752 0.965349 0.948462 0.118235
H53   H     H_    0.067019 0.008561 0.929838 0.127000
H54   H     H_    0.979433 0.954631 0.784070 0.131479
H55   H     H_    0.014235 0.858485 0.656221 0.131472
C107  C     C_R   0.231802 0.258372 0.851001 0.108599
C108  C     C_R   0.235822 0.180011 0.872586 -0.150192
C109  C     C_R   0.235504 0.154557 0.977438 -0.143099
C110  C     C_R   0.230267 0.206872 0.061096 -0.139398
C111  C     C_R   0.227027 0.284869 0.040607 -0.157891
C112  C     C_R   0.227804 0.310592 0.936138 -0.149874
H56   H     H_    0.237432 0.138667 0.807919 0.130970
H57   H     H_    0.238504 0.094237 0.993730 0.119396
H58   H     H_    0.229406 0.187017 0.142003 0.135505
H59   H     H_    0.223094 0.325400 0.105424 0.126825
H60   H     H_    0.224085 0.371117 0.921128 0.122921
C113  C     C_R   0.430177 0.787935 0.264678 0.141641
C114  C     C_R   0.497879 0.771031 0.315237 -0.097557
C115  C     C_R   0.553972 0.775015 0.257490 -0.128595
C116  C     C_R   0.542759 0.795353 0.149141 -0.110371
C117  C     C_R   0.475409 0.811286 0.098097 -0.141770
C118  C     C_R   0.419216 0.807660 0.155558 -0.166906
H61   H     H_    0.507128 0.755379 0.399223 0.107903
H62   H     H_    0.606104 0.762162 0.296556 0.120897
H63   H     H_    0.586182 0.798707 0.104663 0.140174
H64   H     H_    0.466811 0.826933 0.014162 0.144284
H65   H     H_    0.367314 0.820686 0.115382 0.127625
C119  C     C_R   0.442065 0.210078 0.262400 0.136859
C120  C     C_R   0.422785 0.195835 0.151495 -0.180819
C121  C     C_R   0.473638 0.186468 0.084501 -0.137731
C122  C     C_R   0.544163 0.190958 0.127687 -0.112971
C123  C     C_R   0.563913 0.205190 0.237851 -0.119690
C124  C     C_R   0.513193 0.215281 0.304899 -0.080906
H66   H     H_    0.368599 0.191808 0.117002 0.150059
H67   H     H_    0.458357 0.175340 0.999160 0.143104
H68   H     H_    0.583473 0.183177 0.075838 0.138342
H69   H     H_    0.618494 0.208885 0.271226 0.133832
H70   H     H_    0.529270 0.227658 0.389791 0.114434
C125  C     C_R   0.930175 0.287936 0.264676 0.141641
C126  C     C_R   0.997878 0.271033 0.315234 -0.097556
C127  C     C_R   0.053970 0.275017 0.257486 -0.128594
C128  C     C_R   0.042757 0.295354 0.149137 -0.110371
C129  C     C_R   0.975407 0.311287 0.098094 -0.141772
C130  C     C_R   0.919214 0.307661 0.155556 -0.166907
H71   H     H_    0.007127 0.255380 0.399219 0.107903
H72   H     H_    0.106102 0.262163 0.296551 0.120896
H73   H     H_    0.086179 0.298708 0.104658 0.140175
H74   H     H_    0.966808 0.326935 0.014158 0.144284
H75   H     H_    0.867312 0.320687 0.115380 0.127625
C131  C     C_R   0.942066 0.710078 0.262400 0.136859
C132  C     C_R   0.922785 0.695835 0.151495 -0.180819
C133  C     C_R   0.973639 0.686468 0.084501 -0.137730
C134  C     C_R   0.044164 0.690958 0.127687 -0.112972
C135  C     C_R   0.063913 0.705189 0.237851 -0.119689
C136  C     C_R   0.013193 0.715280 0.304899 -0.080906
H76   H     H_    0.868599 0.691809 0.117001 0.150059
H77   H     H_    0.958357 0.675341 0.999160 0.143104
H78   H     H_    0.083474 0.683176 0.075839 0.138342
H79   H     H_    0.118494 0.708884 0.271227 0.133832
H80   H     H_    0.029270 0.727657 0.389791 0.114434

loop_
_geom_bond_atom_site_label_1
_geom_bond_atom_site_label_2
_ccdc_geom_bond_type
C83   C87   A    
C39   O9    A    
O11   Zn2   S    
C119  C124  A    
C40   O14   A    
C44   H12   S    
C117  C118  A    
C14   C18   A    
C53   C55   A    
C129  C130  A    
C75   H29   S    
C72   C76   A    
O8    Zn4   S    
C22   H20   S    
C104  C105  A    
N2    Zn2   S    
C42   C67   S    
C71   C125  S    
C4    O4    A    
C78   H26   S    
C1    C30   S    
C15   C19   A    
O6    Zn3   S    
C96   C97   A    
C72   C131  S    
C2    C29   S    
C9    C61   A    
C128  H73   S    
O9    Zn1   S    
C95   C96   A    
C28   C68   A    
C34   H8    S    
C41   O15   A    
C1    O1    A    
C57   N1    A    
C12   C64   A    
C1    O5    A    
C123  H69   S    
O10   Zn1   S    
C70   C119  S    
C121  H67   S    
C6    C22   A    
C116  H63   S    
C89   C94   A    
C49   C57   A    
O3    Zn2   S    
C35   N3    A    
C136  H80   S    
C23   C67   A    
C107  C112  A    
C60   H36   S    
C112  H60   S    
C22   C66   A    
C2    O2    A    
C125  C130  A    
C74   C78   A    
C110  H58   S    
C93   C94   A    
C62   C95   S    
C122  C123  A    
C44   C46   A    
C119  C120  A    
C49   C51   A    
C40   O10   A    
C70   C74   A    
C3    C32   S    
C50   C52   A    
C100  H50   S    
C27   H3    S    
C114  C115  A    
O5    Zn3   S    
C5    C83   A    
C45   C49   A    
C8    C12   A    
C30   C86   A    
C134  C135  A    
O1    Zn1   S    
C104  H53   S    
O16   Zn4   S    
C4    O8    A    
C34   C60   A    
C21   C65   A    
C31   C71   A    
C122  H68   S    
C19   H33   S    
C74   H28   S    
C97   H47   S    
C98   C99   A    
C96   H46   S    
O2    Zn1   S    
C69   C113  S    
C99   H49   S    
C114  H61   S    
C95   C100  A    
C10   C62   A    
C24   H22   S    
C77   H25   S    
C33   H7    S    
C132  H76   S    
C126  C127  A    
C30   C70   A    
C52   C54   A    
C38   C44   A    
C41   C68   S    
C29   C69   A    
C45   C47   A    
C59   H35   S    
C102  H51   S    
C23   H21   S    
C46   C48   A    
C71   C75   A    
C6    C84   A    
C53   H5    S    
C80   C84   A    
C26   C66   A    
C39   O13   A    
C113  C118  A    
C31   C87   A    
C32   C72   A    
C106  H55   S    
O12   Zn2   S    
C125  C126  A    
C10   C16   A    
C17   H31   S    
C129  H74   S    
C116  C117  A    
C25   C61   A    
C25   H1    S    
C93   H44   S    
C17   C85   A    
C82   C86   A    
C24   C68   A    
C42   O12   A    
C127  H72   S    
C76   H30   S    
C133  H77   S    
C109  C110  A    
C51   C53   A    
C50   C58   A    
C37   C43   A    
C7    C11   A    
C134  H78   S    
C111  C112  A    
C5    C9    A    
C127  C128  A    
C54   H6    S    
C48   N4    A    
C78   C82   A    
C14   H16   S    
C101  C102  A    
C132  C133  A    
C77   C81   A    
C26   H2    S    
C16   C20   A    
C57   H9    S    
C80   H24   S    
C120  C121  A    
C90   C91   A    
C25   C65   A    
C131  C136  A    
C28   H4    S    
C18   C86   A    
C69   C73   A    
C43   C45   A    
C8    C82   A    
C108  H56   S    
C21   H19   S    
C60   N2    A    
C27   C63   A    
C111  H59   S    
C107  C108  A    
C94   H45   S    
C99   C100  A    
C7    C81   A    
C12   C14   A    
C92   H43   S    
C58   N2    A    
C118  H65   S    
C42   O16   A    
C97   C98   A    
C20   H34   S    
C39   C66   S    
C3    O3    A    
C56   H40   S    
C135  C136  A    
C18   H32   S    
C36   N4    A    
C90   H41   S    
C28   C64   A    
C47   C55   A    
C105  H54   S    
C110  C111  A    
C48   C56   A    
C92   C93   A    
C63   C101  S    
C35   C37   A    
C91   H42   S    
C29   C85   A    
O14   Zn3   S    
N4    Zn4   S    
C76   C80   A    
C43   H11   S    
C61   C89   S    
C109  H57   S    
C124  H70   S    
C2    O6    A    
C54   C56   A    
C55   H39   S    
C98   H48   S    
C79   H23   S    
C58   H10   S    
C33   C51   A    
C46   C50   A    
C34   C52   A    
C120  H66   S    
C73   H27   S    
C13   C17   A    
C40   C65   S    
O4    Zn2   S    
C15   H17   S    
C102  C103  A    
C9    C15   A    
C19   C87   A    
C131  C132  A    
C38   H14   S    
N1    Zn1   S    
C59   N1    A    
C37   H13   S    
C11   C13   A    
C36   H38   S    
C16   H18   S    
C115  H62   S    
C84   C88   A    
C47   N3    A    
O7    Zn4   S    
C7    C23   A    
C20   C88   A    
C36   C38   A    
C133  C134  A    
C8    C24   A    
C126  H71   S    
C117  H64   S    
C3    O7    A    
C135  H79   S    
C121  C122  A    
C26   C62   A    
C113  C114  A    
C81   C85   A    
O15   Zn4   S    
C41   O11   A    
C4    C31   S    
C27   C67   A    
C6    C10   A    
O13   Zn3   S    
C101  C106  A    
C105  C106  A    
C79   C83   A    
C115  C116  A    
C5    C21   A    
C123  C124  A    
C33   C59   A    
C103  C104  A    
C13   H15   S    
C91   C92   A    
C73   C77   A    
C108  C109  A    
C35   H37   S    
C89   C90   A    
C130  H75   S    
C11   C63   A    
C75   C79   A    
C128  C129  A    
C64   C107  S    
C103  H52   S    
N3    Zn3   S    
C32   C88   A    
