data_mof_unit_63941.cif
_audit_creation_date              2012-12-10T20:37:33-0500
_audit_creation_method            fapswitch 2.2
_symmetry_space_group_name_H-M    P1
_symmetry_Int_Tables_number       1
_space_group_crystal_system       triclinic
_cell_length_a                    15.68951
_cell_length_b                    10.731766
_cell_length_c                    9.894262
_cell_angle_alpha                 89.767695
_cell_angle_beta                  92.990895
_cell_angle_gamma                 93.103211
_cell_volume                      1661.24760673

loop_
_atom_site_label
_atom_site_type_symbol
_atom_type_description
_atom_site_fract_x
_atom_site_fract_y
_atom_site_fract_z
_atom_type_partial_charge
C1    C     C_R   0.497227 0.259983 0.499348 0.881005
C2    C     C_R   0.487053 0.127345 0.496035 -0.239496
C3    C     C_R   0.480179 0.061356 0.371662 0.473768
C4    C     C_R   0.337799 0.499880 0.496988 0.881333
C5    C     C_R   0.475357 0.931679 0.374598 -0.354720
C6    C     C_R   0.485315 0.869368 0.498373 -0.147170
C7    C     C_R   0.480917 0.934825 0.618406 0.039584
C8    C     C_3   0.526412 0.927689 0.755001 -0.538172
C9    C     C_3   0.526752 0.070126 0.755605 0.355352
C10   C     C_R   0.450181 0.414760 0.065931 0.010172
C11   C     C_R   0.559568 0.571083 0.078059 0.397672
C12   C     C_3   0.084786 0.532686 0.504697 -0.106246
C13   C     C_R   0.564922 0.559913 0.934091 0.390051
C14   C     C_R   0.449861 0.415523 0.925527 0.002963
C15   C     C_3   0.357318 0.380407 0.908062 0.252992
C16   C     C_R   0.497799 0.739499 0.499765 0.903709
C17   C     C_3   0.356969 0.377959 0.063714 0.240851
C18   C     C_R   0.662079 0.501481 0.503198 0.883204
C19   C     C_3   0.978487 0.481799 0.626332 0.366048
C20   C     C_3   0.025423 0.415213 0.518029 0.413942
C21   C     C_1   0.249262 0.510412 0.491870 -0.198267
C22   C     C_1   0.751165 0.511414 0.510537 -0.207418
C23   C     C_3   0.974756 0.648242 0.500143 0.445742
C24   C     C_3   0.037094 0.600894 0.612948 0.264544
C25   C     C_3   0.064439 0.237834 0.409672 0.092471
C26   C     C_3   0.118831 0.124786 0.430055 -0.349140
C27   C     C_3   0.129597 0.058523 0.296303 -0.957481
C28   C     C_3   0.663158 0.120769 0.662011 0.115797
C29   C     C_3   0.756111 0.143761 0.713929 -0.352272
C30   C     C_3   0.816330 0.152293 0.597520 -0.939121
C31   C     C_3   0.629034 0.764979 0.120510 0.143477
C32   C     C_3   0.721946 0.803428 0.091868 -0.312023
C33   C     C_3   0.737134 0.944637 0.084302 -1.027689
C34   C     C_3   0.917575 0.529336 0.513660 -0.024151
C35   C     C_3   0.694398 0.494299 0.876186 0.153443
C36   C     C_3   0.747809 0.479067 0.008328 -0.884273
C37   C     C_3   0.257631 0.227918 0.822313 0.081512
C38   C     C_3   0.233356 0.111382 0.904283 -0.342805
C39   C     C_3   0.138641 0.072873 0.883835 -0.999858
C40   C     C_3   0.226616 0.421424 0.141887 0.088408
C41   C     C_3   0.163541 0.523460 0.138317 -0.835142
C42   C     C_3   0.011106 0.380895 0.827904 0.163592
C43   C     C_3   0.977761 0.350121 0.966449 -0.905381
C44   C     C_3   0.949441 0.847832 0.579520 0.100339
C45   C     C_3   0.023596 0.582629 0.390685 -0.301878
C46   C     C_3   0.892791 0.812519 0.697478 -0.315746
C47   C     C_3   0.922183 0.885971 0.824538 -0.937936
C48   C     C_3   0.145891 0.740454 0.702871 0.064922
C49   C     C_3   0.223262 0.688850 0.779914 -0.344155
C50   C     C_3   0.306788 0.753581 0.738048 -0.886861
C51   C     C_3   0.565586 0.099903 0.194569 0.092403
C52   C     C_3   0.594848 0.209331 0.107621 -0.788872
C53   C     C_3   0.964261 0.462805 0.404383 -0.357646
C54   C     C_1   0.174717 0.521683 0.494810 -0.005589
C55   C     C_1   0.826627 0.520966 0.514562 0.050133
C56   C     C_R   0.481933 0.061571 0.616990 -0.025394
H1    H     H_    0.590376 0.888350 0.752292 0.220877
H2    H     H_    0.000459 0.206231 0.364662 0.151475
H3    H     H_    0.182921 0.155819 0.474686 0.215976
H4    H     H_    0.088079 0.058260 0.501391 0.212040
H5    H     H_    0.066387 0.024384 0.251008 0.274598
H6    H     H_    0.169741 0.977394 0.314356 0.269014
H7    H     H_    0.161366 0.123120 0.224188 0.253366
H8    H     H_    0.649196 0.193749 0.585793 0.137453
H9    H     H_    0.656018 0.027651 0.612687 0.128192
H10   H     H_    0.763208 0.232500 0.772072 0.238114
H11   H     H_    0.774035 0.066401 0.782835 0.226199
H12   H     H_    0.483471 0.104505 0.830899 0.152073
H13   H     H_    0.808867 0.066016 0.535551 0.250840
H14   H     H_    0.883533 0.164258 0.638439 0.288823
H15   H     H_    0.802245 0.233687 0.531999 0.266773
H16   H     H_    0.610886 0.818351 0.209419 0.140505
H17   H     H_    0.586060 0.791563 0.032828 0.097507
H18   H     H_    0.765528 0.766834 0.173074 0.245723
H19   H     H_    0.738064 0.763724 0.993785 0.252165
H20   H     H_    0.693610 0.983624 0.004753 0.289872
H21   H     H_    0.804028 0.968869 0.059057 0.271757
H22   H     H_    0.727295 0.986935 0.183855 0.262716
H23   H     H_    0.321414 0.455032 0.856509 0.111860
H24   H     H_    0.740795 0.512058 0.796585 0.191306
H25   H     H_    0.658586 0.404130 0.850064 0.165775
H26   H     H_    0.707139 0.452484 0.092935 0.269854
H27   H     H_    0.791709 0.402748 0.996067 0.222701
H28   H     H_    0.787015 0.565573 0.033533 0.266854
H29   H     H_    0.247837 0.205583 0.712900 0.167775
H30   H     H_    0.213772 0.303305 0.842709 0.108488
H31   H     H_    0.271758 0.033597 0.873231 0.224632
H32   H     H_    0.248377 0.129060 0.013582 0.211308
H33   H     H_    0.099697 0.144178 0.927507 0.266847
H34   H     H_    0.346600 0.283960 0.110650 0.110857
H35   H     H_    0.125213 0.983200 0.936952 0.273180
H36   H     H_    0.120179 0.061224 0.774513 0.263559
H37   H     H_    0.229712 0.378389 0.244138 0.160249
H38   H     H_    0.201334 0.348950 0.067895 0.108553
H39   H     H_    0.155514 0.561046 0.034325 0.250283
H40   H     H_    0.100750 0.483242 0.167957 0.209967
H41   H     H_    0.186224 0.600005 0.208613 0.268893
H42   H     H_    0.068152 0.446721 0.842028 0.165296
H43   H     H_    0.030155 0.292911 0.782453 0.180934
H44   H     H_    0.922445 0.281114 0.956036 0.257420
H45   H     H_    0.932584 0.407895 0.319199 0.167493
H46   H     H_    0.028631 0.309760 0.032413 0.201750
H47   H     H_    0.957521 0.436186 0.014788 0.272519
H48   H     H_    0.931543 0.940573 0.541102 0.154166
H49   H     H_    0.017637 0.861493 0.611302 0.140175
H50   H     H_    0.825366 0.831916 0.668586 0.209302
H51   H     H_    0.894923 0.711755 0.721936 0.249022
H52   H     H_    0.988398 0.863772 0.857278 0.288988
H53   H     H_    0.879893 0.859083 0.907183 0.264856
H54   H     H_    0.920060 0.987831 0.805832 0.261605
H55   H     H_    0.138445 0.835516 0.742289 0.152193
H56   H     H_    0.041792 0.630575 0.296271 0.187290
H57   H     H_    0.157269 0.752395 0.593169 0.138686
H58   H     H_    0.217750 0.703405 0.890015 0.225112
H59   H     H_    0.224390 0.587252 0.761217 0.223453
H60   H     H_    0.314180 0.742187 0.627929 0.260297
H61   H     H_    0.361409 0.712052 0.794364 0.270890
H62   H     H_    0.308144 0.854586 0.761419 0.243455
H63   H     H_    0.558136 0.015348 0.129901 0.143334
H64   H     H_    0.617261 0.087816 0.274855 0.115827
H65   H     H_    0.600395 0.295883 0.168915 0.259561
H66   H     H_    0.658402 0.193448 0.068671 0.220984
H67   H     H_    0.471578 0.881524 0.279516 0.174062
H68   H     H_    0.548833 0.219921 0.020296 0.260496
H69   H     H_    0.484812 0.884003 0.831540 0.170761
H70   H     H_    0.096681 0.303447 0.338610 0.138912
N1    N     N_R   0.499430 0.499140 0.142800 -0.147485
N2    N     N_R   0.499430 0.499180 0.857150 -0.185749
O1    O     O_R   0.500010 0.316790 0.614690 -0.586458
O2    O     O_3   0.609608 0.131962 0.771781 -0.643882
O3    O     O_3   0.622689 0.636887 0.155857 -0.600889
O4    O     O_3   0.640596 0.597157 0.876654 -0.613842
O5    O     O_3   0.345466 0.260741 0.849015 -0.651438
O6    O     O_3   0.308322 0.473088 0.112682 -0.595593
O7    O     O_3   0.945464 0.432371 0.746517 -0.608997
O8    O     O_3   0.937015 0.763046 0.471129 -0.643353
O9    O     O_3   0.071234 0.666154 0.729580 -0.650053
O10   O     O_3   0.485960 0.122571 0.248429 -0.596151
O11   O     O_R   0.500000 0.316760 0.385350 -0.576419
O12   O     O_R   0.376780 0.500010 0.614650 -0.621900
O13   O     O_R   0.376770 0.499970 0.385310 -0.569419
O14   O     O_R   0.500000 0.683240 0.614650 -0.602970
O15   O     O_R   0.499990 0.683210 0.385310 -0.610694
O16   O     O_R   0.623230 0.500030 0.614690 -0.611509
O17   O     O_R   0.623220 0.499990 0.385350 -0.570296
O18   O     O_3   0.054882 0.293854 0.536250 -0.670852
Zn1   Zn    Zn3+2 0.500010 0.500020 0.653130 0.980072
Zn2   Zn    Zn3+2 0.499990 0.499980 0.346870 1.015510

loop_
_geom_bond_atom_site_label_1
_geom_bond_atom_site_label_2
_ccdc_geom_bond_type
C44   O8    S    
C23   C45   S    
C50   H61   S    
C11   C13   A    
C16   O14   A    
C35   C36   S    
C40   H37   S    
C18   O17   A    
C30   H13   S    
C32   H19   S    
C30   H15   S    
C44   H48   S    
C45   H56   S    
C7    C8    S    
C44   H49   S    
C26   C27   S    
C29   C30   S    
C48   O9    S    
C5    C6    A    
C37   H29   S    
C28   C29   S    
C1    O1    A    
C42   H42   S    
C32   H18   S    
C21   C54   T    
C33   H22   S    
C31   H17   S    
C41   H40   S    
C36   H27   S    
C19   O7    S    
C35   H24   S    
C14   N2    A    
C1    C2    S    
C41   H41   S    
C31   O3    S    
C27   H5    S    
O13   Zn2   S    
C29   H11   S    
C13   N2    A    
C52   H66   S    
C15   H23   S    
C19   C20   S    
C36   H26   S    
C8    C9    S    
C51   H63   S    
C23   C24   S    
C25   O18   S    
C26   H3    S    
C50   H60   S    
C1    O11   A    
N1    Zn2   S    
C49   H58   S    
C45   C53   S    
C34   C55   S    
C18   C22   S    
C7    C56   A    
O16   Zn1   S    
O12   Zn1   S    
C39   H35   S    
C30   H14   S    
C44   C46   S    
C35   H25   S    
O15   Zn2   S    
O11   Zn2   S    
C51   C52   S    
C37   H30   S    
C16   O15   A    
C38   C39   S    
C43   H44   S    
C10   C14   A    
C53   H45   S    
C4    O13   A    
C3    O10   S    
C20   C53   S    
C25   C26   S    
C47   H53   S    
C40   O6    S    
C38   H32   S    
C42   O7    S    
C11   N1    A    
C25   H70   S    
C37   C38   S    
C27   H6    S    
C8    H1    S    
C4    O12   A    
C52   H65   S    
C33   H20   S    
C31   C32   S    
C23   C34   S    
C46   H51   S    
C12   C20   S    
C43   H46   S    
C51   H64   S    
C9    C56   S    
C6    C7    A    
C27   H7    S    
C28   H8    S    
C31   H16   S    
C49   H59   S    
C49   C50   S    
C20   O18   S    
C42   C43   S    
C28   H9    S    
C10   N1    A    
C39   H36   S    
O17   Zn2   S    
C15   C17   S    
C5    H67   S    
C46   C47   S    
C40   C41   S    
C50   H62   S    
O14   Zn1   S    
C17   H34   S    
C40   H38   S    
C12   C45   S    
C3    C5    A    
C19   C34   S    
C11   O3    S    
N2    Zn1   S    
C22   C55   T    
C15   O5    S    
C24   O9    S    
C47   H54   S    
C12   C24   S    
C38   H31   S    
C32   C33   S    
C18   O16   A    
C19   C24   S    
C9    H12   S    
C2    C56   A    
C42   H43   S    
C4    C21   S    
C52   H68   S    
C33   H21   S    
C41   H39   S    
C36   H28   S    
C48   C49   S    
C46   H50   S    
C13   O4    S    
C2    C3    A    
C28   O2    S    
C37   O5    S    
C43   H47   S    
O1    Zn1   S    
C6    C16   S    
C29   H10   S    
C51   O10   S    
C9    O2    S    
C8    H69   S    
C48   H55   S    
C34   C53   S    
C47   H52   S    
C25   H2    S    
C17   O6    S    
C23   O8    S    
C14   C15   S    
C10   C17   S    
C26   H4    S    
C35   O4    S    
C39   H33   S    
C12   C54   S    
C48   H57   S    
