data_mof_unit_32853.cif
_audit_creation_date              2013-03-05T16:04:28-0500
_audit_creation_method            fapswitch 2.2
_symmetry_space_group_name_H-M    P1
_symmetry_Int_Tables_number       1
_space_group_crystal_system       triclinic
_cell_length_a                    10.925102
_cell_length_b                    9.674694
_cell_length_c                    15.018018
_cell_angle_alpha                 89.360505
_cell_angle_beta                  95.670936
_cell_angle_gamma                 88.127766
_cell_volume                      1578.58243054

loop_
_atom_site_label
_atom_site_type_symbol
_atom_site_description
_atom_site_fract_x
_atom_site_fract_y
_atom_site_fract_z
_atom_type_partial_charge
O1    O     O_R   0.319640 0.618740 0.499990 -0.571105
O2    O     O_R   0.680360 0.381260 0.500010 -0.571114
O3    O     O_R   0.680360 0.618740 0.500010 -0.562930
O4    O     O_R   0.319640 0.381260 0.499990 -0.562927
C1    C     C_R   0.263143 0.502278 0.505967 0.833293
C2    C     C_R   0.736857 0.497721 0.494034 0.833363
O5    O     O_R   0.499970 0.618800 0.370260 -0.577749
O6    O     O_R   0.500030 0.381200 0.629740 -0.577790
O7    O     O_R   0.500030 0.618800 0.629740 -0.580215
O8    O     O_R   0.499970 0.381200 0.370260 -0.580236
C3    C     C_R   0.495849 0.500510 0.329269 0.798273
C4    C     C_R   0.504162 0.499496 0.670734 0.798284
Cu1   Cu    Cu3+1 0.500000 0.640660 0.500000 0.969193
Cu2   Cu    Cu3+1 0.500000 0.359340 0.500000 0.969175
C5    C     C_R   0.621742 0.490851 0.822424 0.125314
C6    C     C_R   0.378185 0.509324 0.177604 0.125604
C7    C     C_R   0.509398 0.499882 0.767518 -0.053120
C8    C     C_R   0.490552 0.500179 0.232486 -0.053056
C9    C     C_R   0.398242 0.516365 0.803376 -0.239600
C10   C     C_R   0.601706 0.483914 0.196606 -0.239680
C11   C     C_R   0.392595 0.515894 0.895674 0.076898
C12   C     C_R   0.607337 0.484536 0.104313 0.076988
C13   C     C_R   0.503014 0.502819 0.953208 -0.062885
C14   C     C_R   0.496896 0.497594 0.046791 -0.062989
C15   C     C_R   0.619330 0.500874 0.917183 0.069248
C16   C     C_R   0.380570 0.499526 0.082820 0.069136
C17   C     C_R   0.277805 0.523340 0.930869 0.170467
C18   C     C_R   0.722139 0.477297 0.069109 0.170486
C19   C     C_R   0.271936 0.494696 0.022344 0.178416
C20   C     C_R   0.727955 0.505915 0.977631 0.178073
H1    H     H_    0.315350 0.522591 0.757311 0.163614
H2    H     H_    0.684608 0.477752 0.242664 0.163613
C21   C     C_R   0.071232 0.383003 0.532156 0.129643
C22   C     C_R   0.928769 0.616995 0.467843 0.129637
C23   C     C_R   0.944209 0.373009 0.511943 0.120303
C24   C     C_R   0.055791 0.626989 0.488056 0.120316
C25   C     C_R   0.871003 0.493653 0.487813 -0.223858
C26   C     C_R   0.128997 0.506345 0.512187 -0.223855
C27   C     C_R   0.425082 0.077900 0.437289 0.274604
C28   C     C_R   0.574916 0.922097 0.562710 0.274721
C29   C     C_R   0.572169 0.070463 0.564128 0.253666
C30   C     C_R   0.427821 0.929531 0.435874 0.253644
N1    N     N_R   0.500000 0.852070 0.500000 -0.184653
N2    N     N_R   0.500000 0.147930 0.500000 -0.184638
C31   C     C_3   0.739369 0.456561 0.779658 -0.871069
H3    H     H_    0.792609 0.371493 0.817501 0.248719
H4    H     H_    0.722563 0.419030 0.710608 0.211868
H5    H     H_    0.794807 0.549462 0.774046 0.236448
C32   C     C_3   0.260588 0.543529 0.220449 -0.871573
H6    H     H_    0.207697 0.629140 0.182989 0.248721
H7    H     H_    0.204816 0.450871 0.225573 0.236692
H8    H     H_    0.277342 0.580109 0.289687 0.211734
C33   C     C_3   0.161216 0.563518 0.871566 -0.876248
H9    H     H_    0.177313 0.652937 0.827706 0.243482
H10   H     H_    0.129757 0.474655 0.830136 0.245402
H11   H     H_    0.087097 0.599820 0.911634 0.247980
C34   C     C_3   0.838821 0.437429 0.128395 -0.876328
H12   H     H_    0.822905 0.348166 0.172435 0.243402
H13   H     H_    0.912863 0.401011 0.088300 0.247973
H14   H     H_    0.870290 0.526504 0.169623 0.245502
C35   C     C_3   0.155874 0.431797 0.049173 -0.880325
H15   H     H_    0.103224 0.382966 0.991530 0.241898
H16   H     H_    0.178691 0.345167 0.097544 0.241602
H17   H     H_    0.095517 0.512172 0.075770 0.238864
C36   C     C_3   0.843912 0.569005 0.950747 -0.879772
H18   H     H_    0.896297 0.618373 0.008337 0.241972
H19   H     H_    0.904556 0.488592 0.924441 0.238588
H20   H     H_    0.820971 0.655260 0.902075 0.241637
I1    I     I_    0.168305 0.221641 0.613502 -0.290015
I2    I     I_    0.831697 0.778353 0.386494 -0.290083
I3    I     I_    0.876677 0.168191 0.496190 -0.280721
I4    I     I_    0.123323 0.831805 0.503812 -0.280742
C37   C     C_3   0.333734 0.153747 0.369480 -0.733944
H21   H     H_    0.328136 0.265524 0.372533 0.268517
H22   H     H_    0.354966 0.128842 0.300524 0.199098
H23   H     H_    0.239049 0.122810 0.379581 0.226971
C38   C     C_3   0.666261 0.846247 0.630522 -0.734058
H24   H     H_    0.671867 0.734471 0.627464 0.268484
H25   H     H_    0.760946 0.877193 0.620427 0.226980
H26   H     H_    0.645019 0.871141 0.699476 0.199091
C39   C     C_3   0.642359 0.141483 0.641773 -0.730816
H27   H     H_    0.675827 0.240561 0.621570 0.270121
H28   H     H_    0.582888 0.154575 0.697086 0.229463
H29   H     H_    0.728296 0.086366 0.669025 0.205958
C40   C     C_3   0.357619 0.858509 0.358226 -0.730552
H30   H     H_    0.324199 0.759373 0.378378 0.270188
H31   H     H_    0.271651 0.913604 0.331024 0.205925
H32   H     H_    0.417058 0.845511 0.302888 0.229391

loop_
_geom_bond_atom_site_label_1
_geom_bond_atom_site_label_2
_geom_bond_distance
_ccdc_geom_bond_type
C3    C8    1.448962 S    
C17   C19   1.406495 A    
C22   C25   1.410954 A    
C37   H21   1.082880 S    
O3    C2    1.313748 A    
C9    H1    1.083529 S    
C39   H27   1.087614 S    
C38   H24   1.082878 S    
O5    C3    1.305487 A    
O1    C1    1.308698 A    
C9    C11   1.393543 A    
C14   C16   1.429267 A    
C40   H30   1.087670 S    
C38   H26   1.110705 S    
C31   H4    1.102747 S    
C35   H16   1.108718 S    
O7    Cu1   1.957500 S    
C21   C23   1.397664 A    
C28   N1    1.383463 A    
C36   H19   1.106880 S    
C4    C7    1.449023 S    
C13   C14   1.414028 A    
C22   I2    2.155796 S    
C22   C24   1.397662 A    
O3    Cu1   1.974914 S    
C21   I1    2.155799 S    
C36   H20   1.109054 S    
C38   H25   1.110364 S    
C11   C17   1.408291 A    
C23   I3    2.144382 S    
C12   C18   1.408405 A    
Cu1   Cu2   2.721685 S    
C37   H22   1.110706 S    
O2    C2    1.308694 A    
C39   H28   1.109898 S    
C27   C30   1.435199 A    
C33   H10   1.110574 S    
C6    C16   1.430414 A    
C19   C35   1.512074 S    
C40   H31   1.104410 S    
C6    C32   1.521340 S    
O8    Cu2   1.957500 S    
C34   H14   1.110582 S    
C31   H5    1.107122 S    
C32   H7    1.106444 S    
C33   H9    1.110554 S    
C35   H17   1.106578 S    
C18   C34   1.517376 S    
O6    C4    1.305564 A    
C32   H8    1.102176 S    
C29   C39   1.515083 S    
C2    C25   1.476996 S    
C30   C40   1.515184 S    
C16   C19   1.423793 A    
C28   C29   1.435168 A    
C10   C12   1.393447 A    
C36   H18   1.110377 S    
C11   C13   1.414005 A    
C29   N2    1.380610 A    
C12   C14   1.414096 A    
O1    Cu1   1.988693 S    
C30   N1    1.380610 A    
C5    C31   1.521187 S    
Cu1   N1    2.045327 S    
C39   H29   1.104437 S    
C40   H32   1.109872 S    
Cu2   N2    2.045328 S    
C10   H2    1.083537 S    
C33   H11   1.106156 S    
C15   C20   1.423625 A    
C5    C7    1.409038 A    
O6    Cu2   1.962196 S    
C23   C25   1.416195 A    
O4    C1    1.313744 A    
C17   C33   1.517380 S    
C27   N2    1.383495 A    
C21   C26   1.410955 A    
C18   C20   1.406413 A    
C34   H12   1.110532 S    
C24   C26   1.416192 A    
C7    C9    1.381554 A    
C8    C10   1.381497 A    
C27   C37   1.518592 S    
O4    Cu2   1.974915 S    
C35   H15   1.109920 S    
O2    Cu2   1.988692 S    
O7    C4    1.299445 A    
C20   C36   1.512144 S    
C34   H13   1.106090 S    
O8    C3    1.299479 A    
C31   H3    1.109784 S    
O5    Cu1   1.962196 S    
C13   C15   1.429143 A    
C37   H23   1.110364 S    
C5    C15   1.430239 A    
C6    C8    1.409091 A    
C32   H6    1.109267 S    
C28   C38   1.518599 S    
C1    C26   1.476995 S    
C24   I4    2.144366 S    
