data_mof_unit_29844.cif
_audit_creation_date              2012-12-10T20:53:04-0500
_audit_creation_method            fapswitch 2.2
_symmetry_space_group_name_H-M    P1
_symmetry_Int_Tables_number       1
_space_group_crystal_system       triclinic
_cell_length_a                    18.370997
_cell_length_b                    18.347416
_cell_length_c                    18.374746
_cell_angle_alpha                 59.771701
_cell_angle_beta                  59.751882
_cell_angle_gamma                 59.633921
_cell_volume                      4351.44563602

loop_
_atom_site_label
_atom_site_type_symbol
_atom_type_description
_atom_site_fract_x
_atom_site_fract_y
_atom_site_fract_z
_atom_type_partial_charge
C1    C     C_R   0.390106 0.107823 0.112532 0.780354
C2    C     C_R   0.609894 0.892179 0.887465 0.781677
C3    C     C_R   0.107353 0.113017 0.390034 0.773155
C4    C     C_R   0.892644 0.886984 0.609964 0.774544
C5    C     C_R   0.106739 0.390628 0.113528 0.780870
C6    C     C_R   0.893267 0.609372 0.886466 0.781188
C7    C     C_R   0.292242 0.550600 0.252330 -0.183788
C8    C     C_R   0.707955 0.451302 0.749701 -0.183211
C9    C     C_R   0.553710 0.246536 0.288819 -0.164266
C10   C     C_R   0.451529 0.759022 0.710256 -0.169197
C11   C     C_R   0.254295 0.292372 0.553805 -0.188983
C12   C     C_R   0.753506 0.711980 0.440737 -0.169916
C13   C     C_R   0.227475 0.519705 0.331113 -0.172837
C14   C     C_R   0.772685 0.482294 0.670925 -0.168558
C15   C     C_R   0.523786 0.327352 0.224946 -0.174153
C16   C     C_R   0.482094 0.677728 0.773376 -0.162323
C17   C     C_R   0.333466 0.226126 0.525398 -0.182090
C18   C     C_R   0.672143 0.775644 0.470582 -0.183171
C19   C     C_R   0.137853 0.556584 0.335865 0.135198
C20   C     C_R   0.862965 0.442512 0.664739 0.132083
C21   C     C_R   0.558674 0.333697 0.135124 0.113929
C22   C     C_R   0.440703 0.667055 0.864716 0.131840
C23   C     C_R   0.335035 0.138327 0.556495 0.124181
C24   C     C_R   0.666607 0.864519 0.441616 0.116757
C25   C     C_R   0.113961 0.623796 0.260718 -0.156722
C26   C     C_R   0.887598 0.372115 0.738441 -0.154442
C27   C     C_R   0.623543 0.258251 0.109968 -0.122223
C28   C     C_R   0.368914 0.739046 0.891938 -0.164633
C29   C     C_R   0.256563 0.117436 0.616463 -0.136045
C30   C     C_R   0.743179 0.889013 0.382562 -0.113097
C31   C     C_R   0.178780 0.655600 0.181669 0.164133
C32   C     C_R   0.822567 0.340865 0.817743 0.171017
C33   C     C_R   0.653739 0.177016 0.173815 0.164919
C34   C     C_R   0.337969 0.820862 0.828539 0.163619
C35   C     C_R   0.176651 0.184155 0.644762 0.169461
C36   C     C_R   0.824874 0.825508 0.352457 0.167568
C37   C     C_R   0.268107 0.618206 0.177925 -0.085039
C38   C     C_R   0.732647 0.381137 0.822839 -0.083478
C39   C     C_R   0.618121 0.171522 0.263684 -0.117806
C40   C     C_R   0.379815 0.830240 0.737621 -0.083190
C41   C     C_R   0.176108 0.271693 0.612785 -0.094861
C42   C     C_R   0.829660 0.736567 0.381935 -0.111697
C43   C     C_R   0.014322 0.579019 0.475810 0.034005
C44   C     C_R   0.986195 0.420472 0.524531 0.035062
C45   C     C_R   0.579762 0.474854 0.013246 0.031712
C46   C     C_R   0.420731 0.524628 0.985534 0.030705
C47   C     C_R   0.474392 0.013534 0.579952 0.032206
C48   C     C_R   0.525459 0.986559 0.420121 0.029714
C49   C     C_R   0.946133 0.552895 0.554720 -0.077037
C50   C     C_R   0.054128 0.446821 0.445461 -0.075575
C51   C     C_R   0.553090 0.554519 0.945694 -0.082171
C52   C     C_R   0.447044 0.445401 0.053562 -0.079380
C53   C     C_R   0.554264 0.945878 0.553339 -0.080218
C54   C     C_R   0.445582 0.054188 0.446742 -0.077151
C55   C     C_R   0.932737 0.472714 0.580361 -0.095953
C56   C     C_R   0.067874 0.526659 0.420101 -0.095860
C57   C     C_R   0.472438 0.580892 0.932661 -0.092089
C58   C     C_R   0.527534 0.419229 0.066612 -0.093546
C59   C     C_R   0.580771 0.932898 0.472739 -0.097483
C60   C     C_R   0.419209 0.067475 0.527158 -0.093586
C61   C     C_R   0.110249 0.390232 0.389790 0.846060
C62   C     C_R   0.889805 0.609714 0.610227 0.845827
C63   C     C_R   0.390246 0.389896 0.110055 0.846339
C64   C     C_R   0.609770 0.610104 0.889759 0.843726
C65   C     C_R   0.389906 0.110358 0.390134 0.842425
C66   C     C_R   0.610064 0.889726 0.609872 0.842867
C67   C     C_R   0.189558 0.926483 0.447184 -0.138065
C68   C     C_R   0.810437 0.073514 0.552739 -0.138754
C69   C     C_R   0.188762 0.426757 0.927992 -0.133967
C70   C     C_R   0.811245 0.573223 0.072004 -0.133877
C71   C     C_R   0.452052 0.189413 0.926491 -0.137740
C72   C     C_R   0.547961 0.810586 0.073506 -0.138774
C73   C     C_R   0.234265 0.834957 0.470252 -0.199189
C74   C     C_R   0.765730 0.165041 0.529614 -0.199561
C75   C     C_R   0.232018 0.435264 0.838376 -0.204295
C76   C     C_R   0.767986 0.564698 0.161625 -0.203778
C77   C     C_R   0.478766 0.233414 0.835163 -0.207222
C78   C     C_R   0.521244 0.766583 0.164835 -0.207800
C79   C     C_R   0.186386 0.776790 0.520499 -0.109121
C80   C     C_R   0.813607 0.223210 0.479350 -0.108920
C81   C     C_R   0.182686 0.474748 0.782968 -0.104004
C82   C     C_R   0.817320 0.525217 0.217032 -0.102776
C83   C     C_R   0.528302 0.185197 0.777156 -0.102849
C84   C     C_R   0.471693 0.814803 0.222839 -0.102904
C85   C     C_R   0.093000 0.808800 0.549263 0.112521
C86   C     C_R   0.906993 0.191200 0.450629 0.113578
C87   C     C_R   0.089342 0.508941 0.815279 0.100461
C88   C     C_R   0.910666 0.491046 0.184715 0.100869
C89   C     C_R   0.553188 0.091989 0.809059 0.112892
C90   C     C_R   0.446798 0.908014 0.190935 0.113795
C91   C     C_R   0.044327 0.903987 0.526309 0.021208
C92   C     C_R   0.955667 0.096013 0.473636 0.022160
C93   C     C_R   0.042706 0.507820 0.906677 0.015271
C94   C     C_R   0.957302 0.492175 0.093314 0.015223
C95   C     C_R   0.528450 0.043859 0.904153 0.024131
C96   C     C_R   0.471544 0.956143 0.095843 0.024918
C97   C     C_R   0.094697 0.962910 0.473334 0.056565
C98   C     C_R   0.905297 0.037089 0.526619 0.056399
C99   C     C_R   0.094019 0.461155 0.964193 0.064117
C100  C     C_R   0.905989 0.538837 0.035799 0.064183
C101  C     C_R   0.475812 0.094630 0.962872 0.059657
C102  C     C_R   0.524190 0.905371 0.037124 0.059169
C103  C     C_R   0.949068 0.942836 0.553135 -0.129131
C104  C     C_R   0.050927 0.057165 0.446846 -0.127560
C105  C     C_R   0.948731 0.550198 0.943322 -0.135448
C106  C     C_R   0.051278 0.449801 0.056669 -0.135514
C107  C     C_R   0.552878 0.948746 0.943122 -0.131051
C108  C     C_R   0.447120 0.051256 0.056874 -0.129434
H1    H     H_    0.230955 0.968237 0.408676 0.132754
H2    H     H_    0.769040 0.031758 0.591258 0.132932
H3    H     H_    0.231129 0.393656 0.968223 0.128351
H4    H     H_    0.768877 0.606325 0.031774 0.128037
H5    H     H_    0.412579 0.231323 0.968063 0.125117
H6    H     H_    0.587446 0.768673 0.031935 0.125271
H7    H     H_    0.318846 0.642069 0.117720 0.125186
H8    H     H_    0.681839 0.357534 0.883190 0.125533
H9    H     H_    0.640243 0.109567 0.314199 0.116982
H10   H     H_    0.356611 0.892678 0.688039 0.123952
H11   H     H_    0.115166 0.323756 0.633955 0.126451
H12   H     H_    0.891964 0.686325 0.359611 0.118283
H13   H     H_    0.361044 0.523207 0.249241 0.124838
H14   H     H_    0.638651 0.480686 0.753845 0.124927
H15   H     H_    0.527439 0.242043 0.357872 0.123937
H16   H     H_    0.483033 0.766871 0.639994 0.122095
H17   H     H_    0.253595 0.359746 0.530641 0.129177
H18   H     H_    0.757523 0.643549 0.462759 0.128883
H19   H     H_    0.246893 0.467959 0.388464 0.115175
H20   H     H_    0.752726 0.536374 0.614603 0.112769
H21   H     H_    0.473988 0.384849 0.245336 0.112466
H22   H     H_    0.537718 0.623355 0.751104 0.106314
H23   H     H_    0.393545 0.243005 0.479985 0.116112
H24   H     H_    0.613636 0.755842 0.515578 0.113785
H25   H     H_    0.045036 0.651317 0.264018 0.101617
H26   H     H_    0.957297 0.341417 0.733668 0.114395
H27   H     H_    0.650482 0.262548 0.040776 0.128491
H28   H     H_    0.337335 0.731296 0.962285 0.119437
H29   H     H_    0.257769 0.049611 0.640547 0.115691
H30   H     H_    0.739497 0.957369 0.360473 0.111535
O1    O     O_3   0.250000 0.250000 0.250000 -0.493295
O2    O     O_3   0.750000 0.750000 0.750000 -0.490758
O3    O     O_R   0.305080 0.134200 0.134200 -0.636161
O4    O     O_R   0.694920 0.865800 0.865800 -0.632942
O5    O     O_R   0.134200 0.134200 0.305080 -0.642778
O6    O     O_R   0.865800 0.865800 0.694920 -0.639969
O7    O     O_R   0.134200 0.305080 0.134200 -0.632039
O8    O     O_R   0.865800 0.694920 0.865800 -0.630325
O9    O     O_R   0.134200 0.305090 0.426530 -0.614599
O10   O     O_R   0.865800 0.694910 0.573470 -0.620102
O11   O     O_R   0.305090 0.426530 0.134200 -0.616194
O12   O     O_R   0.694910 0.573470 0.865800 -0.614815
O13   O     O_R   0.426530 0.134200 0.305090 -0.614404
O14   O     O_R   0.573470 0.865800 0.694910 -0.617769
O15   O     O_R   0.134190 0.426530 0.134200 -0.653541
O16   O     O_R   0.865810 0.573470 0.865800 -0.654174
O17   O     O_R   0.426530 0.134200 0.134190 -0.639319
O18   O     O_R   0.573470 0.865800 0.865810 -0.644933
O19   O     O_R   0.134200 0.134190 0.426530 -0.640251
O20   O     O_R   0.865800 0.865810 0.573470 -0.646298
O21   O     O_R   0.426530 0.305080 0.134210 -0.640704
O22   O     O_R   0.573470 0.694920 0.865790 -0.641711
O23   O     O_R   0.305080 0.134210 0.426530 -0.643509
O24   O     O_R   0.694920 0.865790 0.573470 -0.645530
O25   O     O_R   0.134210 0.426530 0.305080 -0.651513
O26   O     O_R   0.865790 0.573470 0.694920 -0.650739
Zn1   Zn    Zn3+2 0.206620 0.206630 0.380140 0.968850
Zn2   Zn    Zn3+2 0.793380 0.793370 0.619860 0.957452
Zn3   Zn    Zn3+2 0.206630 0.380140 0.206620 0.958347
Zn4   Zn    Zn3+2 0.793370 0.619860 0.793380 0.957652
Zn5   Zn    Zn3+2 0.380140 0.206620 0.206630 0.977171
Zn6   Zn    Zn3+2 0.619860 0.793380 0.793370 0.967531
Zn7   Zn    Zn3+2 0.206620 0.206620 0.206620 0.951696
Zn8   Zn    Zn3+2 0.793380 0.793380 0.793380 0.956361
H31   H     H_    0.777580 0.294715 0.461759 0.141744
H32   H     H_    0.222413 0.705286 0.538043 0.141786
H33   H     H_    0.782553 0.523199 0.285935 0.141526
H34   H     H_    0.217451 0.476753 0.714069 0.141151
H35   H     H_    0.452470 0.779096 0.294153 0.134037
H36   H     H_    0.547520 0.220905 0.705842 0.134084
N1    N     N_3   0.031371 0.656886 0.455097 -0.437794
H37   H     H_    0.097401 0.637583 0.450238 0.187756
H38   H     H_    0.023524 0.702629 0.393556 0.190137
N2    N     N_3   0.969203 0.342581 0.545175 -0.433019
H39   H     H_    0.978382 0.296169 0.606053 0.219933
H40   H     H_    0.902863 0.361582 0.551132 0.185482
N3    N     N_3   0.657860 0.453454 0.030223 -0.432530
H41   H     H_    0.638836 0.448517 0.096162 0.180644
H42   H     H_    0.703162 0.391549 0.022598 0.187392
N4    N     N_3   0.344216 0.544261 0.967025 -0.434999
H43   H     H_    0.297206 0.605481 0.975098 0.191446
H44   H     H_    0.364658 0.549586 0.900661 0.181283
N5    N     N_3   0.451819 0.029437 0.659071 -0.436350
H45   H     H_    0.389555 0.022360 0.702942 0.188969
H46   H     H_    0.447229 0.095094 0.641201 0.183914
N6    N     N_3   0.548331 0.970909 0.340742 -0.431259
H47   H     H_    0.610105 0.979140 0.296532 0.204860
H48   H     H_    0.554005 0.904963 0.358205 0.184002
H49   H     H_    0.306683 0.808970 0.449068 0.144998
H50   H     H_    0.693311 0.191026 0.550764 0.144633
H51   H     H_    0.304318 0.408856 0.812204 0.136200
H52   H     H_    0.695685 0.591091 0.187802 0.136173
H53   H     H_    0.460406 0.305656 0.809120 0.131293
H54   H     H_    0.539614 0.694340 0.190879 0.130810
N7    N     N_3   0.052224 0.741072 0.601716 -0.488690
H55   H     H_    0.015611 0.746146 0.569646 0.202459
H56   H     H_    0.013631 0.745408 0.665670 0.190234
N8    N     N_3   0.947767 0.258930 0.398151 -0.488699
H57   H     H_    0.986376 0.254565 0.334208 0.189089
H58   H     H_    0.984364 0.253892 0.430216 0.203914
N9    N     N_3   0.046634 0.535075 0.754660 -0.472028
H59   H     H_    0.008796 0.602900 0.739033 0.178542
H60   H     H_    0.008893 0.494409 0.781336 0.220794
N10   N     N_3   0.953373 0.464931 0.245328 -0.471197
H61   H     H_    0.991106 0.505607 0.218644 0.221944
H62   H     H_    0.991217 0.397107 0.260962 0.177906
N11   N     N_3   0.601662 0.051150 0.741344 -0.501031
H63   H     H_    0.566398 0.016815 0.747857 0.202722
H64   H     H_    0.666294 0.010429 0.743194 0.193578
N12   N     N_3   0.398306 0.948856 0.258647 -0.500894
H65   H     H_    0.333680 0.989575 0.256781 0.192144
H66   H     H_    0.433560 0.983192 0.252147 0.204406
N13   N     N_3   0.154549 0.727337 0.105844 -0.479805
H67   H     H_    0.182518 0.700854 0.055140 0.177971
H68   H     H_    0.085171 0.751584 0.121073 0.183860
N14   N     N_3   0.847000 0.266871 0.892484 -0.470727
H69   H     H_    0.819481 0.291170 0.944742 0.170389
H70   H     H_    0.916437 0.242064 0.877057 0.177599
N15   N     N_3   0.720074 0.100996 0.146254 -0.451825
H71   H     H_    0.735237 0.045743 0.201226 0.174252
H72   H     H_    0.778762 0.116571 0.103548 0.186355
N16   N     N_3   0.263377 0.894295 0.855404 -0.476233
H73   H     H_    0.287316 0.945790 0.832029 0.176137
H74   H     H_    0.237559 0.875814 0.925106 0.193695
N17   N     N_3   0.095661 0.164296 0.705452 -0.475994
H75   H     H_    0.079234 0.172526 0.764843 0.167209
H76   H     H_    0.106360 0.097094 0.721468 0.193390
N18   N     N_3   0.901657 0.852918 0.291395 -0.474541
H77   H     H_    0.955925 0.799804 0.271193 0.166275
H78   H     H_    0.919523 0.868778 0.326093 0.194565

loop_
_geom_bond_atom_site_label_1
_geom_bond_atom_site_label_2
_ccdc_geom_bond_type
C19   C56   S    
C25   C31   A    
C40   H10   S    
N7    H55   S    
O7    Zn7   S    
O2    Zn4   S    
C30   H30   S    
O8    Zn8   S    
C89   C95   A    
C17   H23   S    
O10   Zn2   S    
N6    H48   S    
C43   C56   A    
O11   Zn3   S    
C63   O21   A    
C45   N3    S    
N14   H69   S    
C86   N8    S    
C22   C57   S    
C53   C59   A    
C92   C98   A    
C54   C65   S    
C54   C60   A    
C27   C33   A    
C26   C32   A    
N7    H56   S    
C71   H5    S    
C100  C105  A    
C33   C39   A    
C95   C107  A    
C48   C59   A    
C34   C40   A    
C23   C29   A    
N4    H44   S    
C11   H17   S    
C80   H31   S    
C10   H16   S    
N11   H64   S    
N2    H40   S    
C6    O8    A    
N8    H58   S    
N3    H42   S    
C12   H18   S    
C96   C102  A    
C45   C51   A    
O22   Zn6   S    
C68   C74   A    
C98   C103  A    
C4    C103  S    
C72   H6    S    
C2    C107  S    
O3    Zn7   S    
C14   H20   S    
N18   H77   S    
C66   O24   A    
C10   C40   A    
O1    Zn1   S    
N2    H39   S    
C63   O11   A    
C80   C86   A    
O9    Zn1   S    
C93   C105  A    
C47   C60   A    
C31   N13   S    
C65   O23   A    
C18   H24   S    
C67   H1    S    
C9    C39   A    
C4    O20   A    
C74   H50   S    
C73   H49   S    
C22   C28   A    
C6    C105  S    
C72   C78   A    
O1    Zn7   S    
C67   C73   A    
C32   C38   A    
C16   H22   S    
N17   H75   S    
C93   C99   A    
C47   C53   A    
C2    O18   A    
C101  C108  A    
N6    H47   S    
C96   C108  A    
C28   C34   A    
O2    Zn8   S    
C62   O10   A    
O15   Zn3   S    
C87   N9    S    
C79   H32   S    
O16   Zn4   S    
C34   N16   S    
C8    C38   A    
C17   C23   A    
C7    H13   S    
C20   C55   S    
C19   C25   A    
O2    Zn6   S    
C32   N14   S    
C70   C100  A    
C24   C30   A    
C5    C106  S    
O2    Zn2   S    
C23   C60   S    
C83   C89   A    
C88   C94   A    
C45   C58   A    
C5    O7    A    
C85   N7    S    
C13   C19   A    
C12   C42   A    
N5    H45   S    
C81   H34   S    
C14   C20   A    
O26   Zn4   S    
C3    O5    A    
C72   C102  A    
C18   C24   A    
C76   H52   S    
O19   Zn1   S    
C3    C104  S    
O24   Zn2   S    
N8    H57   S    
C75   C81   A    
C1    C108  S    
C28   H28   S    
C39   H9    S    
C5    O15   A    
C91   C97   A    
C31   C37   A    
C64   O12   A    
N4    H43   S    
C38   H8    S    
C65   O13   A    
C48   C54   A    
N11   H63   S    
N5    H46   S    
C66   O14   A    
N13   H67   S    
C26   H26   S    
N9    H60   S    
O14   Zn6   S    
O17   Zn5   S    
C92   C104  A    
N12   H66   S    
N15   H71   S    
C15   H21   S    
C94   C100  A    
O25   Zn3   S    
O1    Zn3   S    
C43   N1    S    
C64   O22   A    
N9    H59   S    
C7    C37   A    
C102  C107  A    
C68   H2    S    
C89   N11   S    
C41   H11   S    
N16   H74   S    
C53   C66   S    
N17   H76   S    
C81   C87   A    
C35   C41   A    
C52   C58   A    
C35   N17   S    
C69   C99   A    
C69   H3    S    
N15   H72   S    
N10   H62   S    
C46   C57   A    
C70   C76   A    
C2    O4    A    
C8    C14   A    
C69   C75   A    
C76   C82   A    
C85   C91   A    
C44   N2    S    
C71   C77   A    
C25   H25   S    
O20   Zn2   S    
C71   C101  A    
O4    Zn8   S    
C84   C90   A    
C44   C50   A    
C99   C106  A    
O6    Zn8   S    
C11   C17   A    
C16   C22   A    
C49   C62   S    
O21   Zn5   S    
C83   H36   S    
C48   N6    S    
C61   O25   A    
C33   N15   S    
N12   H65   S    
C43   C49   A    
C51   C64   S    
C78   H54   S    
C91   C103  A    
C1    O17   A    
C52   C63   S    
N14   H70   S    
C36   C42   A    
C4    O6    A    
C3    O19   A    
C90   C96   A    
C37   H7    S    
C75   H51   S    
N1    H37   S    
C36   N18   S    
C73   C79   A    
C29   H29   S    
C29   C35   A    
O13   Zn5   S    
C30   C36   A    
C27   H27   S    
C77   H53   S    
C61   O9    A    
O5    Zn7   S    
C21   C58   S    
N13   H68   S    
C10   C16   A    
C50   C56   A    
C46   C52   A    
C6    O16   A    
C44   C55   A    
C8    H14   S    
N3    H41   S    
C15   C21   A    
C20   C26   A    
C24   C59   S    
C82   C88   A    
O12   Zn4   S    
C87   C93   A    
O18   Zn6   S    
C9    H15   S    
C79   C85   A    
N18   H78   S    
O1    Zn5   S    
C94   C106  A    
C49   C55   A    
C47   N5    S    
N16   H73   S    
C70   H4    S    
C68   C98   A    
C90   N12   S    
C97   C104  A    
C1    O3    A    
C67   C97   A    
C86   C92   A    
C84   H35   S    
C13   H19   S    
C78   C84   A    
C51   C57   A    
C7    C13   A    
C62   O26   A    
N10   H61   S    
C88   N10   S    
C11   C41   A    
C12   C18   A    
C42   H12   S    
C50   C61   S    
C77   C83   A    
C74   C80   A    
C82   H33   S    
C46   N4    S    
C21   C27   A    
O23   Zn1   S    
C95   C101  A    
C9    C15   A    
N1    H38   S    
