data_mof_unit_29511.cif
_audit_creation_date              2012-12-11T14:40:07-0500
_audit_creation_method            fapswitch 2.2
_symmetry_space_group_name_H-M    P1
_symmetry_Int_Tables_number       1
_space_group_crystal_system       triclinic
_cell_length_a                    19.726712
_cell_length_b                    10.862861
_cell_length_c                    19.521719
_cell_angle_alpha                 90.152271
_cell_angle_beta                  97.568041
_cell_angle_gamma                 89.855119
_cell_volume                      4146.81591843

loop_
_atom_site_label
_atom_site_type_symbol
_atom_type_description
_atom_site_fract_x
_atom_site_fract_y
_atom_site_fract_z
_atom_type_partial_charge
C1    C     C_R   0.724585 0.955079 0.361426 0.543866
C2    C     C_R   0.276016 0.956346 0.638110 0.550075
C3    C     C_R   0.225881 0.450568 0.360387 0.538056
C4    C     C_R   0.774011 0.449759 0.639805 0.541228
C5    C     C_3   0.723282 0.303495 0.482358 -0.133096
C6    C     C_3   0.280121 0.306556 0.517149 -0.131854
C7    C     C_3   0.192040 0.873650 0.479566 -0.133480
C8    C     C_3   0.809030 0.863987 0.519250 -0.129938
C9    C     C_3   0.747095 0.399880 0.433102 0.035643
C10   C     C_3   0.252805 0.398812 0.566850 0.036693
C11   C     C_3   0.248348 0.896528 0.433578 0.048443
C12   C     C_3   0.753362 0.891903 0.565582 0.047871
C13   C     C_3   0.713597 0.502874 0.470107 -0.125923
C14   C     C_3   0.283038 0.506274 0.531016 -0.126374
C15   C     C_3   0.264627 0.021888 0.465959 -0.162725
C16   C     C_3   0.739898 0.018245 0.533785 -0.162366
C17   C     C_3   0.782609 0.518827 0.517659 -0.118025
C18   C     C_3   0.213846 0.516904 0.483118 -0.119235
C19   C     C_3   0.318180 0.959389 0.519924 -0.120024
C20   C     C_3   0.684792 0.959585 0.480006 -0.124348
C21   C     C_3   0.814573 0.414332 0.479978 -0.005479
C22   C     C_3   0.185169 0.407903 0.519606 -0.004823
C23   C     C_3   0.301387 0.833903 0.487040 0.010870
C24   C     C_3   0.698922 0.833186 0.512186 0.009164
C25   C     C_3   0.792283 0.318182 0.529630 -0.123986
C26   C     C_3   0.211034 0.315835 0.469466 -0.129754
C27   C     C_3   0.245570 0.809990 0.533250 -0.155724
C28   C     C_3   0.753723 0.804779 0.465332 -0.153732
C29   C     C_3   0.759118 0.421812 0.566933 0.044861
C30   C     C_3   0.240832 0.423843 0.433323 0.045974
C31   C     C_3   0.261843 0.935051 0.565491 0.049886
C32   C     C_3   0.740098 0.931053 0.433776 0.049508
C33   C     C_3   0.518254 0.277157 0.970698 -0.103760
C34   C     C_3   0.476151 0.271310 0.031460 -0.103538
C35   C     C_3   0.018237 0.777171 0.970704 -0.103713
C36   C     C_3   0.976135 0.771290 0.031465 -0.103424
C37   C     C_3   0.568188 0.178524 0.004225 -0.145528
C38   C     C_3   0.431256 0.167597 0.995814 -0.144278
C39   C     C_3   0.068184 0.678554 0.004226 -0.145509
C40   C     C_3   0.931254 0.667564 0.995814 -0.144182
C41   C     C_3   0.526065 0.173077 0.064430 0.056247
C42   C     C_3   0.473413 0.173772 0.935643 0.057167
C43   C     C_3   0.026062 0.673075 0.064431 0.056242
C44   C     C_3   0.973410 0.673772 0.935643 0.057120
C45   C     C_R   0.563656 0.183759 0.348464 0.551261
C46   C     C_R   0.465728 0.179804 0.662594 0.548741
C47   C     C_R   0.063224 0.683499 0.348443 0.548005
C48   C     C_R   0.965616 0.679864 0.662542 0.547711
C49   C     C_3   0.481465 0.068989 0.029929 -0.105872
C50   C     C_3   0.523063 0.074822 0.968108 -0.106939
C51   C     C_3   0.981477 0.568973 0.029925 -0.105838
C52   C     C_3   0.023074 0.574838 0.968104 -0.106971
C53   C     C_1   0.763392 0.425738 0.904429 -0.003504
C54   C     C_1   0.236560 0.425363 0.095578 -0.002667
C55   C     C_1   0.263390 0.925732 0.904426 -0.003982
C56   C     C_1   0.736563 0.925357 0.095580 -0.002942
C57   C     C_1   0.747497 0.407713 0.034581 -0.047754
C58   C     C_1   0.252508 0.407718 0.965457 -0.047941
C59   C     C_1   0.247495 0.907705 0.034579 -0.047768
C60   C     C_1   0.752511 0.907709 0.965460 -0.047963
C61   C     C_1   0.754664 0.415446 0.963955 -0.046643
C62   C     C_1   0.245311 0.415167 0.036054 -0.046422
C63   C     C_1   0.254662 0.915439 0.963952 -0.046670
C64   C     C_1   0.745314 0.915158 0.036057 -0.046407
C65   C     C_1   0.742333 0.394340 0.094797 -0.004877
C66   C     C_1   0.257674 0.394509 0.905224 -0.005527
C67   C     C_1   0.242331 0.894333 0.094795 -0.005384
C68   C     C_1   0.757676 0.894502 0.905227 -0.006063
C69   C     C_R   0.739892 0.365769 0.361036 0.539141
C70   C     C_R   0.260147 0.365101 0.638865 0.541390
C71   C     C_R   0.239459 0.862696 0.361839 0.540310
C72   C     C_R   0.761127 0.860526 0.637532 0.544452
C73   C     C_R   0.721566 0.952919 0.163522 0.539834
C74   C     C_R   0.278426 0.953052 0.836501 0.538003
C75   C     C_R   0.221565 0.452922 0.163521 0.537036
C76   C     C_R   0.778428 0.453055 0.836503 0.535034
C77   C     C_R   0.557616 0.181645 0.135343 0.556758
C78   C     C_R   0.442173 0.182051 0.864613 0.554219
C79   C     C_R   0.057614 0.681644 0.135343 0.556715
C80   C     C_R   0.942172 0.682051 0.864613 0.554182
C81   C     C_R   0.735615 0.359908 0.164136 0.541865
C82   C     C_R   0.264357 0.360011 0.835840 0.538158
C83   C     C_R   0.235614 0.859904 0.164135 0.541100
C84   C     C_R   0.764358 0.860008 0.835841 0.538130
C85   C     C_1   0.494495 0.171865 0.599042 -0.012790
C86   C     C_1   0.544105 0.177021 0.416535 -0.019954
C87   C     C_1   0.993826 0.672216 0.598744 0.001811
C88   C     C_1   0.043099 0.675812 0.416188 -0.007768
C89   C     C_1   0.529791 0.172838 0.474618 -0.053293
C90   C     C_1   0.512629 0.170316 0.542486 -0.046458
C91   C     C_1   0.028635 0.672128 0.474185 -0.025983
C92   C     C_1   0.011562 0.670681 0.542049 -0.018473
C93   C     C_3   0.690387 0.407459 0.520922 -0.113699
C94   C     C_3   0.309707 0.414930 0.479675 -0.108031
C95   C     C_3   0.208535 0.000258 0.513420 -0.113694
C96   C     C_3   0.795192 0.991894 0.485944 -0.111752
Cr1   Cr    Cr6+3 0.765830 0.160660 0.268180 1.034228
Cr2   Cr    Cr6+3 0.234170 0.160660 0.731820 1.035601
Cr3   Cr    Cr6+3 0.265830 0.660660 0.268180 1.043646
Cr4   Cr    Cr6+3 0.734170 0.660660 0.731820 1.044471
Cr5   Cr    Cr6+3 0.612110 0.009150 0.248770 1.034366
Cr6   Cr    Cr6+3 0.387890 0.009150 0.751230 1.032418
Cr7   Cr    Cr6+3 0.112110 0.509150 0.248770 1.041559
Cr8   Cr    Cr6+3 0.887890 0.509150 0.751230 1.039126
Cr9   Cr    Cr6+3 0.615930 0.324050 0.248450 1.030223
Cr10  Cr    Cr6+3 0.384070 0.324050 0.751550 1.031677
Cr11  Cr    Cr6+3 0.115930 0.824050 0.248450 1.025523
Cr12  Cr    Cr6+3 0.884070 0.824050 0.751550 1.026430
H1    H     H_    0.696611 0.218202 0.463079 0.109585
H2    H     H_    0.309729 0.223632 0.535771 0.120719
H3    H     H_    0.139772 0.841152 0.461131 0.117419
H4    H     H_    0.860306 0.825052 0.537518 0.126465
H5    H     H_    0.639713 0.402696 0.539642 0.143001
H6    H     H_    0.360584 0.415993 0.461256 0.149016
H7    H     H_    0.170265 0.067947 0.527170 0.140446
H8    H     H_    0.834715 0.056850 0.472501 0.139549
H9    H     H_    0.680495 0.573181 0.441464 0.135219
H10   H     H_    0.314049 0.578174 0.560644 0.132267
H11   H     H_    0.273835 0.102173 0.433590 0.112940
H12   H     H_    0.733035 0.099832 0.566358 0.111866
H13   H     H_    0.370169 0.994766 0.538519 0.128299
H14   H     H_    0.633239 0.996473 0.461994 0.122211
H15   H     H_    0.809191 0.604911 0.535928 0.111422
H16   H     H_    0.185417 0.602029 0.466185 0.097919
H17   H     H_    0.824890 0.243908 0.555357 0.125587
H18   H     H_    0.180536 0.240368 0.442340 0.125260
H19   H     H_    0.235367 0.730224 0.565480 0.102549
H20   H     H_    0.761175 0.724113 0.432358 0.106413
H21   H     H_    0.624884 0.182916 0.009551 0.111154
H22   H     H_    0.374560 0.163151 0.990433 0.111937
H23   H     H_    0.124880 0.682972 0.009552 0.111257
H24   H     H_    0.874558 0.663092 0.990433 0.112055
H25   H     H_    0.533495 0.362928 0.945988 0.143580
H26   H     H_    0.456733 0.352095 0.057991 0.144256
H27   H     H_    0.033466 0.862955 0.945998 0.143596
H28   H     H_    0.956705 0.852060 0.058001 0.144297
H29   H     H_    0.467096 0.984044 0.055986 0.136560
H30   H     H_    0.541600 0.994690 0.940381 0.135455
H31   H     H_    0.967120 0.484015 0.055978 0.136730
H32   H     H_    0.041622 0.494721 0.940373 0.135629
O1    O     O_R   0.783230 0.287800 0.346510 -0.504397
O2    O     O_R   0.216770 0.287800 0.653490 -0.507119
O3    O     O_R   0.283230 0.787800 0.346510 -0.502793
O4    O     O_R   0.716770 0.787800 0.653490 -0.505101
O5    O     O_R   0.554500 0.081650 0.170370 -0.493215
O6    O     O_R   0.445500 0.081650 0.829630 -0.500090
O7    O     O_R   0.054500 0.581650 0.170370 -0.493346
O8    O     O_R   0.945500 0.581650 0.829630 -0.500208
O9    O     O_R   0.545430 0.285140 0.163100 -0.510084
O10   O     O_R   0.454570 0.285140 0.836900 -0.516387
O11   O     O_R   0.045430 0.785140 0.163100 -0.509590
O12   O     O_R   0.954570 0.785140 0.836900 -0.515896
O13   O     O_R   0.677850 0.374730 0.185500 -0.509427
O14   O     O_R   0.322150 0.374730 0.814500 -0.509787
O15   O     O_R   0.177850 0.874730 0.185500 -0.508831
O16   O     O_R   0.822150 0.874730 0.814500 -0.508869
O17   O     O_3   0.664630 0.164620 0.255130 -0.297486
O18   O     O_3   0.335370 0.164620 0.744870 -0.278266
O19   O     O_3   0.164630 0.664620 0.255130 -0.298546
O20   O     O_3   0.835370 0.664620 0.744870 -0.279577
O21   O     O_R   0.760130 0.037060 0.338610 -0.504742
O22   O     O_R   0.239870 0.037060 0.661390 -0.504177
O23   O     O_R   0.260130 0.537060 0.338610 -0.493172
O24   O     O_R   0.739870 0.537060 0.661390 -0.492281
O25   O     O_R   0.666620 0.921370 0.332440 -0.520238
O26   O     O_R   0.333380 0.921370 0.667560 -0.515318
O27   O     O_R   0.166620 0.421370 0.332440 -0.518189
O28   O     O_R   0.833380 0.421370 0.667560 -0.512184
O29   O     O_R   0.557170 0.082420 0.312350 -0.482614
O30   O     O_R   0.442830 0.082420 0.687650 -0.493915
O31   O     O_R   0.057170 0.582420 0.312350 -0.466676
O32   O     O_R   0.942830 0.582420 0.687650 -0.479439
O33   O     O_R   0.548310 0.285980 0.316250 -0.487904
O34   O     O_R   0.451690 0.285980 0.683750 -0.497568
O35   O     O_R   0.048310 0.785980 0.316250 -0.498534
O36   O     O_R   0.951690 0.785980 0.683750 -0.510807
O37   O     O_R   0.680520 0.375500 0.327470 -0.514619
O38   O     O_R   0.319480 0.375500 0.672530 -0.499438
O39   O     O_R   0.180520 0.875500 0.327470 -0.517851
O40   O     O_R   0.819480 0.875500 0.672530 -0.503547
O41   O     O_R   0.780350 0.286970 0.193350 -0.500664
O42   O     O_R   0.219650 0.286970 0.806650 -0.503483
O43   O     O_R   0.280350 0.786970 0.193350 -0.501541
O44   O     O_R   0.719650 0.786970 0.806650 -0.504044
O45   O     O_R   0.757460 0.036290 0.196640 -0.493695
O46   O     O_R   0.242540 0.036290 0.803360 -0.495792
O47   O     O_R   0.257460 0.536290 0.196640 -0.494883
O48   O     O_R   0.742540 0.536290 0.803360 -0.497216
O49   O     O_R   0.663740 0.920540 0.179290 -0.512508
O50   O     O_R   0.336260 0.920540 0.820710 -0.512715
O51   O     O_R   0.163740 0.420540 0.179290 -0.514299
O52   O     O_R   0.836260 0.420540 0.820710 -0.514600
C97   C     C_1   0.882177 0.419915 0.456583 0.221349
N1    N     N_1   0.935371 0.423813 0.437850 -0.263494
C98   C     C_1   0.117251 0.401970 0.542264 0.221084
N2    N     N_1   0.063858 0.395853 0.560413 -0.271877
C99   C     C_1   0.356609 0.748656 0.474967 0.233803
N3    N     N_1   0.400312 0.682129 0.465384 -0.278800
C100  C     C_1   0.642283 0.751986 0.524502 0.231383
N4    N     N_1   0.597553 0.688471 0.534282 -0.277631

loop_
_geom_bond_atom_site_label_1
_geom_bond_atom_site_label_2
_ccdc_geom_bond_type
C58   C62   S    
Cr9   O13   S    
C67   C83   S    
Cr10  O10   S    
C49   H29   S    
C17   C29   S    
C14   C18   S    
C7    C27   S    
C35   C39   S    
C35   C36   S    
C8    C96   S    
C81   O41   A    
C44   C80   S    
C19   C31   S    
Cr6   O18   S    
Cr3   O47   S    
C94   H6    S    
C3    O27   A    
C38   C49   S    
C10   C22   S    
Cr7   O27   S    
Cr5   O5    S    
Cr11  O35   S    
C33   C42   S    
C38   H22   S    
Cr3   O3    S    
C16   C20   S    
Cr4   O48   S    
C9    C69   S    
Cr1   O45   S    
C38   C42   S    
Cr3   O19   S    
C16   H12   S    
C15   C95   S    
C73   O49   A    
C11   C71   S    
C13   H9    S    
C83   O15   A    
C4    O24   A    
C34   H26   S    
C69   O1    A    
Cr8   O52   S    
C81   O13   A    
Cr1   O41   S    
Cr12  O40   S    
C80   O12   A    
C12   C24   S    
C26   H18   S    
C71   O39   A    
C49   C50   S    
C9    C13   S    
C25   H17   S    
C59   C67   T    
C15   C19   S    
C55   C74   S    
C11   C15   S    
C17   H15   S    
Cr9   O17   S    
Cr2   O18   S    
C24   C100  S    
C15   H11   S    
Cr10  O14   S    
C55   C63   T    
C46   O34   A    
Cr5   O29   S    
C18   C30   S    
C23   C27   S    
C2    O26   A    
C40   C44   S    
C20   H14   S    
C4    C29   S    
C76   O48   A    
C3    O23   A    
Cr8   O32   S    
C46   C85   S    
Cr11  O11   S    
C44   C52   S    
C39   C52   S    
C40   H24   S    
Cr5   O17   S    
C100  N4    T    
Cr6   O26   S    
Cr12  O12   S    
C87   C92   T    
Cr2   O2    S    
Cr7   O31   S    
C6    H2    S    
C2    O22   A    
C34   C41   S    
C53   C61   T    
Cr8   O20   S    
Cr4   O44   S    
C75   O51   A    
C36   H28   S    
C28   C32   S    
C41   C49   S    
C73   O45   A    
Cr2   O22   S    
C69   O37   A    
C58   C66   T    
C7    C11   S    
C74   O46   A    
C25   C29   S    
C54   C75   S    
C70   O2    A    
C16   C96   S    
C27   C31   S    
C51   C52   S    
C68   C84   S    
C12   C16   S    
C84   O44   A    
Cr10  O38   S    
C10   C14   S    
C35   H27   S    
C91   C92   S    
C29   C93   S    
C70   O38   A    
C39   C43   S    
C54   C62   T    
C6    C94   S    
Cr10  O18   S    
C1    C32   S    
C33   C37   S    
C46   O30   A    
C82   O14   A    
C13   C93   S    
C2    C31   S    
Cr1   O17   S    
Cr2   O42   S    
C3    C30   S    
C19   C23   S    
C5    C9    S    
C76   O52   A    
C45   O33   A    
Cr8   O28   S    
Cr4   O20   S    
C47   O31   A    
Cr12  O16   S    
C88   C91   T    
C36   C40   S    
C8    C12   S    
Cr11  O19   S    
C74   O50   A    
C56   C64   T    
C33   C34   S    
Cr10  O34   S    
C48   C87   S    
C83   O43   A    
Cr4   O24   S    
C78   O10   A    
C93   H5    S    
Cr5   O25   S    
C35   C44   S    
Cr1   O1    S    
C42   C50   S    
C5    C25   S    
C10   C70   S    
C14   C94   S    
Cr9   O37   S    
C32   C96   S    
C42   C78   S    
Cr1   O21   S    
Cr4   O4    S    
C8    C28   S    
Cr3   O23   S    
C22   C98   S    
C53   C76   S    
Cr7   O51   S    
C72   O40   A    
C77   O9    A    
C9    C21   S    
C77   O5    A    
C7    C95   S    
C48   O32   A    
C14   H10   S    
C20   C32   S    
C79   O11   A    
C59   C63   S    
C72   O4    A    
C21   C25   S    
C19   H13   S    
C56   C73   S    
Cr11  O39   S    
C1    O25   A    
C34   C38   S    
Cr3   O43   S    
C33   H25   S    
C75   O47   A    
C24   C28   S    
C57   C65   T    
C86   C89   T    
C45   O29   A    
C23   C99   S    
C6    C10   S    
C5    C93   S    
C85   C90   T    
C50   H30   S    
C57   C61   S    
Cr12  O20   S    
C7    H3    S    
C40   C51   S    
Cr9   O9    S    
C82   O42   A    
Cr5   O49   S    
C13   C17   S    
C60   C64   S    
C47   C88   S    
C18   C22   S    
C45   C86   S    
C95   H7    S    
Cr8   O8    S    
Cr2   O46   S    
Cr6   O6    S    
C66   C82   S    
C41   C77   S    
C37   C50   S    
C84   O16   A    
Cr7   O19   S    
C6    C26   S    
C71   O3    A    
C39   H23   S    
Cr6   O30   S    
C43   C51   S    
C31   C95   S    
Cr12  O36   S    
C11   C23   S    
Cr6   O50   S    
C8    H4    S    
C37   H21   S    
C79   O7    A    
C37   C41   S    
C99   N3    T    
C12   C72   S    
C17   C21   S    
C27   H19   S    
C78   O6    A    
C47   O35   A    
C1    O21   A    
C98   N2    T    
C52   H32   S    
C4    O28   A    
C80   O8    A    
C60   C68   T    
C30   C94   S    
C97   N1    T    
C22   C26   S    
C65   C81   S    
C96   H8    S    
C36   C43   S    
Cr9   O33   S    
C5    H1    S    
C21   C97   S    
C89   C90   S    
C43   C79   S    
C20   C24   S    
Cr11  O15   S    
C28   H20   S    
C18   H16   S    
Cr7   O7    S    
C48   O36   A    
C26   C30   S    
C51   H31   S    
