data_mof_unit_67487.cif
_audit_creation_date              2013-03-05T15:40:59-0500
_audit_creation_method            fapswitch 2.2
_symmetry_space_group_name_H-M    P1
_symmetry_Int_Tables_number       1
_space_group_crystal_system       triclinic
_cell_length_a                    10.998093
_cell_length_b                    8.818143
_cell_length_c                    7.652092
_cell_angle_alpha                 102.701589
_cell_angle_beta                  96.462181
_cell_angle_gamma                 96.437626
_cell_volume                      712.153323964

loop_
_atom_site_label
_atom_site_type_symbol
_atom_site_description
_atom_site_fract_x
_atom_site_fract_y
_atom_site_fract_z
_atom_type_partial_charge
O1    O     O_R   0.509140 0.286130 0.619770 -0.518154
O2    O     O_R   0.485380 0.256770 0.308360 -0.555527
C1    C     C_R   0.496616 0.200741 0.454045 0.814394
O3    O     O_R   0.329570 0.514650 0.655700 -0.556672
O4    O     O_R   0.305810 0.485300 0.344290 -0.541259
C2    C     C_R   0.260890 0.506702 0.500262 0.975115
Cu1   Cu    Cu3+1 0.514070 0.517380 0.684380 1.188222
Cu2   Cu    Cu3+1 0.485930 0.482620 0.315620 1.223861
O5    O     O_R   0.514620 0.743230 0.691640 -0.595888
O6    O     O_R   0.490860 0.713870 0.380230 -0.497783
O7    O     O_R   0.694190 0.514700 0.655710 -0.540443
O8    O     O_R   0.670430 0.485350 0.344300 -0.513034
C3    C     C_R   0.503565 0.798475 0.545880 0.791298
C4    C     C_R   0.738248 0.489917 0.500751 0.857464
C5    C     C_3   0.084919 0.458486 0.679980 0.535232
C6    C     C_3   0.943926 0.475349 0.703417 0.372752
C7    C     C_3   0.081224 0.677055 0.491682 0.485012
C8    C     C_3   0.047000 0.382630 0.328249 0.534211
C9    C     C_3   0.121800 0.509621 0.500831 -0.364623
C10   C     C_3   0.877037 0.488623 0.507698 -0.510437
C11   C     C_3   0.933303 0.656031 0.475122 0.572282
C12   C     C_3   0.906545 0.339952 0.356725 0.386294
C13   C     C_2   0.503073 0.033736 0.430148 0.230084
C14   C     C_2   0.497065 0.963593 0.571178 0.157529
N1    N     N_2   0.464720 0.456420 0.038520 0.101618
N2    N     N_2   0.535280 0.543580 0.961480 0.106171
O9    O     O_3   0.161107 0.536889 0.845062 -0.654915
H1    H     H_    0.203103 0.639858 0.838887 0.413891
N3    N     N_R   0.827498 0.304778 0.178089 0.198340
O10   O     O_R   0.802106 0.159931 0.083678 -0.220506
O11   O     O_R   0.794991 0.412354 0.099622 -0.158875
N4    N     N_R   0.125658 0.740333 0.340698 0.184690
O12   O     O_R   0.240803 0.743423 0.317467 -0.332482
O13   O     O_R   0.070240 0.846681 0.283696 -0.198962
O14   O     O_3   0.882993 0.664715 0.300570 -0.587567
H2    H     H_    0.851914 0.766673 0.303836 0.403069
O15   O     O_3   0.519439 0.946646 0.261684 -0.636769
H3    H     H_    0.536213 0.015617 0.178702 0.399207
N5    N     N_R   0.478989 0.043556 0.749251 0.126811
O16   O     O_R   0.382507 0.993341 0.815567 -0.265992
O17   O     O_R   0.573956 0.123548 0.861106 -0.253223
N6    N     N_R   0.362675 0.347663 0.948411 0.259472
O18   O     O_R   0.297091 0.275828 0.044501 -0.297270
O19   O     O_R   0.343832 0.289567 0.777118 -0.305560
O20   O     O_3   0.611252 0.661212 0.076699 -0.515246
H4    H     H_    0.644096 0.728144 0.999771 0.382119
O21   O     O_3   0.102754 0.299475 0.649388 -0.611002
H5    H     H_    0.134117 0.273088 0.763408 0.430633
N7    N     N_R   0.887701 0.335230 0.762775 0.211052
O22   O     O_R   0.769205 0.292866 0.742634 -0.230290
O23   O     O_R   0.952884 0.268673 0.868192 -0.260857
N8    N     N_R   0.934404 0.617168 0.848414 0.209956
O24   O     O_R   0.019989 0.738003 0.901771 -0.195588
O25   O     O_R   0.838665 0.623412 0.932325 -0.224811
O26   O     O_3   0.135045 0.787556 0.651201 -0.678533
H6    H     H_    0.119016 0.893634 0.638791 0.422623
O27   O     O_3   0.899680 0.781331 0.603330 -0.645829
H7    H     H_    0.809362 0.783230 0.579543 0.330831
O28   O     O_3   0.046111 0.449350 0.176721 -0.628485
H8    H     H_    0.124798 0.438870 0.127220 0.412635
O29   O     O_3   0.106537 0.247455 0.292770 -0.610398
H9    H     H_    0.066197 0.180826 0.173735 0.408861
N9    N     N_R   0.880599 0.192765 0.420330 0.147592
O30   O     O_R   0.958170 0.092321 0.422804 -0.209866
O31   O     O_R   0.765595 0.139376 0.421073 -0.356477

loop_
_geom_bond_atom_site_label_1
_geom_bond_atom_site_label_2
_geom_bond_distance
_ccdc_geom_bond_type
N1    N6    1.395856 S    
O4    Cu2   2.019654 S    
Cu1   O7    2.019654 S    
C13   C14   1.360867 D    
N9    O31   1.300278 A    
C8    O29   1.412811 S    
C11   O27   1.420093 S    
N3    O10   1.303907 A    
C2    C9    1.533299 S    
C12   N3    1.485300 S    
C6    N7    1.501350 S    
C7    O26   1.405290 S    
C1    C13   1.454373 S    
O21   H5    0.986862 S    
C5    O21   1.409628 S    
Cu2   O8    2.013123 S    
N4    O12   1.296573 A    
O29   H9    0.993459 S    
O26   H6    0.993664 S    
O2    C1    1.314165 A    
C12   N9    1.492951 S    
O28   H8    0.988570 S    
N3    O11   1.290897 A    
C13   O15   1.389911 S    
O20   H4    0.989040 S    
N8    O24   1.298211 A    
C5    C9    1.613412 S    
Cu2   N1    2.065192 S    
O27   H7    0.992204 S    
O15   H3    0.989030 S    
Cu1   N2    2.065192 S    
N6    O19   1.281883 A    
O3    Cu1   2.013124 S    
C11   O14   1.408616 S    
C5    C6    1.600431 S    
O3    C2    1.318878 A    
C6    C10   1.626731 S    
C7    C9    1.603175 S    
N8    O25   1.293690 A    
C8    C9    1.604167 S    
O1    Cu1   1.982806 S    
O4    C2    1.326173 A    
O7    C4    1.314420 A    
C7    C11   1.603953 S    
N6    O18   1.297662 A    
C10   C12   1.634770 S    
N9    O30   1.298423 A    
C4    C10   1.522766 S    
C8    O28   1.410470 S    
Cu1   Cu2   2.748455 S    
C14   N5    1.436452 S    
C10   C11   1.617412 S    
N5    O17   1.299654 A    
Cu2   O6    1.982806 S    
N7    O22   1.296925 A    
N7    O23   1.296717 A    
N5    O16   1.301624 A    
Cu1   O5    1.979412 S    
C7    N4    1.494805 S    
O5    C3    1.310668 A    
N2    O20   1.337574 S    
O1    C1    1.308303 A    
N1    N2    1.307269 D    
C8    C12   1.598997 S    
C5    O9    1.422541 S    
O2    Cu2   1.979413 S    
C6    N8    1.500441 S    
O14   H2    0.993359 S    
C3    C14   1.437057 S    
O8    C4    1.327495 A    
O9    H1    0.984760 S    
O6    C3    1.305282 A    
N4    O13   1.299762 A    
