data_mof_unit_29322.cif
_audit_creation_date              2012-12-10T20:43:59-0500
_audit_creation_method            fapswitch 2.2
_symmetry_space_group_name_H-M    P1
_symmetry_Int_Tables_number       1
_space_group_crystal_system       triclinic
_cell_length_a                    17.503904
_cell_length_b                    10.693994
_cell_length_c                    9.840114
_cell_angle_alpha                 90.258853
_cell_angle_beta                  90.17209
_cell_angle_gamma                 90.048046
_cell_volume                      1841.91014504

loop_
_atom_site_label
_atom_site_type_symbol
_atom_type_description
_atom_site_fract_x
_atom_site_fract_y
_atom_site_fract_z
_atom_type_partial_charge
C1    C     C_R   0.499000 0.259944 0.499829 0.891061
C2    C     C_R   0.885773 0.552460 0.503070 0.101125
C3    C     C_1   0.966000 0.562476 0.499676 -0.037443
C4    C     C_1   0.033817 0.563245 0.498266 -0.076812
C5    C     C_R   0.152765 0.546336 0.621990 -0.165497
C6    C     C_R   0.231049 0.526841 0.622693 -0.201047
C7    C     C_R   0.270596 0.515678 0.499333 -0.034617
C8    C     C_R   0.230985 0.524710 0.375445 -0.200820
C9    C     C_R   0.152676 0.544176 0.375136 -0.164883
C10   C     C_R   0.114130 0.555007 0.498332 0.164371
C11   C     C_R   0.493835 0.064121 0.622951 0.102817
C12   C     C_R   0.353267 0.501944 0.499841 0.860936
C13   C     C_R   0.490101 0.128364 0.500320 -0.094865
C14   C     C_R   0.472502 0.064086 0.379720 -0.229336
C15   C     C_R   0.471234 0.934824 0.380171 -0.226672
C16   C     C_R   0.487129 0.871378 0.501462 -0.087903
C17   C     C_R   0.490754 0.936806 0.623915 0.093056
C18   C     C_3   0.545533 0.926689 0.740358 -0.494430
C19   C     C_3   0.549948 0.068910 0.738828 -0.050809
C20   C     C_R   0.473119 0.398855 0.070621 0.220464
C21   C     C_R   0.533629 0.594068 0.072695 -0.143456
C22   C     C_R   0.533700 0.593987 0.928554 -0.140686
C23   C     C_R   0.497889 0.740025 0.500283 0.878536
C24   C     C_R   0.473123 0.398901 0.927951 0.203148
C25   C     C_3   0.394388 0.346292 0.921053 -0.506797
C26   C     C_3   0.394214 0.346507 0.075421 -0.513438
C27   C     C_R   0.646661 0.500425 0.500300 0.900102
C28   C     C_R   0.851830 0.491025 0.611955 -0.272808
C29   C     C_R   0.772886 0.473109 0.613721 0.459738
C30   C     C_R   0.729281 0.513328 0.501325 -0.134771
C31   C     C_R   0.764543 0.573845 0.391779 -0.280871
C32   C     C_R   0.842734 0.593861 0.393043 -0.166588
H1    H     H_    0.886820 0.454423 0.693681 0.144349
H2    H     H_    0.462586 0.885464 0.284956 0.168241
H3    H     H_    0.517312 0.890042 0.833057 0.176745
H4    H     H_    0.599331 0.877777 0.712030 0.202537
H5    H     H_    0.525572 0.113178 0.831550 0.164497
H6    H     H_    0.559650 0.670961 0.127620 0.145459
H7    H     H_    0.560140 0.670341 0.874609 0.141167
H8    H     H_    0.352548 0.412573 0.876297 0.213286
H9    H     H_    0.393604 0.250737 0.876116 0.195211
H10   H     H_    0.352350 0.413055 0.119853 0.212438
H11   H     H_    0.392963 0.251037 0.119414 0.193016
H12   H     H_    0.731522 0.606979 0.305877 0.169315
H13   H     H_    0.869712 0.639763 0.307709 0.142101
H14   H     H_    0.122277 0.553087 0.717459 0.130940
H15   H     H_    0.260422 0.521112 0.719426 0.149030
H16   H     H_    0.260325 0.517262 0.279076 0.148776
H17   H     H_    0.122127 0.549243 0.279342 0.131439
H18   H     H_    0.464231 0.112536 0.284418 0.163452
N1    N     N_R   0.499490 0.499140 0.142800 -0.103144
N2    N     N_R   0.499490 0.499180 0.857150 -0.103451
O1    O     O_R   0.500010 0.316790 0.614690 -0.620522
O2    O     O_R   0.500000 0.316760 0.385350 -0.620437
O3    O     O_R   0.389120 0.500020 0.614710 -0.620552
O4    O     O_R   0.389110 0.499990 0.385370 -0.620722
O5    O     O_R   0.500000 0.683240 0.614650 -0.621669
O6    O     O_R   0.499990 0.683210 0.385310 -0.629943
O7    O     O_R   0.610890 0.500010 0.614630 -0.591405
O8    O     O_R   0.610880 0.499980 0.385290 -0.622602
Zn1   Zn    Zn3+2 0.500010 0.500020 0.653130 0.945279
Zn2   Zn    Zn3+2 0.499990 0.499980 0.346870 0.938750
C33   C     C_3   0.629413 0.118273 0.701365 -0.807395
H19   H     H_    0.649488 0.077445 0.603721 0.239210
H20   H     H_    0.628056 0.221496 0.692284 0.283800
H21   H     H_    0.670728 0.093847 0.782825 0.242335
O9    O     O_3   0.739676 0.403034 0.715791 -0.615091
C34   C     C_3   0.740205 0.472390 0.838307 0.112871
H22   H     H_    0.708928 0.562381 0.825895 0.139445
H23   H     H_    0.799552 0.491992 0.873306 0.124354
C35   C     C_3   0.700523 0.396711 0.948037 -0.804059
H24   H     H_    0.732737 0.309152 0.967514 0.248623
H25   H     H_    0.697563 0.452092 0.043642 0.206698
H26   H     H_    0.641690 0.372186 0.915070 0.256822

loop_
_geom_bond_atom_site_label_1
_geom_bond_atom_site_label_2
_ccdc_geom_bond_type
O6    Zn2   S    
C35   H26   S    
C1    O2    A    
C8    H16   S    
C24   N2    A    
C29   C30   A    
C23   O6    A    
C19   H5    S    
C32   H13   S    
C15   H2    S    
C31   C32   A    
C21   N1    A    
C30   C31   A    
C27   O8    A    
C16   C23   S    
C33   H20   S    
C17   C18   S    
C33   H21   S    
C35   H24   S    
C27   O7    A    
C13   C14   A    
C27   C30   S    
O5    Zn1   S    
C21   H6    S    
C11   C13   A    
C11   C19   S    
C6    C7    A    
N1    Zn2   S    
C20   C26   S    
C34   C35   S    
C29   O9    S    
C22   H7    S    
O3    Zn1   S    
C2    C32   A    
C34   H23   S    
C28   C29   A    
C12   O4    A    
C26   H11   S    
C2    C3    S    
C20   N1    A    
N2    Zn1   S    
C25   H8    S    
C5    C6    A    
C20   C24   A    
C16   C17   A    
O4    Zn2   S    
C7    C12   S    
O7    Zn1   S    
C12   O3    A    
C1    C13   S    
C28   H1    S    
C14   H18   S    
C33   H19   S    
O1    Zn1   S    
O9    C34   S    
C9    C10   A    
C6    H15   S    
C35   H25   S    
C5    C10   A    
C9    H17   S    
C24   C25   S    
C26   H10   S    
O8    Zn2   S    
C18   C19   S    
C18   H3    S    
C25   H9    S    
C23   O5    A    
C7    C8    A    
C1    O1    A    
C14   C15   A    
C11   C17   A    
C2    C28   A    
O2    Zn2   S    
C22   N2    A    
C25   C26   S    
C21   C22   A    
C18   H4    S    
C34   H22   S    
C15   C16   A    
C3    C4    T    
C31   H12   S    
C4    C10   S    
C19   C33   S    
C8    C9    A    
C5    H14   S    
