data_mof_unit_36350.cif
_audit_creation_date              2012-12-11T17:36:18-0500
_audit_creation_method            fapswitch 2.2
_symmetry_space_group_name_H-M    P1
_symmetry_Int_Tables_number       1
_space_group_crystal_system       triclinic
_cell_length_a                    25.956173
_cell_length_b                    6.905166
_cell_length_c                    21.558189
_cell_angle_alpha                 90.000137
_cell_angle_beta                  96.077789
_cell_angle_gamma                 90.0
_cell_volume                      3842.1917065

loop_
_atom_site_label
_atom_site_type_symbol
_atom_type_description
_atom_site_fract_x
_atom_site_fract_y
_atom_site_fract_z
_atom_type_partial_charge
O1    O     O_R   0.208650 0.594520 0.175450 -0.532800
O2    O     O_R   0.791350 0.405480 0.824550 -0.538004
O3    O     O_R   0.291350 0.094520 0.324550 -0.532800
O4    O     O_R   0.708650 0.905480 0.675450 -0.538004
O5    O     O_R   0.192980 0.260780 0.300160 -0.538038
O6    O     O_R   0.807020 0.739220 0.699840 -0.537702
O7    O     O_R   0.307020 0.760780 0.199840 -0.538038
O8    O     O_R   0.692980 0.239220 0.800160 -0.537702
C1    C     C_R   0.178546 0.432981 0.317893 0.692569
C2    C     C_R   0.821411 0.566941 0.682053 0.683533
C3    C     C_R   0.321454 0.932981 0.182107 0.692570
C4    C     C_R   0.678588 0.066941 0.817946 0.683534
O9    O     O_R   0.202550 0.264660 0.174420 -0.540128
O10   O     O_R   0.797450 0.735340 0.825580 -0.537777
O11   O     O_R   0.297450 0.764660 0.325580 -0.540128
O12   O     O_R   0.702550 0.235340 0.674420 -0.537777
O13   O     O_R   0.300990 0.096480 0.197920 -0.537410
O14   O     O_R   0.699010 0.903520 0.802080 -0.539195
O15   O     O_R   0.199010 0.596480 0.302080 -0.537409
O16   O     O_R   0.800990 0.403520 0.697920 -0.539196
C5    C     C_R   0.191125 0.434124 0.150760 0.692161
C6    C     C_R   0.808558 0.565856 0.849393 0.702650
C7    C     C_R   0.308875 0.934124 0.349240 0.692161
C8    C     C_R   0.691442 0.065855 0.650606 0.702651
O17   O     O_3   0.282290 0.427760 0.257860 -0.363310
O18   O     O_3   0.717710 0.572240 0.742140 -0.362551
O19   O     O_3   0.217710 0.927760 0.242140 -0.363310
O20   O     O_3   0.782290 0.072240 0.757860 -0.362551
V1    V     V_3+5 0.244010 0.152080 0.248540 1.408089
V2    V     V_3+5 0.755990 0.847920 0.751460 1.419266
V3    V     V_3+5 0.255990 0.652080 0.251460 1.408089
V4    V     V_3+5 0.744010 0.347920 0.748540 1.419265
C9    C     C_R   0.658671 0.051629 0.590119 -0.069046
C10   C     C_R   0.341797 0.946774 0.409788 -0.069973
C11   C     C_R   0.841329 0.551630 0.909881 -0.069047
C12   C     C_R   0.158203 0.446773 0.090212 -0.069972
C13   C     C_R   0.649215 0.998560 0.478224 -0.191520
C14   C     C_R   0.352034 0.996831 0.521815 -0.185677
C15   C     C_R   0.850785 0.498565 0.021775 -0.191520
C16   C     C_R   0.147966 0.496829 0.978185 -0.185677
C17   C     C_R   0.681279 0.026125 0.533963 0.077416
C18   C     C_R   0.319749 0.985211 0.465680 0.067491
C19   C     C_R   0.818721 0.526128 0.966037 0.077416
C20   C     C_R   0.180251 0.485209 0.034320 0.067491
C21   C     C_R   0.604330 0.044914 0.589264 -0.239133
C22   C     C_R   0.396247 0.935168 0.411144 -0.240056
C23   C     C_R   0.895670 0.544914 0.910736 -0.239133
C24   C     C_R   0.103753 0.435168 0.088855 -0.240056
C25   C     C_R   0.571350 0.012374 0.532959 0.086347
C26   C     C_R   0.429605 0.962660 0.467547 0.086792
C27   C     C_R   0.928650 0.512375 0.967041 0.086348
C28   C     C_R   0.070395 0.462660 0.032453 0.086791
C29   C     C_R   0.595181 0.990470 0.477274 0.116084
C30   C     C_R   0.405965 0.988942 0.523157 0.109769
C31   C     C_R   0.904819 0.490473 0.022727 0.116084
C32   C     C_R   0.094035 0.488940 0.976843 0.109769
C33   C     C_R   0.515783 0.000222 0.529814 0.060038
C34   C     C_R   0.485296 0.968963 0.470871 0.063860
C35   C     C_R   0.984216 0.500222 0.970186 0.060037
C36   C     C_R   0.014704 0.468964 0.029129 0.063859
C37   C     C_R   0.511508 0.948645 0.417218 -0.185999
C38   C     C_R   0.489666 0.018614 0.583601 -0.176763
C39   C     C_R   0.988492 0.448648 0.082782 -0.185998
C40   C     C_R   0.010334 0.518613 0.916399 -0.176763
C41   C     C_R   0.565151 0.959056 0.420554 -0.194968
C42   C     C_R   0.436064 0.013163 0.580138 -0.185648
C43   C     C_R   0.934849 0.459060 0.079446 -0.194969
C44   C     C_R   0.063936 0.513161 0.919862 -0.185647
H1    H     H_    0.583417 0.942292 0.377905 0.120747
H2    H     H_    0.417857 0.031389 0.622777 0.133245
H3    H     H_    0.916583 0.442299 0.122095 0.120748
H4    H     H_    0.082143 0.531386 0.877222 0.133245
H5    H     H_    0.411222 0.910066 0.367104 0.100073
H6    H     H_    0.589300 0.062278 0.633617 0.107887
H7    H     H_    0.088777 0.410067 0.132896 0.100073
H8    H     H_    0.910700 0.562277 0.866383 0.107886
H9    H     H_    0.666739 0.981274 0.435051 0.112079
H10   H     H_    0.334749 0.020833 0.564857 0.120945
H11   H     H_    0.833261 0.481280 0.064949 0.112079
H12   H     H_    0.165251 0.520830 0.935143 0.120945
H13   H     H_    0.491617 0.925047 0.371449 0.121326
H14   H     H_    0.509491 0.039218 0.629538 0.133117
H15   H     H_    0.008383 0.425052 0.128551 0.121326
H16   H     H_    0.990509 0.539216 0.870462 0.133117
C45   C     C_R   0.440702 0.814491 0.099560 -0.089841
C46   C     C_R   0.587299 0.180794 0.940447 -0.137111
C47   C     C_R   0.059298 0.314492 0.400440 -0.089842
C48   C     C_R   0.912702 0.680794 0.559553 -0.137109
H17   H     H_    0.469704 0.701403 0.100402 0.134837
H18   H     H_    0.580927 0.297891 0.972159 0.130126
H19   H     H_    0.030296 0.201403 0.399597 0.134836
H20   H     H_    0.919073 0.797890 0.527842 0.130126
C49   C     C_R   0.401592 0.800492 0.139689 -0.160301
C50   C     C_R   0.625363 0.202750 0.899365 -0.121984
C51   C     C_R   0.098408 0.300492 0.360310 -0.160303
C52   C     C_R   0.874637 0.702750 0.600635 -0.121984
H21   H     H_    0.401096 0.676353 0.170315 0.129995
H22   H     H_    0.647558 0.335580 0.900473 0.114615
H23   H     H_    0.098904 0.176353 0.329684 0.129994
H24   H     H_    0.852442 0.835580 0.599527 0.114616
C53   C     C_R   0.363826 0.946126 0.140578 -0.086083
C54   C     C_R   0.635659 0.052537 0.858629 -0.069202
C55   C     C_R   0.136174 0.446126 0.359422 -0.086083
C56   C     C_R   0.864341 0.552537 0.641370 -0.069202
C57   C     C_R   0.365957 0.105123 0.100071 -0.218924
C58   C     C_R   0.605986 0.881954 0.858784 -0.210876
C59   C     C_R   0.134043 0.605123 0.399929 -0.218924
C60   C     C_R   0.894014 0.381954 0.641216 -0.210875
H25   H     H_    0.336434 0.216409 0.099181 0.143765
H26   H     H_    0.613742 0.764999 0.827567 0.160452
H27   H     H_    0.163566 0.716409 0.400820 0.143765
H28   H     H_    0.886258 0.264998 0.672433 0.160452
C61   C     C_R   0.403764 0.116714 0.057812 0.004283
C62   C     C_R   0.567318 0.857653 0.899569 0.003809
C63   C     C_R   0.096236 0.616715 0.442189 0.004282
C64   C     C_R   0.932682 0.357653 0.600430 0.003810
C65   C     C_R   0.442224 0.971502 0.058331 0.038289
C66   C     C_R   0.558006 0.009743 0.941213 0.039970
C67   C     C_R   0.057776 0.471503 0.441669 0.038290
C68   C     C_R   0.941994 0.509742 0.558787 0.039970
C69   C     C_1   0.483892 0.983967 0.018072 0.042244
C70   C     C_1   0.517919 0.996434 0.983622 0.039763
C71   C     C_1   0.016108 0.483967 0.481928 0.042245
C72   C     C_1   0.982081 0.496434 0.516378 0.039763
C73   C     C_3   0.262529 0.023607 0.467981 -0.348894
C74   C     C_3   0.253582 0.239598 0.480956 -0.327767
C75   C     C_3   0.200157 0.275280 0.501772 -0.680382
H29   H     H_    0.169977 0.229533 0.464684 0.277433
H30   H     H_    0.195471 0.193540 0.545192 0.238833
H31   H     H_    0.195260 0.432025 0.511014 0.207946
H32   H     H_    0.282711 0.294232 0.518370 0.199584
H33   H     H_    0.257700 0.324821 0.437991 0.193690
H34   H     H_    0.238977 0.981836 0.424028 0.163331
H35   H     H_    0.248729 0.932811 0.505524 0.181222
C76   C     C_3   0.739343 0.026990 0.531559 -0.379817
C77   C     C_3   0.759035 0.233279 0.522648 -0.303188
C78   C     C_3   0.815332 0.231844 0.508356 -0.762176
H36   H     H_    0.839957 0.155471 0.545832 0.227827
H37   H     H_    0.818758 0.157671 0.463262 0.224093
H38   H     H_    0.829374 0.382912 0.504975 0.225568
H39   H     H_    0.735151 0.304868 0.483299 0.196986
H40   H     H_    0.755877 0.319097 0.565705 0.197074
H41   H     H_    0.759777 0.962497 0.574506 0.161963
H42   H     H_    0.749165 0.934108 0.492295 0.174497
C79   C     C_3   0.237471 0.523605 0.032019 -0.348895
C80   C     C_3   0.246418 0.739596 0.019044 -0.327770
C81   C     C_3   0.299842 0.775279 0.998228 -0.680389
H43   H     H_    0.330023 0.729531 0.035316 0.277435
H44   H     H_    0.304528 0.693540 0.954808 0.238833
H45   H     H_    0.304740 0.932024 0.988987 0.207947
H46   H     H_    0.217289 0.794230 0.981631 0.199586
H47   H     H_    0.242300 0.824818 0.062010 0.193691
H48   H     H_    0.261022 0.481834 0.075971 0.163331
H49   H     H_    0.251271 0.432810 0.994476 0.181223
C82   C     C_3   0.760657 0.526993 0.968441 -0.379816
C83   C     C_3   0.740965 0.733282 0.977354 -0.303185
C84   C     C_3   0.684667 0.731845 0.991645 -0.762172
H50   H     H_    0.660043 0.655476 0.954167 0.227826
H51   H     H_    0.681241 0.657667 0.036737 0.224091
H52   H     H_    0.670626 0.882913 0.995027 0.225567
H53   H     H_    0.764849 0.804865 0.016705 0.196983
H54   H     H_    0.744124 0.819105 0.934298 0.197072
H55   H     H_    0.740223 0.462504 0.925493 0.161962
H56   H     H_    0.750835 0.434107 0.007704 0.174495
C85   C     C_2   0.400824 0.277947 0.012213 0.720023
O21   O     O_2   0.386240 0.437606 0.027293 -0.577651
O22   O     O_R   0.412969 0.246341 0.951381 -0.663001
H57   H     H_    0.407334 0.365749 0.924142 0.302028
C86   C     C_2   0.538556 0.670562 0.898195 0.732702
O23   O     O_2   0.537265 0.565901 0.852257 -0.556289
O24   O     O_R   0.513907 0.610711 0.949508 -0.670838
H58   H     H_    0.496853 0.479347 0.942954 0.307594
C87   C     C_2   0.099176 0.777946 0.487787 0.720024
O25   O     O_2   0.113761 0.937605 0.472709 -0.577651
O26   O     O_R   0.087031 0.746341 0.548620 -0.663002
H59   H     H_    0.092666 0.865748 0.575859 0.302028
C88   C     C_2   0.961444 0.170562 0.601804 0.732701
O27   O     O_2   0.962735 0.065900 0.647742 -0.556289
O28   O     O_R   0.986093 0.110711 0.550491 -0.670838
H60   H     H_    0.003147 0.979347 0.557045 0.307594

loop_
_geom_bond_atom_site_label_1
_geom_bond_atom_site_label_2
_ccdc_geom_bond_type
C73   H35   S    
O17   V3    S    
C62   C86   S    
O24   H58   S    
C48   C52   A    
O1    C5    A    
C84   H50   S    
C47   H19   S    
O19   V1    S    
C9    C21   A    
C86   O23   D    
O3    C7    A    
C81   H43   S    
C10   C18   A    
C56   C60   A    
C11   C23   A    
C79   C80   S    
C25   C33   A    
C71   C72   T    
C5    C12   S    
C87   O25   D    
O7    C3    A    
C6    C11   S    
C78   H37   S    
O5    C1    A    
C74   C75   S    
C58   C62   A    
C36   C39   A    
C40   C44   A    
O9    V1    S    
C83   C84   S    
C81   H44   S    
C23   H8    S    
C14   C18   A    
C61   C85   S    
O4    C8    A    
C51   H23   S    
C44   H4    S    
C50   H22   S    
C73   H34   S    
O1    V3    S    
O13   V1    S    
O2    V4    S    
C66   C70   S    
O3    V1    S    
C65   C69   S    
C40   H16   S    
C77   H40   S    
C46   C50   A    
C18   C73   S    
C58   H26   S    
C45   C49   A    
C1    O15   A    
C15   C31   A    
C48   H20   S    
C2    O16   A    
C16   C32   A    
C47   C51   A    
O2    C6    A    
C16   H12   S    
C54   C58   A    
C10   C22   A    
C74   H33   S    
C48   C68   A    
C11   C19   A    
O15   V3    S    
C16   C20   A    
C43   H3    S    
C1    C55   S    
C13   C29   A    
C34   C37   A    
O11   C7    A    
C38   H14   S    
C83   H54   S    
C35   C36   A    
O12   C8    A    
C64   C88   S    
C53   C57   A    
C86   O24   S    
C24   H7    S    
C47   C67   A    
C85   O22   S    
O10   V2    S    
C19   C82   S    
O20   V4    S    
C51   C55   A    
O5    V1    S    
C87   O26   S    
O17   V1    S    
C78   H38   S    
C39   C43   A    
O7    V3    S    
C38   C42   A    
O19   V3    S    
C26   C34   A    
C76   C77   S    
C81   H45   S    
C46   C66   A    
C46   H18   S    
C49   C53   A    
O22   H57   S    
C45   H17   S    
O18   V4    S    
C15   C19   A    
C14   H10   S    
C82   H55   S    
C32   C44   A    
C13   H9    S    
C60   H28   S    
C39   H15   S    
C21   H6    S    
O8    V4    S    
C84   H51   S    
C75   H30   S    
C4    C54   S    
C77   H39   S    
C37   C41   A    
C80   H46   S    
C31   C43   A    
O26   H59   S    
C14   C30   A    
C21   C25   A    
O8    C4    A    
C7    C10   S    
C20   C79   S    
C35   C40   A    
O9    C5    A    
C3    C53   S    
C26   C30   A    
C45   C65   A    
C59   C63   A    
C69   C70   T    
C62   C66   A    
C61   C65   A    
C79   H49   S    
C76   H42   S    
O6    V2    S    
C83   H53   S    
O18   V2    S    
C84   H52   S    
C63   C67   A    
C52   C56   A    
C73   C74   S    
C80   H47   S    
C12   C20   A    
C27   C35   A    
C33   C38   A    
C75   H29   S    
C49   H21   S    
C17   C76   S    
C29   C41   A    
C80   C81   S    
O16   V4    S    
C57   C61   A    
C57   H25   S    
C3    O13   A    
C59   H27   S    
C77   C78   S    
O6    C2    A    
C23   C27   A    
O11   V3    S    
C30   C42   A    
C67   C71   S    
C82   H56   S    
O12   V4    S    
C78   H36   S    
C22   C26   A    
C8    C9    S    
C9    C17   A    
O10   C6    A    
C2    C56   S    
C75   H31   S    
C79   H48   S    
C63   C87   S    
C37   H13   S    
C60   C64   A    
C33   C34   A    
C42   H2    S    
C74   H32   S    
C41   H1    S    
C52   H24   S    
O20   V2    S    
C76   H41   S    
C88   O28   S    
C12   C24   A    
C27   C31   A    
C13   C17   A    
C25   C29   A    
C68   C72   S    
O14   V2    S    
O28   H60   S    
C64   C68   A    
C85   O21   D    
C24   C28   A    
C50   C54   A    
C28   C36   A    
C88   O27   D    
C4    O14   A    
C82   C83   S    
C55   C59   A    
C22   H5    S    
O4    V2    S    
C28   C32   A    
C15   H11   S    
