data_mof_unit_43510.cif
_audit_creation_date              2012-12-10T20:21:45-0500
_audit_creation_method            fapswitch 2.2
_symmetry_space_group_name_H-M    P1
_symmetry_Int_Tables_number       1
_space_group_crystal_system       triclinic
_cell_length_a                    19.306648
_cell_length_b                    18.451321
_cell_length_c                    8.919504
_cell_angle_alpha                 90.00692
_cell_angle_beta                  90.044848
_cell_angle_gamma                 89.92637
_cell_volume                      3177.41947287

loop_
_atom_site_label
_atom_site_type_symbol
_atom_type_description
_atom_site_fract_x
_atom_site_fract_y
_atom_site_fract_z
_atom_type_partial_charge
C1    C     C_R   0.365603 0.500035 0.499628 0.923271
C2    C     C_R   0.553504 0.197416 0.572186 0.408133
C3    C     C_R   0.500171 0.841407 0.499611 -0.122328
C4    C     C_R   0.499829 0.158593 0.500388 -0.122329
C5    C     C_R   0.442014 0.961900 0.550475 -0.133868
C6    C     C_R   0.557986 0.038100 0.449525 -0.133868
C7    C     C_R   0.558096 0.961957 0.449355 -0.134364
C8    C     C_R   0.441904 0.038043 0.550644 -0.134366
C9    C     C_R   0.499887 0.077196 0.500155 0.221645
C10   C     C_R   0.500113 0.922804 0.499845 0.221641
C11   C     C_R   0.499975 0.499997 0.218384 0.940391
C12   C     C_R   0.634397 0.499965 0.500373 0.923272
C13   C     C_R   0.500025 0.500003 0.781616 0.940391
C14   C     C_1   0.499990 0.499996 0.065305 -0.194420
C15   C     C_1   0.500010 0.500004 0.934695 -0.194419
C16   C     C_R   0.745739 0.434844 0.481275 -0.311297
C17   C     C_R   0.254262 0.565155 0.518745 -0.311273
C18   C     C_R   0.254516 0.434973 0.478047 -0.306548
C19   C     C_R   0.745484 0.565027 0.521955 -0.306549
C20   C     C_R   0.818033 0.434012 0.485480 0.498049
C21   C     C_R   0.181967 0.565987 0.514549 0.498040
C22   C     C_R   0.182264 0.434020 0.481875 0.495843
C23   C     C_R   0.551128 0.725721 0.573005 -0.127171
C24   C     C_R   0.817736 0.565981 0.518135 0.495840
C25   C     C_R   0.853381 0.500048 0.501711 -0.136732
C26   C     C_R   0.146619 0.499951 0.498312 -0.136739
C27   C     C_R   0.709623 0.499930 0.501204 -0.166241
C28   C     C_R   0.290377 0.500069 0.498802 -0.166248
C29   C     C_R   0.963771 0.535947 0.386047 -0.135894
C30   C     C_R   0.036229 0.464053 0.613978 -0.135899
C31   C     C_R   0.035510 0.535814 0.385042 -0.134631
C32   C     C_R   0.964490 0.464187 0.614983 -0.134618
C33   C     C_R   0.071570 0.499852 0.498993 0.216752
C34   C     C_R   0.448873 0.274279 0.426990 -0.127168
C35   C     C_R   0.928430 0.500148 0.501032 0.216745
C36   C     C_3   0.835632 0.316034 0.560767 -0.325864
C37   C     C_3   0.164346 0.683952 0.439224 -0.325842
C38   C     C_3   0.163929 0.316858 0.560127 -0.318408
C39   C     C_3   0.836070 0.683141 0.439870 -0.318418
C40   C     C_3   0.671096 0.816287 0.609684 -0.331100
C41   C     C_3   0.328906 0.183710 0.390310 -0.331097
C42   C     C_3   0.329391 0.815803 0.383107 -0.341625
C43   C     C_3   0.670606 0.184199 0.616918 -0.341635
C44   C     C_R   0.449004 0.725881 0.426606 -0.129648
C45   C     C_R   0.550995 0.274118 0.573398 -0.129654
C46   C     C_R   0.553837 0.802361 0.571235 0.406002
C47   C     C_R   0.446164 0.197639 0.428760 0.406001
C48   C     C_R   0.446495 0.802584 0.427818 0.408130
H1    H     H_    0.717835 0.384974 0.460763 0.175637
H2    H     H_    0.410398 0.305247 0.366494 0.154324
H3    H     H_    0.410549 0.694964 0.366166 0.155401
H4    H     H_    0.589449 0.305036 0.633841 0.155400
H5    H     H_    0.396847 0.933415 0.591547 0.148774
H6    H     H_    0.603153 0.066585 0.408454 0.148773
H7    H     H_    0.603325 0.933536 0.408070 0.147725
H8    H     H_    0.396675 0.066464 0.591929 0.147721
H9    H     H_    0.787847 0.288553 0.521424 0.156595
H10   H     H_    0.828794 0.336847 0.677171 0.149432
H11   H     H_    0.877276 0.274603 0.564445 0.199180
H12   H     H_    0.282165 0.615025 0.539262 0.175640
H13   H     H_    0.171139 0.663127 0.322819 0.149433
H14   H     H_    0.212149 0.711426 0.478473 0.156577
H15   H     H_    0.122709 0.725392 0.435599 0.199179
H16   H     H_    0.167823 0.338539 0.676481 0.151852
H17   H     H_    0.213049 0.289973 0.526831 0.154370
H18   H     H_    0.123015 0.274711 0.560591 0.197858
H19   H     H_    0.786952 0.710028 0.473164 0.154373
H20   H     H_    0.832175 0.661456 0.323518 0.151851
H21   H     H_    0.876986 0.725286 0.439397 0.197858
H22   H     H_    0.676454 0.807962 0.486435 0.140794
H23   H     H_    0.282570 0.385128 0.457463 0.169984
H24   H     H_    0.685138 0.766152 0.671573 0.168381
H25   H     H_    0.708921 0.858640 0.642422 0.201625
H26   H     H_    0.314863 0.233848 0.328429 0.168377
H27   H     H_    0.323548 0.192032 0.513561 0.140794
H28   H     H_    0.291082 0.141358 0.357565 0.201625
H29   H     H_    0.322710 0.805059 0.505234 0.146747
H30   H     H_    0.316504 0.766876 0.316211 0.162567
H31   H     H_    0.291597 0.858555 0.351919 0.200544
H32   H     H_    0.683489 0.233125 0.683820 0.162572
H33   H     H_    0.677292 0.194946 0.494794 0.146739
H34   H     H_    0.717429 0.614873 0.542529 0.169984
H35   H     H_    0.708400 0.141448 0.648108 0.200547
H36   H     H_    0.935769 0.563383 0.297310 0.133818
H37   H     H_    0.064231 0.436617 0.702713 0.133817
H38   H     H_    0.062961 0.563243 0.295673 0.134989
H39   H     H_    0.937039 0.436756 0.704350 0.135008
H40   H     H_    0.589605 0.694753 0.633499 0.154324
N1    N     N_R   0.500000 0.689440 0.500000 -0.131349
N2    N     N_R   0.500000 0.310560 0.500000 -0.131350
O1    O     O_R   0.398180 0.560840 0.499960 -0.629288
O2    O     O_3   0.144478 0.629053 0.540660 -0.588957
O3    O     O_3   0.145200 0.370835 0.455419 -0.592112
O4    O     O_3   0.854799 0.629166 0.544585 -0.592113
O5    O     O_3   0.604163 0.840180 0.650287 -0.583417
O6    O     O_3   0.395840 0.159820 0.349704 -0.583415
O7    O     O_3   0.396551 0.840789 0.348010 -0.581349
O8    O     O_3   0.603446 0.159210 0.651999 -0.581348
O9    O     O_R   0.601820 0.439160 0.500040 -0.629288
O10   O     O_R   0.601820 0.560840 0.500040 -0.628798
O11   O     O_R   0.398180 0.439160 0.499960 -0.628796
O12   O     O_R   0.500000 0.560800 0.285330 -0.610597
O13   O     O_R   0.500000 0.439200 0.714670 -0.610598
O14   O     O_R   0.500000 0.560800 0.714670 -0.610738
O15   O     O_R   0.500000 0.439200 0.285330 -0.610740
O16   O     O_3   0.855526 0.370947 0.459382 -0.588957
Zn1   Zn    Zn3+2 0.500000 0.581210 0.500000 0.946069
Zn2   Zn    Zn3+2 0.500000 0.418790 0.500000 0.946068

loop_
_geom_bond_atom_site_label_1
_geom_bond_atom_site_label_2
_ccdc_geom_bond_type
C7    C10   A    
C21   C26   A    
C43   H35   S    
C39   H20   S    
C43   O8    S    
C7    H7    S    
C36   H11   S    
C8    H8    S    
C6    C9    A    
C37   H14   S    
O9    Zn2   S    
C40   H22   S    
C5    H5    S    
C36   H10   S    
C11   C14   S    
C41   O6    S    
C20   C25   A    
C3    C48   A    
C40   H25   S    
C12   O9    A    
C41   H26   S    
C46   O5    S    
C38   H18   S    
C8    C9    A    
C11   O15   A    
C1    C28   S    
C47   O6    S    
C23   N1    A    
O13   Zn2   S    
C13   O13   A    
C19   H34   S    
C19   C27   A    
C38   H16   S    
C30   C33   A    
C16   C27   A    
C42   H31   S    
C1    O1    A    
C23   C46   A    
C6    H6    S    
C37   H15   S    
C20   O16   S    
C2    C45   A    
O15   Zn2   S    
C34   H2    S    
C12   C27   S    
C36   O16   S    
C32   C35   A    
O1    Zn1   S    
C18   C28   A    
C24   C25   A    
C29   H36   S    
C36   H9    S    
C42   O7    S    
C45   H4    S    
C43   H32   S    
C32   H39   S    
C17   C21   A    
C13   O14   A    
C2    C4    A    
C34   N2    A    
C39   O4    S    
C48   O7    S    
C24   O4    S    
C41   H27   S    
C26   C33   S    
C38   H17   S    
C16   C20   A    
N1    Zn1   S    
C31   C33   A    
C39   H21   S    
O12   Zn1   S    
C16   H1    S    
C30   H37   S    
C45   N2    A    
C25   C35   S    
C44   H3    S    
C42   H30   S    
C23   H40   S    
C13   C15   S    
C43   H33   S    
C22   O3    S    
C40   O5    S    
C1    O11   A    
C18   H23   S    
O10   Zn1   S    
C40   H24   S    
C37   O2    S    
C18   C22   A    
C17   C28   A    
C39   H19   S    
C5    C8    A    
C37   H13   S    
C6    C7    A    
C29   C35   A    
C3    C46   A    
C19   C24   A    
N2    Zn2   S    
C5    C10   A    
C29   C31   A    
C3    C10   S    
C41   H28   S    
C30   C32   A    
O11   Zn2   S    
C38   O3    S    
C11   O12   A    
C12   O10   A    
C17   H12   S    
C2    O8    S    
C42   H29   S    
C22   C26   A    
C31   H38   S    
C14   C15   T    
C34   C47   A    
C4    C9    S    
C4    C47   A    
O14   Zn1   S    
C44   N1    A    
C44   C48   A    
C21   O2    S    
