data_mof_unit_10613.cif
_audit_creation_date              2012-12-11T16:22:14-0500
_audit_creation_method            fapswitch 2.2
_symmetry_space_group_name_H-M    P1
_symmetry_Int_Tables_number       1
_space_group_crystal_system       triclinic
_cell_length_a                    13.493956
_cell_length_b                    14.011452
_cell_length_c                    30.062709
_cell_angle_alpha                 97.866628
_cell_angle_beta                  89.725603
_cell_angle_gamma                 118.751404
_cell_volume                      4924.10226278

loop_
_atom_site_label
_atom_site_type_symbol
_atom_type_description
_atom_site_fract_x
_atom_site_fract_y
_atom_site_fract_z
_atom_type_partial_charge
C1    C     C_R   0.720227 0.098522 0.569251 0.532608
C2    C     C_1   0.330545 0.657261 0.762552 0.004950
C3    C     C_3   0.199019 0.900205 0.282026 -0.098125
C4    C     C_3   0.101168 0.975119 0.407023 -0.084535
C5    C     C_3   0.555822 0.270124 0.065585 -0.126584
C6    C     C_3   0.790717 0.425135 0.166080 -0.129724
C7    C     C_3   0.735791 0.356384 0.328235 -0.093101
C8    C     C_3   0.919183 0.371945 0.446216 -0.089391
C9    C     C_3   0.894345 0.008848 0.181951 -0.097366
C10   C     C_3   0.736184 0.959064 0.055996 -0.093348
C11   C     C_3   0.635464 0.816278 0.610503 -0.039903
C12   C     C_1   0.473033 0.572419 0.890100 0.230724
C13   C     C_1   0.331098 0.659883 0.722950 0.003580
C14   C     C_3   0.467410 0.538937 0.663051 -0.112678
C15   C     C_3   0.124996 0.877047 0.731139 -0.114524
C16   C     C_R   0.383265 0.788223 0.551086 0.561338
C17   C     C_R   0.303443 0.602178 0.897371 -0.039516
C18   C     C_3   0.217729 0.131621 0.724017 -0.123174
C19   C     C_3   0.244300 0.063524 0.753474 0.304799
C20   C     C_1   0.297816 0.198417 0.876416 0.005082
C21   C     C_1   0.361982 0.137367 0.613127 -0.007046
C22   C     C_3   0.288952 0.236520 0.758980 -0.143762
C23   C     C_3   0.314057 0.166853 0.788001 0.062968
C24   C     C_R   0.333519 0.666935 0.676083 0.010460
C25   C     C_3   0.397920 0.260029 0.734332 -0.120583
C26   C     C_3   0.327024 0.155470 0.700109 -0.004354
C27   C     C_3   0.423132 0.190654 0.763994 -0.132406
C28   C     C_R   0.396627 0.119016 0.569333 0.539975
C29   C     C_3   0.352201 0.086504 0.729295 0.018905
C30   C     C_1   0.306065 0.179356 0.836745 -0.004528
C31   C     C_1   0.341469 0.147922 0.651831 -0.049527
C32   C     C_3   0.895246 0.265601 0.733172 0.264434
C33   C     C_3   0.805288 0.248366 0.767422 -0.028559
C34   C     C_1   0.896902 0.204799 0.878767 0.008198
C35   C     C_R   0.249314 0.679438 0.655448 -0.154418
C36   C     C_1   0.764895 0.128732 0.614956 -0.005934
C37   C     C_3   0.939520 0.200897 0.757174 -0.149131
C38   C     C_3   0.847126 0.182634 0.791422 -0.021416
C39   C     C_3   0.851430 0.093585 0.727561 0.271582
C40   C     C_R   0.719901 0.095294 0.442482 0.550041
C41   C     C_3   0.809856 0.159170 0.703296 0.039601
C42   C     C_3   0.761196 0.075788 0.761559 0.284772
C43   C     C_3   0.717670 0.140920 0.737454 -0.184330
C44   C     C_1   0.869288 0.193806 0.839749 -0.007346
C45   C     C_1   0.789696 0.145559 0.654636 0.017522
C46   C     C_R   0.261776 0.708672 0.612690 -0.174853
C47   C     C_3   0.250071 0.614510 0.259541 0.301847
C48   C     C_3   0.278003 0.704840 0.230067 -0.147202
C49   C     C_1   0.308400 0.606474 0.111326 0.002053
C50   C     C_1   0.369643 0.738052 0.378102 0.004590
C51   C     C_3   0.314012 0.567590 0.230153 0.312466
C52   C     C_R   0.382876 0.784789 0.424365 0.542493
C53   C     C_3   0.342744 0.657378 0.200419 0.034055
C54   C     C_3   0.425300 0.642671 0.259619 -0.134530
C55   C     C_3   0.359717 0.689482 0.289096 0.028495
C56   C     C_3   0.454129 0.733513 0.229452 -0.142469
C57   C     C_R   0.245521 0.663630 0.834365 0.282422
C58   C     C_3   0.389553 0.780896 0.259871 -0.158473
C59   C     C_1   0.328099 0.634542 0.151324 -0.013045
C60   C     C_1   0.364362 0.711236 0.338122 -0.015377
C61   C     C_R   0.359798 0.136877 0.401278 -0.023230
C62   C     C_R   0.432265 0.235792 0.385317 -0.192192
C63   C     C_R   0.420769 0.246580 0.340743 -0.200828
C64   C     C_R   0.396180 0.115299 0.443220 0.549453
C65   C     C_R   0.336732 0.159118 0.311552 0.000339
C66   C     C_R   0.256902 0.063371 0.327565 0.296764
C67   C     C_R   0.265549 0.053917 0.373177 0.267103
C68   C     C_R   0.235317 0.640046 0.878959 -0.136598
C69   C     C_R   0.231438 0.109734 0.153830 -0.116338
C70   C     C_R   0.218482 0.123434 0.109598 0.218867
C71   C     C_R   0.420654 0.256638 0.113062 0.235649
C72   C     C_R   0.431071 0.242000 0.157574 -0.098657
C73   C     C_R   0.335780 0.171427 0.178051 -0.055844
C74   C     C_1   0.340412 0.168501 0.225074 -0.031795
C75   C     C_1   0.338823 0.165022 0.264599 -0.003666
C76   C     C_R   0.360889 0.729922 0.590554 -0.004698
C77   C     C_R   0.311936 0.204024 0.089883 0.025016
C78   C     C_R   0.774187 0.130705 0.400619 -0.028277
C79   C     C_R   0.393237 0.601707 0.872780 -0.038868
C80   C     C_R   0.774799 0.051315 0.366761 -0.198038
C81   C     C_R   0.792805 0.072525 0.322734 -0.185928
C82   C     C_R   0.809646 0.172782 0.311874 -0.009067
C83   C     C_R   0.817018 0.256057 0.345638 0.302842
C84   C     C_R   0.804580 0.236977 0.390551 0.273951
C85   C     C_R   0.843101 0.288864 0.160707 0.215302
C86   C     C_R   0.880260 0.298553 0.116800 -0.199062
C87   C     C_R   0.846708 0.109871 0.106508 0.278619
C88   C     C_R   0.443179 0.710096 0.610372 0.275553
C89   C     C_R   0.821867 0.104027 0.151638 0.247123
C90   C     C_R   0.403919 0.625749 0.829033 -0.171960
C91   C     C_R   0.823131 0.194439 0.178731 0.012929
C92   C     C_1   0.815279 0.192706 0.226149 0.058065
C93   C     C_1   0.812991 0.186358 0.265527 0.017063
C94   C     C_R   0.887676 0.211619 0.090376 -0.067017
C95   C     C_R   0.284268 0.232777 0.921984 0.530704
C96   C     C_R   0.267127 0.548008 0.938025 0.534179
C97   C     C_R   0.945318 0.222206 0.923079 0.535976
C98   C     C_R   0.291939 0.242639 0.049108 0.564188
C99   C     C_R   0.274823 0.558192 0.065208 0.542635
C100  C     C_R   0.425782 0.672961 0.652521 0.277015
C101  C     C_R   0.328219 0.651695 0.809589 0.034908
C102  C     C_R   0.951886 0.231855 0.049537 0.565895
C103  C     C_1   0.387162 0.006174 0.710082 0.173477
C104  C     C_1   0.781214 0.334059 0.789818 0.203865
C105  C     C_3   0.050230 0.439195 0.746080 -0.095694
C106  C     C_3   0.607903 0.900617 0.749559 -0.089082
C107  C     C_3   0.904465 0.961768 0.733011 -0.103798
C108  C     C_3   0.079442 0.679773 0.834099 -0.112625
C109  C     C_3   0.057847 0.502236 0.246066 -0.063621
C110  C     C_3   0.268233 0.394534 0.244859 -0.112158
C111  C     C_3   0.082192 0.959577 0.072660 -0.092580
Cr1   Cr    Cr6+3 0.583430 0.162610 0.509470 1.058176
Cr2   Cr    Cr6+3 0.584210 0.916680 0.495400 1.037521
Cr3   Cr    Cr6+3 0.332380 0.920740 0.495100 1.050054
Cr4   Cr    Cr6+3 0.086810 0.177030 0.983130 1.066175
Cr5   Cr    Cr6+3 0.337180 0.419300 0.994610 1.072087
Cr6   Cr    Cr6+3 0.084840 0.422330 0.995830 1.012355
H1    H     H_    0.171356 0.646053 0.899037 0.123866
H2    H     H_    0.537745 0.783299 0.216219 0.145270
H3    H     H_    0.485292 0.617984 0.272416 0.102260
H4    H     H_    0.157876 0.055180 0.170096 0.122791
H5    H     H_    0.176732 0.672323 0.673364 0.128973
H6    H     H_    0.503282 0.302358 0.406366 0.161576
H7    H     H_    0.512608 0.288637 0.176527 0.130653
H8    H     H_    0.481536 0.320940 0.328445 0.115210
H9    H     H_    0.909937 0.375963 0.104319 0.145330
H10   H     H_    0.753177 0.969799 0.373509 0.152879
H11   H     H_    0.197059 0.722550 0.598476 0.151989
H12   H     H_    0.134960 0.108093 0.706738 0.132657
H13   H     H_    0.787679 0.008359 0.296658 0.141909
H14   H     H_    0.468726 0.619692 0.809221 0.128047
H15   H     H_    0.117775 0.415351 0.746072 0.111066
H16   H     H_    0.023035 0.447159 0.780762 0.125009
H17   H     H_    0.086655 0.521415 0.735338 0.169946
H18   H     H_    0.632943 0.897319 0.714254 0.143330
H19   H     H_    0.535882 0.917758 0.751984 0.164619
H20   H     H_    0.578829 0.817947 0.759062 0.165410
H21   H     H_    0.831776 0.909187 0.751623 0.174516
H22   H     H_    0.976936 0.022696 0.756925 0.142441
H23   H     H_    0.506496 0.214062 0.780774 0.135500
H24   H     H_    0.931519 0.906900 0.713038 0.134147
H25   H     H_    0.099121 0.738845 0.865720 0.132565
H26   H     H_    0.029429 0.592916 0.840116 0.116141
H27   H     H_    0.025668 0.694624 0.811258 0.161097
H28   H     H_    0.071184 0.447285 0.219252 0.165741
H29   H     H_    0.044250 0.563943 0.231321 0.125395
H30   H     H_    0.979504 0.450289 0.262065 0.215293
H31   H     H_    0.220527 0.405596 0.273569 0.151557
H32   H     H_    0.355197 0.415668 0.256855 0.115058
H33   H     H_    0.223388 0.305954 0.230266 0.150611
H34   H     H_    0.460563 0.341351 0.725698 0.122621
H35   H     H_    0.144441 0.955032 0.049192 0.097833
H36   H     H_    0.998208 0.918369 0.053650 0.168190
H37   H     H_    0.075097 0.913593 0.100954 0.091991
H38   H     H_    0.215937 0.862721 0.309370 0.171535
H39   H     H_    0.273772 0.935128 0.261534 0.100251
H40   H     H_    0.127275 0.833210 0.259649 0.135424
H41   H     H_    0.055415 0.992529 0.381290 0.136950
H42   H     H_    0.134272 0.042659 0.436328 0.097024
H43   H     H_    0.038956 0.898619 0.419327 0.142135
H44   H     H_    0.494165 0.219602 0.036304 0.118462
H45   H     H_    0.263598 0.299127 0.772015 0.108879
H46   H     H_    0.575604 0.216770 0.083955 0.093279
H47   H     H_    0.635540 0.329061 0.052286 0.142689
H48   H     H_    0.715412 0.364119 0.143501 0.144854
H49   H     H_    0.854803 0.487223 0.147218 0.118318
H50   H     H_    0.761510 0.469594 0.191501 0.145462
H51   H     H_    0.690187 0.347066 0.359633 0.150993
H52   H     H_    0.680637 0.290447 0.300413 0.109878
H53   H     H_    0.753648 0.436401 0.318488 0.141645
H54   H     H_    0.987026 0.409478 0.422834 0.143218
H55   H     H_    0.933142 0.314089 0.463855 0.096319
H56   H     H_    0.628281 0.117503 0.728894 0.129397
H57   H     H_    0.925410 0.439429 0.472125 0.143668
H58   H     H_    0.871691 0.935611 0.198494 0.133033
H59   H     H_    0.950029 0.083113 0.206652 0.106048
H60   H     H_    0.941402 0.002990 0.152183 0.187098
H61   H     H_    0.723345 0.008989 0.033155 0.098803
H62   H     H_    0.666348 0.928858 0.079101 0.130927
H63   H     H_    0.732439 0.885951 0.034780 0.142879
H64   H     H_    0.666613 0.794855 0.639627 0.172123
H65   H     H_    0.621148 0.887658 0.621612 0.118193
H66   H     H_    0.703996 0.842722 0.586961 0.156379
H67   H     H_    0.029223 0.224931 0.765794 0.093296
H68   H     H_    0.459151 0.510285 0.626155 0.147271
H69   H     H_    0.385858 0.490616 0.678200 0.110746
H70   H     H_    0.531432 0.522664 0.678303 0.141446
H71   H     H_    0.184176 0.842884 0.727711 0.167310
H72   H     H_    0.112209 0.901132 0.698717 0.097014
H73   H     H_    0.042003 0.810053 0.738633 0.133759
H74   H     H_    0.218765 0.730003 0.216970 0.086260
H75   H     H_    0.422073 0.869413 0.273144 0.117306
N1    N     N_1   0.414012 0.942914 0.694168 -0.358876
N2    N     N_1   0.762278 0.401680 0.807473 -0.312327
N3    N     N_1   0.537270 0.549136 0.903803 -0.272390
O1    O     O_R   0.493980 0.188910 0.559650 -0.506488
O2    O     O_R   0.170560 0.527890 0.952050 -0.520900
O3    O     O_R   0.987620 0.318470 0.945550 -0.500778
O4    O     O_R   0.678640 0.153520 0.554450 -0.489122
O5    O     O_R   0.976400 0.159270 0.031530 -0.429025
O6    O     O_R   0.194000 0.188570 0.028560 -0.459700
O7    O     O_R   0.365260 0.335720 0.039020 -0.465113
O8    O     O_R   0.330440 0.515580 0.044910 -0.484493
O9    O     O_R   0.177310 0.536200 0.050190 -0.516508
O10   O     O_R   0.993870 0.326170 0.036530 -0.515221
O11   O     O_3   0.169610 0.339550 0.991190 -0.260482
O12   O     O_R   0.480180 0.824400 0.444640 -0.502813
O13   O     O_R   0.698130 0.004030 0.549500 -0.525421
O14   O     O_R   0.481060 0.827210 0.535360 -0.454009
O15   O     O_R   0.309260 0.811560 0.537660 -0.528233
O16   O     O_R   0.341620 0.023400 0.546290 -0.499104
O17   O     O_R   0.493030 0.185890 0.461780 -0.514728
O18   O     O_R   0.677760 0.150720 0.463730 -0.448795
O19   O     O_R   0.697180 0.001010 0.451640 -0.526950
O20   O     O_3   0.959286 0.363821 0.715161 -0.556820
O21   O     O_3   0.697646 0.978645 0.780333 -0.572958
O22   O     O_3   0.872385 0.012575 0.703039 -0.593296
O23   O     O_R   0.308310 0.808540 0.439800 -0.480514
O24   O     O_3   0.179549 0.698779 0.813057 -0.572577
O25   O     O_3   0.147831 0.553886 0.279451 -0.576551
O26   O     O_3   0.271857 0.456218 0.211037 -0.567924
O27   O     O_3   0.110539 0.069673 0.088545 -0.520989
O28   O     O_3   0.168302 0.980446 0.299089 -0.561217
O29   O     O_3   0.188583 0.958266 0.388408 -0.533774
O30   O     O_3   0.515769 0.330448 0.094363 -0.548838
O31   O     O_3   0.839476 0.374499 0.188830 -0.597027
O32   O     O_3   0.839607 0.357301 0.335057 -0.544078
O33   O     O_3   0.810829 0.319370 0.423407 -0.541919
O34   O     O_R   0.340740 0.020600 0.455570 -0.453315
O35   O     O_3   0.793618 0.008386 0.169141 -0.563974
O36   O     O_3   0.842835 0.019020 0.080181 -0.515233
O37   O     O_3   0.537995 0.723811 0.587918 -0.556488
O38   O     O_3   0.504762 0.652892 0.672374 -0.591717
O39   O     O_3   0.163687 0.964293 0.767466 -0.564037
O40   O     O_3   0.500010 0.000010 0.499990 -0.262148
O41   O     O_R   0.969650 0.150960 0.933380 -0.506416
O42   O     O_R   0.187740 0.180870 0.937580 -0.502709
O43   O     O_R   0.358510 0.327410 0.940870 -0.493610
O44   O     O_R   0.324180 0.507870 0.953930 -0.485090

loop_
_geom_bond_atom_site_label_1
_geom_bond_atom_site_label_2
_ccdc_geom_bond_type
C62   H6    S    
C7    H51   S    
C6    H49   S    
C64   O17   A    
C11   O37   S    
C105  O20   S    
C54   H3    S    
C99   O9    A    
C86   H9    S    
C33   C104  S    
C71   O30   S    
C73   C74   S    
C98   O6    A    
C109  H29   S    
C11   H64   S    
C108  H27   S    
C37   H67   S    
C110  H32   S    
C111  H35   S    
Cr3   O34   S    
C46   C76   A    
C81   C82   A    
C8    O33   S    
Cr6   O2    S    
C39   C41   S    
C20   C30   T    
C85   C86   A    
C28   O16   A    
C21   C31   T    
Cr5   O44   S    
C37   C38   S    
C10   H62   S    
Cr1   O17   S    
C2    C13   T    
C16   O14   A    
C38   C42   S    
C9    H58   S    
Cr6   O10   S    
C64   O34   A    
C14   H69   S    
C8    H57   S    
C4    H42   S    
C27   C29   S    
C52   O12   A    
C12   C79   S    
Cr5   O43   S    
C17   C79   A    
C34   C97   S    
C29   C103  S    
C9    H59   S    
C18   C19   S    
C95   O42   A    
C32   O20   S    
C1    O13   A    
Cr1   O1    S    
C48   H74   S    
C86   C94   A    
C68   H1    S    
C107  O22   S    
C108  O24   S    
C4    H41   S    
C47   C48   S    
C14   H70   S    
C79   C90   A    
C22   C25   S    
C18   C26   S    
C40   O18   A    
C15   H71   S    
C50   C52   S    
C32   C41   S    
C69   C73   A    
C23   C27   S    
C89   O35   S    
C39   C42   S    
Cr6   O9    S    
C23   C30   S    
C76   C88   A    
Cr1   O4    S    
C106  O21   S    
C53   C59   S    
C8    H54   S    
C87   C94   A    
C61   C62   A    
C106  H19   S    
C66   C67   A    
C15   H72   S    
C6    H48   S    
C26   C31   S    
C82   C93   S    
C18   C22   S    
C55   C60   S    
C72   H7    S    
C70   C77   A    
C41   C43   S    
C100  O38   S    
C109  H30   S    
C11   H65   S    
Cr2   O19   S    
Cr3   O23   S    
C22   H45   S    
C110  H31   S    
C108  H25   S    
Cr4   O41   S    
C111  H37   S    
C39   O22   S    
C105  H15   S    
C85   C91   A    
C48   C53   S    
C54   C56   S    
C24   C35   A    
C74   C75   T    
C10   H61   S    
C5    H47   S    
C36   C45   T    
C34   C44   T    
Cr6   O11   S    
C70   O27   S    
C91   C92   S    
Cr4   O42   S    
C14   H68   S    
C80   C81   A    
C106  H20   S    
C47   C51   S    
C57   O24   S    
C2    C101  S    
C25   C26   S    
C4    O29   S    
C97   O41   A    
C10   O36   S    
C13   C24   S    
C9    O35   S    
C51   C53   S    
C111  O27   S    
C33   C43   S    
Cr3   O16   S    
C61   C64   S    
C19   C23   S    
Cr2   O13   S    
C90   C101  A    
C38   C44   S    
C62   C63   A    
C102  O5    A    
C49   C99   S    
C61   C67   A    
C83   C84   A    
C69   H4    S    
C3    H38   S    
C11   H66   S    
C77   C98   S    
C17   C96   S    
C88   C100  A    
C32   C37   S    
C1    O4    A    
C111  H36   S    
C63   H8    S    
C5    O30   S    
C90   H14   S    
C106  H18   S    
C88   O37   S    
C15   H73   S    
C65   C66   A    
Cr5   O11   S    
C7    H52   S    
C58   H75   S    
C96   O44   A    
C40   C78   S    
C56   H2    S    
Cr4   O11   S    
C107  H24   S    
C42   C43   S    
C57   C68   A    
C84   O33   S    
C19   O39   S    
C5    H46   S    
C71   C77   A    
Cr5   O8    S    
C9    H60   S    
C105  H16   S    
C47   O25   S    
C53   C56   S    
C46   H11   S    
Cr2   O40   S    
C54   C55   S    
C17   C68   A    
C3    O28   S    
C99   O8    A    
C16   C76   S    
C97   O3    A    
C20   C95   S    
C35   H5    S    
C109  H28   S    
C87   O36   S    
C72   C73   A    
C110  H33   S    
C49   C59   T    
Cr5   O7    S    
C24   C100  A    
C48   C58   S    
Cr3   O40   S    
C83   O32   S    
C80   H10   S    
C25   C27   S    
Cr1   O40   S    
C57   C101  A    
Cr4   O5    S    
C52   O23   A    
C33   C38   S    
Cr2   O12   S    
C25   H34   S    
C51   C54   S    
C50   C60   T    
C12   N3    T    
Cr3   O15   S    
C107  H21   S    
C16   O15   A    
C10   H63   S    
C71   C72   A    
C37   C39   S    
C109  O25   S    
C32   C33   S    
C96   O2    A    
C43   H56   S    
Cr1   O18   S    
C81   H13   S    
C4    H43   S    
C7    O32   S    
C51   O26   S    
C98   O7    A    
C6    O31   S    
C15   O39   S    
C89   C91   A    
C92   C93   T    
C28   O1    A    
C56   C58   S    
Cr4   O6    S    
C78   C80   A    
C14   O38   S    
C107  H22   S    
C69   C70   A    
C102  O10   A    
C63   C65   A    
C42   O21   S    
Cr6   O3    S    
C21   C28   S    
C78   C84   A    
C47   C55   S    
C27   H23   S    
C3    H39   S    
C94   C102  S    
C26   C29   S    
C55   C58   S    
C82   C83   A    
C7    H53   S    
C40   O19   A    
C110  O26   S    
C3    H40   S    
C87   C89   A    
C41   C45   S    
C22   C23   S    
C66   O28   S    
C18   H12   S    
C85   O31   S    
C103  N1    T    
C67   O29   S    
C6    H50   S    
C35   C46   A    
C95   O43   A    
C108  H26   S    
C104  N2    T    
C65   C75   S    
C8    H55   S    
C1    C36   S    
C5    H44   S    
C105  H17   S    
Cr2   O14   S    
C19   C29   S    
