data_mof_unit_10806.cif
_audit_creation_date              2013-03-05T16:06:02-0500
_audit_creation_method            fapswitch 2.2
_symmetry_space_group_name_H-M    P1
_symmetry_Int_Tables_number       1
_space_group_crystal_system       triclinic
_cell_length_a                    10.548773
_cell_length_b                    15.084633
_cell_length_c                    15.442157
_cell_angle_alpha                 82.337772
_cell_angle_beta                  90.329199
_cell_angle_gamma                 104.940416
_cell_volume                      2351.90574143

loop_
_atom_site_label
_atom_site_type_symbol
_atom_site_description
_atom_site_fract_x
_atom_site_fract_y
_atom_site_fract_z
_atom_type_partial_charge
O1    O     O_R   0.462600 0.383110 0.605620 -0.631046
O2    O     O_R   0.537400 0.616890 0.394380 -0.630647
O3    O     O_R   0.510210 0.531900 0.639510 -0.606658
O4    O     O_R   0.489790 0.468100 0.360490 -0.611015
C1    C     C_R   0.484390 0.442147 0.662184 0.904110
C2    C     C_R   0.521364 0.558022 0.337802 0.883589
O5    O     O_R   0.662240 0.425610 0.483080 -0.593949
O6    O     O_R   0.337760 0.574390 0.516920 -0.593512
O7    O     O_R   0.709860 0.574400 0.516970 -0.633905
O8    O     O_R   0.290140 0.425600 0.483030 -0.640386
C3    C     C_R   0.742652 0.501743 0.498779 0.946973
C4    C     C_R   0.257528 0.498389 0.500695 0.947702
Zn1   Zn    Zn3+2 0.468210 0.400660 0.477370 0.969430
Zn2   Zn    Zn3+2 0.531790 0.599340 0.522630 0.969924
C5    C     C_3   0.929649 0.432521 0.559805 -0.291025
C6    C     C_3   0.070896 0.567314 0.438701 -0.296862
C7    C     C_3   0.045173 0.512902 0.577279 0.392237
C8    C     C_3   0.955279 0.486985 0.421251 0.392968
H1    H     H_    0.869885 0.378880 0.610240 0.168878
H2    H     H_    0.130716 0.620972 0.388307 0.167703
C9    C     C_3   0.122116 0.496542 0.500563 -0.128122
C10   C     C_3   0.878313 0.503492 0.498053 -0.125400
C11   C     C_3   0.007906 0.415777 0.481124 -0.251076
C12   C     C_3   0.992851 0.584136 0.517334 -0.253196
H3    H     H_    0.016581 0.347915 0.465164 0.180861
H4    H     H_    0.988409 0.653113 0.532171 0.169673
C13   C     C_R   0.496066 0.408642 0.754428 -0.042392
C14   C     C_R   0.553209 0.593055 0.245427 -0.037044
C15   C     C_R   0.515216 0.289194 0.871078 -0.185362
C16   C     C_R   0.629370 0.717839 0.127070 -0.186482
C17   C     C_R   0.491433 0.315989 0.783812 -0.202886
C18   C     C_R   0.593500 0.687863 0.214959 -0.200800
C19   C     C_R   0.526050 0.473757 0.812256 -0.209340
C20   C     C_R   0.552522 0.529088 0.188225 -0.160110
C21   C     C_R   0.559964 0.450129 0.898001 0.064838
C22   C     C_R   0.594139 0.557133 0.101003 0.065529
C23   C     C_R   0.547857 0.355383 0.929682 0.157104
C24   C     C_R   0.627449 0.653215 0.068513 0.148595
C25   C     C_R   0.597041 0.518701 0.953962 0.021121
C26   C     C_R   0.593116 0.490619 0.044409 0.017068
C27   C     C_R   0.586803 0.396934 0.075429 -0.188143
C28   C     C_R   0.637372 0.614335 0.922129 -0.187282
C29   C     C_R   0.567136 0.329655 0.018985 0.170250
C30   C     C_R   0.655491 0.681637 0.978385 0.184251
H5    H     H_    0.514768 0.456587 0.212162 0.158374
H6    H     H_    0.519536 0.543269 0.789902 0.171620
H7    H     H_    0.596534 0.738761 0.258739 0.160081
H8    H     H_    0.469883 0.264412 0.739541 0.156798
H9    H     H_    0.507914 0.216636 0.891811 0.152641
H10   H     H_    0.656960 0.791645 0.105597 0.153748
H11   H     H_    0.601170 0.375325 0.143517 0.174404
H12   H     H_    0.658870 0.637879 0.853312 0.150698
N1    N     N_R   0.574200 0.731700 0.552740 -0.098164
N2    N     N_R   0.425800 0.268300 0.447260 -0.097872
C31   C     C_R   0.685343 0.843591 0.642866 -0.294465
C32   C     C_R   0.312138 0.154838 0.359323 -0.304039
C33   C     C_R   0.666288 0.757600 0.614341 0.321293
C34   C     C_R   0.341301 0.244135 0.380797 0.335701
C35   C     C_R   0.506423 0.791171 0.514976 -0.085121
C36   C     C_R   0.479457 0.204773 0.493901 -0.091004
C37   C     C_R   0.529513 0.882188 0.537684 -0.005940
C38   C     C_R   0.449801 0.111799 0.475283 -0.005478
C39   C     C_R   0.618437 0.905985 0.604781 0.137912
C40   C     C_R   0.364665 0.088704 0.406073 0.133713
C41   C     C_R   0.470472 0.950622 0.495438 0.093592
C42   C     C_R   0.502388 0.041652 0.521292 0.093857
C43   C     C_R   0.586605 0.059648 0.591578 -0.229548
C44   C     C_R   0.383403 0.931747 0.426770 -0.228961
C45   C     C_R   0.643648 0.992945 0.632209 -0.194320
C46   C     C_R   0.331585 0.999652 0.383214 -0.196247
H13   H     H_    0.710310 0.010287 0.684751 0.146458
H14   H     H_    0.265578 0.982363 0.330315 0.146435
H15   H     H_    0.544616 0.228894 0.544528 0.131628
H16   H     H_    0.436372 0.765548 0.467471 0.133782
H17   H     H_    0.756489 0.863488 0.692446 0.144208
H18   H     H_    0.246645 0.136753 0.306230 0.155288
H19   H     H_    0.611839 0.125099 0.616513 0.136400
H20   H     H_    0.353707 0.865223 0.404123 0.137709
N3    N     N_R   0.092346 0.526343 0.664737 0.207547
O9    O     O_R   0.015290 0.542742 0.722582 -0.390527
O10   O     O_R   0.208183 0.517906 0.686895 -0.398868
N4    N     N_R   0.907934 0.473461 0.333859 0.205631
O11   O     O_R   0.985231 0.457919 0.275665 -0.395793
O12   O     O_R   0.790930 0.479779 0.312444 -0.410716
C47   C     C_3   0.274690 0.308865 0.327113 -0.812656
H21   H     H_    0.282806 0.374605 0.351067 0.285478
H22   H     H_    0.314866 0.323171 0.258899 0.215054
H23   H     H_    0.167715 0.275633 0.326056 0.220184
C48   C     C_3   0.756124 0.699135 0.648858 -0.793224
H24   H     H_    0.702392 0.629350 0.678617 0.256691
H25   H     H_    0.823343 0.696301 0.595449 0.242258
H26   H     H_    0.819288 0.729805 0.700786 0.204141
C49   C     C_3   0.561817 0.230949 0.056207 -0.912789
H27   H     H_    0.580243 0.223723 0.127381 0.251563
H28   H     H_    0.463245 0.185317 0.046689 0.237772
H29   H     H_    0.637770 0.207254 0.023061 0.247431
C50   C     C_3   0.698866 0.782576 0.940184 -0.920137
H30   H     H_    0.718221 0.791775 0.868466 0.241303
H31   H     H_    0.621141 0.817457 0.952067 0.242962
H32   H     H_    0.790914 0.816770 0.970732 0.245348

loop_
_geom_bond_atom_site_label_1
_geom_bond_atom_site_label_2
_geom_bond_distance
_ccdc_geom_bond_type
C49   H27   1.110925 S    
C32   H18   1.086217 S    
C21   C25   1.412631 A    
C43   H19   1.076380 S    
C50   H30   1.111070 S    
N1    C35   1.357371 A    
N2    C36   1.359548 A    
C47   H21   1.086853 S    
C13   C19   1.390217 A    
O5    C3    1.291033 A    
C6    C9    1.537438 S    
C33   C48   1.503247 S    
O1    C1    1.307071 A    
C21   C23   1.420725 A    
C12   H4    1.107312 S    
C36   H15   1.075535 S    
C7    N3    1.458069 S    
C16   C24   1.411756 A    
C36   C38   1.423976 A    
O4    Zn1   1.933910 S    
C45   H13   1.084626 S    
C38   C40   1.413173 A    
C19   C21   1.393809 A    
C1    C13   1.462112 S    
C5    C10   1.539308 S    
C2    C14   1.462827 S    
C39   C45   1.392059 A    
C31   C39   1.385632 A    
C32   C40   1.382670 A    
C40   C46   1.390758 A    
C48   H25   1.102994 S    
C6    H2    1.110508 S    
C31   H17   1.085371 S    
C5    C11   1.556397 S    
C42   C43   1.408567 A    
C16   H10   1.081552 S    
C14   C20   1.391046 A    
C6    C12   1.554998 S    
C19   H6    1.078768 S    
C27   C29   1.399280 A    
O2    C2    1.306999 A    
C28   C30   1.398244 A    
C8    N4    1.457879 S    
C50   H31   1.110263 S    
C25   C28   1.414421 A    
C47   H22   1.110465 S    
C44   H20   1.075939 S    
C35   C37   1.422052 A    
C7    C12   1.533249 S    
C38   C42   1.424723 A    
C13   C17   1.399138 A    
C8    C11   1.534135 S    
C14   C18   1.398840 A    
O4    C2    1.309679 A    
C25   C26   1.402068 A    
N3    O10   1.300070 A    
N1    C33   1.376219 A    
C15   H9    1.081557 S    
C4    C9    1.421497 S    
C7    C9    1.521650 S    
C43   C45   1.381187 A    
C23   C29   1.410137 A    
C5    H1    1.110546 S    
O7    Zn2   2.013128 S    
C24   C30   1.410164 A    
C30   C50   1.509995 S    
C22   C26   1.413760 A    
O6    C4    1.291225 A    
C41   C44   1.408380 A    
C37   C39   1.413049 A    
C20   H5    1.077318 S    
C48   H26   1.111235 S    
O7    C3    1.295573 A    
C35   H16   1.075034 S    
O3    Zn2   1.933910 S    
O8    C4    1.293866 A    
C6    C8    1.532853 S    
C26   C27   1.415041 A    
C41   C42   1.436867 A    
C49   H29   1.110335 S    
N4    O12   1.299756 A    
C17   H8    1.083148 S    
C31   C33   1.390648 A    
C18   H7    1.083083 S    
C10   C12   1.537169 S    
O1    Zn1   1.961953 S    
C34   C47   1.505204 S    
C50   H32   1.110296 S    
Zn1   N2    2.046299 S    
N2    C34   1.379301 A    
C47   H23   1.111415 S    
C5    C7    1.532866 S    
O6    Zn2   1.987032 S    
C8    C10   1.523747 S    
O3    C1    1.309328 A    
O8    Zn1   2.013126 S    
C3    C10   1.424565 S    
C9    C11   1.537008 S    
C15   C17   1.394780 A    
C16   C18   1.394137 A    
C49   H28   1.110313 S    
C22   C24   1.421737 A    
C29   C49   1.509813 S    
C32   C34   1.386830 A    
C20   C22   1.394601 A    
C11   H3    1.110345 S    
O2    Zn2   1.961950 S    
N3    O9    1.300292 A    
C37   C41   1.423514 A    
O5    Zn1   1.987033 S    
Zn2   N1    2.046300 S    
C44   C46   1.378843 A    
N4    O11   1.300206 A    
C15   C23   1.412258 A    
C46   H14   1.084789 S    
C48   H24   1.098603 S    
C27   H11   1.080264 S    
C28   H12   1.080489 S    
