data_mof_unit_34211.cif
_audit_creation_date              2013-03-05T16:31:42-0500
_audit_creation_method            fapswitch 2.2
_symmetry_space_group_name_H-M    P1
_symmetry_Int_Tables_number       1
_space_group_crystal_system       triclinic
_cell_length_a                    14.22922
_cell_length_b                    14.950497
_cell_length_c                    15.478639
_cell_angle_alpha                 90.385542
_cell_angle_beta                  67.330759
_cell_angle_gamma                 88.972971
_cell_volume                      3037.62413054

loop_
_atom_site_label
_atom_site_type_symbol
_atom_site_description
_atom_site_fract_x
_atom_site_fract_y
_atom_site_fract_z
_atom_type_partial_charge
O1    O     O_R   0.420530 0.630930 0.499990 -0.575963
O2    O     O_R   0.579470 0.369070 0.500010 -0.570059
O3    O     O_R   0.579480 0.630940 0.499990 -0.631041
O4    O     O_R   0.420520 0.369060 0.500010 -0.643888
C1    C     C_R   0.500242 0.672249 0.498087 0.942374
C2    C     C_R   0.501467 0.327779 0.498260 0.936870
O5    O     O_R   0.375120 0.499990 0.632240 -0.566568
O6    O     O_R   0.624880 0.500010 0.367760 -0.579562
O7    O     O_R   0.534080 0.500000 0.632240 -0.642778
O8    O     O_R   0.465920 0.500000 0.367760 -0.632879
C3    C     C_R   0.436292 0.499281 0.676360 0.880401
C4    C     C_R   0.563765 0.498098 0.323692 0.874484
Zn1   Zn    Zn3+2 0.393860 0.499990 0.500000 0.992795
Zn2   Zn    Zn3+2 0.606140 0.500010 0.500000 0.992379
C5    C     C_R   0.398185 0.485821 0.777351 -0.055076
C6    C     C_R   0.603977 0.488153 0.221865 -0.064649
C7    C     C_R   0.276917 0.424997 0.920423 -0.199964
C8    C     C_R   0.738688 0.498696 0.068706 -0.196441
C9    C     C_R   0.301518 0.452153 0.828189 -0.173627
C10   C     C_R   0.705673 0.504684 0.165857 -0.136587
C11   C     C_R   0.468025 0.494255 0.819721 -0.256759
C12   C     C_R   0.536875 0.462153 0.180674 -0.262647
C13   C     C_R   0.449103 0.459202 0.907817 0.092492
C14   C     C_R   0.567509 0.456899 0.083596 0.092663
C15   C     C_R   0.350407 0.427741 0.960398 0.166931
C16   C     C_R   0.669610 0.477804 0.027214 0.164513
C17   C     C_R   0.525323 0.457414 0.945507 0.070422
C18   C     C_R   0.496816 0.439329 0.041646 0.070874
C19   C     C_R   0.398207 0.406293 0.092526 -0.226349
C20   C     C_R   0.629183 0.472304 0.889984 -0.229875
C21   C     C_R   0.326883 0.399354 0.051741 -0.223847
C22   C     C_R   0.700385 0.480827 0.930394 -0.228533
H1    H     H_    0.252333 0.373535 0.092590 0.156790
H2    H     H_    0.778825 0.494015 0.885998 0.150619
H3    H     H_    0.458757 0.451325 0.225768 0.160285
H4    H     H_    0.538248 0.527755 0.781874 0.148216
H5    H     H_    0.758368 0.525116 0.196848 0.200715
H6    H     H_    0.246499 0.444741 0.796147 0.171317
H7    H     H_    0.201660 0.399708 0.959568 0.150881
H8    H     H_    0.817003 0.514021 0.026005 0.150024
H9    H     H_    0.374993 0.382743 0.163297 0.144016
H10   H     H_    0.657889 0.475952 0.814614 0.147809
C23   C     C_R   0.417668 0.911098 0.512884 0.494482
C24   C     C_R   0.574213 0.090177 0.513046 0.497376
C25   C     C_R   0.414391 0.818963 0.520098 -0.276602
C26   C     C_R   0.571071 0.182633 0.519930 -0.276408
H11   H     H_    0.341807 0.787846 0.554350 0.245552
H12   H     H_    0.615947 0.215465 0.553188 0.187199
C27   C     C_R   0.504179 0.767788 0.487349 -0.204657
C28   C     C_R   0.507438 0.232092 0.487771 -0.172180
C29   C     C_R   0.598290 0.807571 0.441554 -0.295465
C30   C     C_R   0.452468 0.190539 0.441689 -0.297274
H13   H     H_    0.668153 0.767607 0.414654 0.191198
H14   H     H_    0.404974 0.229280 0.414627 0.176277
C31   C     C_R   0.603220 0.899024 0.428264 0.478068
C32   C     C_R   0.460144 0.098867 0.427845 0.479860
C33   C     C_R   0.512864 0.951444 0.466532 -0.122350
C34   C     C_R   0.518313 0.048029 0.466528 -0.123940
C35   C     C_R   0.861812 0.533446 0.577162 -0.271274
C36   C     C_R   0.125762 0.428256 0.456344 -0.266897
H15   H     H_    0.870830 0.560171 0.638587 0.147938
H16   H     H_    0.106389 0.371971 0.422575 0.153521
C37   C     C_R   0.763843 0.535018 0.574601 -0.055712
C38   C     C_R   0.224817 0.431482 0.456519 -0.058257
H17   H     H_    0.700733 0.564050 0.633074 0.144288
H18   H     H_    0.279514 0.378511 0.422021 0.143933
N1    N     N_R   0.747530 0.500020 0.500000 -0.142613
N2    N     N_R   0.252470 0.499980 0.500000 -0.141803
C39   C     C_R   0.828395 0.463361 0.425738 0.447206
C40   C     C_R   0.182584 0.567400 0.543595 0.458019
C41   C     C_R   0.927545 0.462334 0.425568 -0.306378
C42   C     C_R   0.083749 0.566484 0.543373 -0.309972
H19   H     H_    0.989880 0.434496 0.365399 0.174640
H20   H     H_    0.031163 0.621213 0.576900 0.181894
C43   C     C_R   0.946121 0.496708 0.501710 0.104400
C44   C     C_R   0.052834 0.496460 0.500774 0.096269
N3    N     N_R   0.814184 0.424673 0.347008 0.199807
O9    O     O_R   0.757210 0.355222 0.358789 -0.372982
O10   O     O_R   0.878491 0.442017 0.262944 -0.446079
N4    N     N_R   0.207496 0.640218 0.590769 0.193562
O11   O     O_R   0.236074 0.624031 0.659411 -0.400388
O12   O     O_R   0.174016 0.720389 0.584017 -0.439034
O13   O     O_3   0.326309 0.959419 0.543442 -0.579028
C45   C     C_3   0.304098 0.997669 0.633235 0.092610
H21   H     H_    0.244087 0.050110 0.644420 0.186269
H22   H     H_    0.369894 0.032707 0.638402 0.099050
C46   C     C_3   0.263140 0.928280 0.710799 -0.365766
H23   H     H_    0.201975 0.889833 0.700588 0.273477
H24   H     H_    0.325528 0.880945 0.707574 0.210252
C47   C     C_3   0.220342 0.973098 0.807474 -0.935538
H25   H     H_    0.279647 0.013339 0.818615 0.260614
H26   H     H_    0.194664 0.921192 0.862163 0.275485
H27   H     H_    0.154184 0.017416 0.814610 0.268042
O14   O     O_3   0.639796 0.043163 0.544112 -0.590284
C48   C     C_3   0.586308 0.007251 0.633771 0.105789
H28   H     H_    0.637499 0.956169 0.645737 0.186727
H29   H     H_    0.517283 0.971049 0.638005 0.102349
C49   C     C_3   0.559601 0.079008 0.711490 -0.405760
H30   H     H_    0.628301 0.118320 0.702247 0.244518
H31   H     H_    0.499469 0.125194 0.707378 0.206178
C50   C     C_3   0.520662 0.037000 0.808231 -0.928530
H32   H     H_    0.453069 0.995912 0.818434 0.262371
H33   H     H_    0.498575 0.090525 0.862950 0.269746
H34   H     H_    0.581145 0.994023 0.816342 0.268437
O15   O     O_3   0.698021 0.936554 0.385651 -0.588405
C51   C     C_3   0.713760 0.958460 0.292609 0.070683
H35   H     H_    0.669483 0.020275 0.292107 0.132992
H36   H     H_    0.691616 0.902894 0.256176 0.117593
C52   C     C_3   0.826577 0.976575 0.238812 -0.282510
H37   H     H_    0.850274 0.031284 0.274542 0.247554
H38   H     H_    0.872383 0.915332 0.238048 0.224769
C53   C     C_3   0.847722 0.003533 0.138205 -0.954919
H39   H     H_    0.825836 0.949277 0.100693 0.263836
H40   H     H_    0.930249 0.015876 0.100936 0.272069
H41   H     H_    0.804235 0.065768 0.137383 0.270817
O16   O     O_3   0.403045 0.059520 0.383629 -0.590496
C54   C     C_3   0.466300 0.040204 0.289431 0.066495
H42   H     H_    0.511808 0.978053 0.285691 0.129713
H43   H     H_    0.518435 0.096247 0.256532 0.123696
C55   C     C_3   0.399593 0.024640 0.233775 -0.287889
H44   H     H_    0.347395 0.968701 0.265055 0.243127
H45   H     H_    0.352821 0.085993 0.237403 0.221916
C56   C     C_3   0.463981 0.001888 0.131353 -0.969326
H46   H     H_    0.515600 0.057620 0.098192 0.266886
H47   H     H_    0.413382 0.991113 0.092853 0.271922
H48   H     H_    0.510087 0.939797 0.125997 0.266461

loop_
_geom_bond_atom_site_label_1
_geom_bond_atom_site_label_2
_geom_bond_distance
_ccdc_geom_bond_type
C15   C21   1.392666 A    
C20   C22   1.387813 A    
C46   H23   1.111578 S    
C37   H17   1.080840 S    
C16   C22   1.391211 A    
C50   H32   1.110281 S    
C23   O13   1.386825 S    
C39   N3    1.430086 S    
C48   H28   1.110892 S    
C8    C16   1.403960 A    
C45   C46   1.535044 S    
C42   C44   1.398241 A    
C53   H40   1.110330 S    
C47   H25   1.110295 S    
C48   C49   1.535619 S    
C56   H46   1.110986 S    
C11   H4    1.078500 S    
N3    O9    1.299002 A    
O5    C3    1.296960 A    
C12   H3    1.076517 S    
C31   O15   1.384124 S    
O1    C1    1.291734 A    
C38   N2    1.365957 A    
C18   C19   1.418181 A    
C14   C16   1.418663 A    
C54   H43   1.117361 S    
C56   H47   1.110432 S    
C51   H35   1.110876 S    
O16   C54   1.411695 S    
C36   H16   1.082017 S    
C7    H7    1.083624 S    
O4    Zn1   1.987214 S    
C39   C41   1.409618 A    
C8    H8    1.083788 S    
C3    C5    1.460451 S    
C4    C6    1.460251 S    
C24   C34   1.414756 A    
C27   C29   1.397136 A    
C28   C30   1.395715 A    
Zn2   N1    2.011872 S    
C21   H1    1.083986 S    
C13   C17   1.415693 A    
C29   C31   1.383033 A    
C55   C56   1.526576 S    
C6    C10   1.398337 A    
C25   H11   1.078273 S    
C50   H33   1.110475 S    
C17   C20   1.416882 A    
C1    C27   1.438701 S    
O2    C2    1.288902 A    
O6    Zn2   1.959633 S    
C53   H39   1.110935 S    
C30   H14   1.084027 S    
C26   H12   1.083935 S    
N3    O10   1.301118 A    
C11   C13   1.392189 A    
C37   N1    1.365231 A    
C35   H15   1.082060 S    
C40   N4    1.430618 S    
C45   H21   1.110872 S    
C42   H20   1.082457 S    
C54   C55   1.527344 S    
C41   H19   1.082640 S    
O7    Zn2   1.903509 S    
C56   H48   1.110941 S    
C24   C26   1.384245 A    
C36   C44   1.411406 A    
C29   H13   1.083926 S    
C38   H18   1.081626 S    
C5    C9    1.400133 A    
C43   C44   1.512862 S    
C9    H6    1.082959 S    
C23   C25   1.382903 A    
C47   H26   1.110361 S    
O13   C45   1.415234 S    
C25   C27   1.391104 A    
O6    C4    1.296223 A    
C32   O16   1.383795 S    
C2    C28   1.435966 S    
O7    C3    1.292588 A    
O3    Zn2   1.987214 S    
O8    C4    1.292582 A    
O4    C2    1.287836 A    
C50   H34   1.110786 S    
C49   H31   1.111015 S    
C31   C33   1.410198 A    
C12   C14   1.395139 A    
C52   C53   1.526318 S    
O1    Zn1   2.000720 S    
C35   C43   1.411596 A    
C55   H44   1.111767 S    
C55   H45   1.111774 S    
C47   H27   1.110809 S    
C6    C12   1.395876 A    
C19   H9    1.078660 S    
C14   C18   1.418847 A    
C45   H22   1.109970 S    
N4    O11   1.298369 A    
O3    C1    1.286241 A    
O8    Zn1   1.903509 S    
C48   H29   1.109872 S    
C49   C50   1.526196 S    
O15   C51   1.411336 S    
C26   C28   1.393828 A    
C35   C37   1.409560 A    
C36   C38   1.412220 A    
C7    C15   1.406422 A    
C52   H38   1.111671 S    
C19   C21   1.391420 A    
C54   H42   1.111238 S    
C41   C43   1.399951 A    
C10   H5    1.081264 S    
C33   C34   1.447464 S    
C5    C11   1.392603 A    
C51   H36   1.116901 S    
C7    C9    1.397587 A    
N4    O12   1.301583 A    
C32   C34   1.409563 A    
C8    C10   1.393611 A    
C13   C15   1.415514 A    
O14   C48   1.415623 S    
O2    Zn2   2.000717 S    
C24   O14   1.386749 S    
C23   C33   1.414012 A    
O5    Zn1   1.959632 S    
N2    C40   1.377635 A    
C49   H30   1.111488 S    
C46   C47   1.525937 S    
C17   C18   1.412855 A    
C46   H24   1.110957 S    
C20   H10   1.079431 S    
C40   C42   1.407989 A    
N1    C39   1.376609 A    
C52   H37   1.111804 S    
Zn1   N2    2.011872 S    
C53   H41   1.111028 S    
C30   C32   1.381615 A    
C22   H2    1.084144 S    
C51   C52   1.527079 S    
