data_mof_unit_28161.cif
_audit_creation_date              2012-10-26T18:27:31-0400
_audit_creation_method            fapswitch 2.2
_symmetry_space_group_name_H-M    P1
_symmetry_Int_Tables_number       1
_space_group_crystal_system       triclinic
_cell_length_a                    10.943715
_cell_length_b                    11.073783
_cell_length_c                    9.905112
_cell_angle_alpha                 109.370786
_cell_angle_beta                  98.932246
_cell_angle_gamma                 90.900067
_cell_volume                      1115.78636227

loop_
_atom_site_label
_atom_site_type_symbol
_atom_type_description
_atom_site_fract_x
_atom_site_fract_y
_atom_site_fract_z
_atom_type_partial_charge
C1    C     C_R   0.486389 0.254972 0.444711 0.573296
C2    C     C_2   0.464451 0.937308 0.515001 -0.150799
C3    C     C_2   0.508262 0.516214 0.086245 0.083119
C4    C     C_R   0.262274 0.496439 0.500101 0.540634
C5    C     C_2   0.486807 0.500083 0.926524 -0.004842
C6    C     C_R   0.515983 0.743018 0.555914 0.546721
C7    C     C_R   0.736884 0.494517 0.498334 0.549984
C8    C     C_R   0.151603 0.426077 0.721839 -0.005587
C9    C     C_R   0.104377 0.442431 0.849185 0.233427
C10   C     C_R   0.976861 0.409942 0.834183 0.260431
C11   C     C_R   0.901932 0.399222 0.702098 0.015561
C12   C     C_R   0.077836 0.458231 0.610810 -0.058921
C13   C     C_R   0.948147 0.449992 0.604647 -0.063806
C14   C     C_3   0.523099 0.004574 0.207277 0.011091
C15   C     C_3   0.470078 0.988507 0.050718 -0.259866
C16   C     C_3   0.571623 0.972309 0.959641 -0.442524
C17   C     C_1   0.595405 0.617846 0.185693 0.284694
C18   C     C_1   0.675792 0.603197 0.927758 0.388131
C19   C     C_1   0.217290 0.312378 0.674628 0.204453
C20   C     C_3   0.163033 0.591922 0.074666 0.002948
C21   C     C_3   0.207127 0.702957 0.028922 -0.281343
C22   C     C_3   0.171705 0.831323 0.126808 -0.451729
C23   C     C_R   0.127732 0.487208 0.500165 0.007829
C24   C     C_3   0.979828 0.283920 0.978988 0.025283
C25   C     C_3   0.887666 0.221273 0.041245 -0.255325
C26   C     C_3   0.944213 0.114598 0.090643 -0.476886
C27   C     C_1   0.811114 0.292245 0.642011 0.259053
C28   C     C_1   0.519911 0.154091 0.691871 0.262434
C29   C     C_1   0.670829 0.927764 0.648658 0.213091
C30   C     C_R   0.047326 0.510612 0.388504 -0.148960
C31   C     C_R   0.920585 0.510462 0.387507 -0.144595
C32   C     C_R   0.869814 0.482127 0.495537 0.004478
C33   C     C_2   0.469144 0.117119 0.425256 0.261032
C34   C     C_2   0.484674 0.073683 0.539920 0.021920
C35   C     C_2   0.545910 0.875226 0.578073 -0.042225
Cu1   Cu    Cu3+1 0.521920 0.521810 0.644910 0.992973
Cu2   Cu    Cu3+1 0.478080 0.478190 0.355090 0.967691
H1    H     H_    0.082738 0.533215 0.303477 0.127201
H2    H     H_    0.640605 0.056228 0.004264 0.157874
H3    H     H_    0.527213 0.966798 0.849930 0.168716
H4    H     H_    0.618516 0.883002 0.954183 0.172668
H5    H     H_    0.217222 0.604010 0.183274 0.171349
H6    H     H_    0.063754 0.598160 0.087603 0.173974
H7    H     H_    0.309456 0.705037 0.035474 0.168206
H8    H     H_    0.164126 0.689894 0.915361 0.170658
H9    H     H_    0.069369 0.831355 0.119534 0.158790
H10   H     H_    0.203601 0.910099 0.091840 0.177620
H11   H     H_    0.215196 0.849571 0.241282 0.176169
H12   H     H_    0.404791 0.442560 0.861380 0.173796
H13   H     H_    0.063753 0.322239 0.063253 0.181137
H14   H     H_    0.005908 0.208545 0.882929 0.143845
H15   H     H_    0.857848 0.294598 0.135089 0.180405
H16   H     H_    0.804312 0.180890 0.956944 0.209890
H17   H     H_    0.972372 0.038507 0.997703 0.169767
H18   H     H_    0.874719 0.071170 0.134858 0.154332
H19   H     H_    0.026459 0.153931 0.177151 0.161874
H20   H     H_    0.384878 0.372395 0.063996 0.241629
H21   H     H_    0.862300 0.534594 0.302615 0.168321
H22   H     H_    0.378273 0.887437 0.447864 0.144659
H23   H     H_    0.561111 0.913440 0.212340 0.166948
H24   H     H_    0.601224 0.080855 0.246495 0.137100
H25   H     H_    0.402732 0.903114 0.003833 0.160649
H26   H     H_    0.420759 0.074776 0.047205 0.195160
N1    N     N_2   0.445130 0.445430 0.137370 -0.357656
N2    N     N_2   0.554930 0.554500 0.862630 -0.291580
N3    N     N_1   0.666087 0.699506 0.263713 -0.314320
N4    N     N_1   0.776572 0.643718 0.980500 -0.313233
N5    N     N_1   0.265565 0.218223 0.635070 -0.330354
N6    N     N_1   0.742907 0.202456 0.590096 -0.317091
N7    N     N_1   0.548382 0.216440 0.812917 -0.312712
N8    N     N_1   0.770826 0.968600 0.704597 -0.300722
O1    O     O_R   0.511700 0.332330 0.577400 -0.500703
O2    O     O_3   0.185257 0.470146 0.979005 -0.611110
O3    O     O_3   0.924057 0.385656 0.942116 -0.564548
O4    O     O_R   0.474680 0.295500 0.332650 -0.491862
O5    O     O_R   0.338160 0.518420 0.622400 -0.510033
O6    O     O_R   0.301140 0.481590 0.377650 -0.512087
O7    O     O_R   0.525320 0.704500 0.667350 -0.511283
O8    O     O_R   0.488300 0.667670 0.422600 -0.495397
O9    O     O_R   0.698860 0.518410 0.622350 -0.493843
O10   O     O_R   0.661840 0.481580 0.377600 -0.503321
O11   O     O_3   0.425355 0.031603 0.287825 -0.603746

loop_
_geom_bond_atom_site_label_1
_geom_bond_atom_site_label_2
_ccdc_geom_bond_type
C2    C35   D    
C22   H11   S    
C11   C13   A    
C13   C32   A    
Cu2   O10   S    
C26   H18   S    
Cu2   N1    S    
C1    C33   S    
C3    N1    D    
C18   N2    S    
Cu2   O8    S    
C12   C23   A    
C17   N3    T    
C31   H21   S    
Cu1   Cu2   S    
C25   H16   S    
C30   C31   A    
C6    O7    A    
C15   C16   S    
C6    C35   S    
C30   H1    S    
Cu1   O5    S    
C8    C9    A    
C9    C10   A    
C27   N6    T    
C2    C34   S    
C24   H14   S    
C22   H10   S    
Cu2   O4    S    
C28   C34   S    
C21   C22   S    
C5    H12   S    
C9    O2    S    
C26   H17   S    
C21   H8    S    
C24   H13   S    
C8    C19   S    
C1    O1    A    
C23   C30   A    
C24   C25   S    
C5    N2    D    
Cu1   O9    S    
C4    C23   S    
Cu1   N2    S    
C18   N4    T    
C14   H24   S    
Cu2   O6    S    
C1    O4    A    
C21   H7    S    
C31   C32   A    
C11   C27   S    
C8    C12   A    
C33   C34   D    
C19   N5    T    
C20   C21   S    
C16   H3    S    
C7    O10   A    
C14   O11   S    
C20   H6    S    
H20   N1    S    
C33   O11   S    
C7    C32   S    
C22   H9    S    
C2    H22   S    
C28   N7    T    
C3    C5    S    
C26   H19   S    
C20   H5    S    
C14   H23   S    
C29   C35   S    
C25   C26   S    
C25   H15   S    
C4    O6    A    
Cu1   O7    S    
C10   O3    S    
C24   O3    S    
C6    O8    A    
C15   H25   S    
C20   O2    S    
C3    C17   S    
C4    O5    A    
C10   C11   A    
C16   H2    S    
C12   C13   A    
C15   H26   S    
C14   C15   S    
C16   H4    S    
Cu1   O1    S    
C7    O9    A    
C29   N8    T    
