data_mof_unit_30694.cif
_audit_creation_date              2012-12-10T17:30:27-0500
_audit_creation_method            fapswitch 2.2
_symmetry_space_group_name_H-M    P1
_symmetry_Int_Tables_number       1
_space_group_crystal_system       triclinic
_cell_length_a                    11.966214
_cell_length_b                    12.979887
_cell_length_c                    14.96717
_cell_angle_alpha                 92.26037
_cell_angle_beta                  85.628349
_cell_angle_gamma                 91.62158
_cell_volume                      2315.3889609

loop_
_atom_site_label
_atom_site_type_symbol
_atom_type_description
_atom_site_fract_x
_atom_site_fract_y
_atom_site_fract_z
_atom_type_partial_charge
C1    C     C_R   0.519740 0.700020 0.501781 0.952104
C2    C     C_R   0.383263 0.141171 0.449570 -0.093269
C3    C     C_R   0.446679 0.868331 0.475464 0.461897
C4    C     C_R   0.557493 0.130799 0.524132 0.488202
C5    C     C_R   0.458656 0.975294 0.476725 -0.240854
C6    C     C_R   0.545029 0.023530 0.524808 -0.237253
C7    C     C_R   0.960254 0.414594 0.404337 0.462773
C8    C     C_R   0.039739 0.586469 0.595002 0.475068
C9    C     C_R   0.842522 0.422977 0.414487 -0.116889
C10   C     C_R   0.157421 0.577592 0.584980 -0.132579
C11   C     C_R   0.854857 0.533959 0.543016 -0.001691
C12   C     C_R   0.479753 0.299726 0.501183 0.966756
C13   C     C_R   0.145148 0.466248 0.456852 -0.017392
C14   C     C_R   0.973388 0.530390 0.535101 -0.106731
C15   C     C_R   0.026613 0.470116 0.464593 -0.113161
C16   C     C_R   0.499964 0.506799 0.673204 0.961285
C17   C     C_R   0.500118 0.495545 0.326658 0.969677
C18   C     C_R   0.530152 0.403935 0.178690 0.448473
C19   C     C_R   0.463564 0.592383 0.821492 0.447309
C20   C     C_R   0.498854 0.492577 0.230668 -0.322923
C21   C     C_R   0.495308 0.504444 0.768998 -0.307574
C22   C     C_R   0.458649 0.579132 0.192694 0.441247
C23   C     C_R   0.398284 0.666512 0.969666 0.468726
C24   C     C_R   0.510226 0.409749 0.806660 0.490484
C25   C     C_R   0.438713 0.575583 0.101732 -0.152352
C26   C     C_R   0.508852 0.404560 0.899952 -0.142816
C27   C     C_R   0.471815 0.487951 0.047807 -0.151260
C28   C     C_R   0.471720 0.491084 0.954221 -0.165189
C29   C     C_R   0.511883 0.399771 0.086965 -0.115624
C30   C     C_R   0.443995 0.584119 0.914796 -0.119999
C31   C     C_R   0.390132 0.659333 0.063068 0.424809
C32   C     C_R   0.543356 0.314708 0.939226 0.421969
C33   C     C_3   0.545264 0.271828 0.276507 -0.256164
C34   C     C_R   0.536956 0.310262 0.032887 0.481543
C35   C     C_3   0.373628 0.708415 0.740949 -0.269031
C36   C     C_3   0.989276 0.253352 0.342913 -0.350772
C37   C     C_3   0.017714 0.747935 0.659054 -0.372627
C38   C     C_3   0.547633 0.724971 0.242127 -0.206480
C39   C     C_3   0.423899 0.275162 0.735542 -0.277060
C40   C     C_3   0.235972 0.705400 0.153107 -0.238388
C41   C     C_3   0.550818 0.146038 0.882050 -0.108157
C42   C     C_3   0.251829 0.766302 0.937181 -0.284635
C43   C     C_3   0.455561 0.166767 0.093038 -0.378489
C44   C     C_3   0.740257 0.175891 0.489769 -0.201762
C45   C     C_R   0.471034 0.188825 0.494050 -0.295300
C46   C     C_3   0.262311 0.819423 0.498239 -0.136890
C47   C     C_3   0.797892 0.984539 0.617022 -0.249865
C48   C     C_3   0.359101 0.983554 0.288646 -0.206623
C49   C     C_R   0.526381 0.810246 0.514256 -0.294938
C50   C     C_R   0.615777 0.964691 0.573815 0.558885
C51   C     C_R   0.384550 0.035375 0.432263 0.512873
C52   C     C_R   0.602366 0.857052 0.571754 -0.087640
H1    H     H_    0.187895 0.419807 0.403886 0.184341
H2    H     H_    0.355640 0.791626 0.750217 0.188539
H3    H     H_    0.009074 0.228982 0.410402 0.142744
H4    H     H_    0.044027 0.209642 0.292587 0.204336
H5    H     H_    0.901039 0.232316 0.330430 0.165545
H6    H     H_    0.963116 0.792894 0.708558 0.204252
H7    H     H_    0.003590 0.775594 0.591358 0.150753
H8    H     H_    0.105763 0.764055 0.675175 0.142049
H9    H     H_    0.540949 0.789801 0.292401 0.171942
H10   H     H_    0.567128 0.757614 0.174963 0.165688
H11   H     H_    0.618174 0.677405 0.259810 0.135425
H12   H     H_    0.812088 0.580370 0.595991 0.186943
H13   H     H_    0.369634 0.264798 0.798523 0.119011
H14   H     H_    0.438744 0.197579 0.703863 0.190754
H15   H     H_    0.378350 0.319635 0.688758 0.172679
H16   H     H_    0.243524 0.648485 0.205639 0.207764
H17   H     H_    0.182219 0.671336 0.101481 0.110901
H18   H     H_    0.192172 0.772892 0.185432 0.179226
H19   H     H_    0.457953 0.150732 0.885471 0.081809
H20   H     H_    0.577167 0.096042 0.934639 0.189236
H21   H     H_    0.577011 0.107779 0.816492 0.211743
H22   H     H_    0.222291 0.809973 0.999192 0.199986
H23   H     H_    0.208777 0.616402 0.632561 0.124859
H24   H     H_    0.205913 0.690598 0.931531 0.125998
H25   H     H_    0.229464 0.812602 0.880799 0.163001
H26   H     H_    0.404056 0.154992 0.034667 0.139478
H27   H     H_    0.405117 0.209221 0.147195 0.160252
H28   H     H_    0.472959 0.089447 0.116839 0.195679
H29   H     H_    0.815434 0.214179 0.516499 0.174286
H30   H     H_    0.720653 0.217038 0.429577 0.123754
H31   H     H_    0.761974 0.095500 0.468664 0.118768
H32   H     H_    0.280528 0.788527 0.563678 0.094886
H33   H     H_    0.195608 0.769483 0.470445 0.169031
H34   H     H_    0.791078 0.384298 0.366447 0.163250
H35   H     H_    0.228381 0.897858 0.510450 0.150335
H36   H     H_    0.218390 0.171937 0.448436 0.205211
H37   H     H_    0.293471 0.191042 0.349859 0.189231
H38   H     H_    0.642043 0.831818 0.697931 0.237308
H39   H     H_    0.626047 0.723891 0.639698 0.216047
H40   H     H_    0.818027 0.948621 0.548962 0.124489
H41   H     H_    0.819763 0.931215 0.668742 0.172072
H42   H     H_    0.852857 0.054290 0.623384 0.184386
H43   H     H_    0.379886 0.060945 0.262040 0.095669
H44   H     H_    0.299458 0.944254 0.244503 0.207017
H45   H     H_    0.454980 0.288613 0.292214 0.105091
H46   H     H_    0.435938 0.937050 0.285296 0.172062
H47   H     H_    0.590194 0.281863 0.337747 0.168759
H48   H     H_    0.552518 0.189453 0.255053 0.189315
H49   H     H_    0.297752 0.663605 0.766479 0.148081
H50   H     H_    0.389655 0.694119 0.668237 0.162433
N1    N     N_R   0.207800 0.519350 0.516680 -0.129892
N2    N     N_R   0.792200 0.480650 0.483320 -0.135677
N3    N     N_3   0.294694 0.200466 0.419365 -0.420590
N4    N     N_3   0.659519 0.798485 0.633801 -0.425316
O1    O     O_R   0.421700 0.658830 0.504450 -0.591873
O2    O     O_3   0.471086 0.688872 0.784310 -0.585883
O3    O     O_3   0.011028 0.359612 0.331927 -0.606040
O4    O     O_3   0.988788 0.642383 0.666887 -0.598993
O5    O     O_3   0.444556 0.669021 0.245165 -0.545989
O6    O     O_3   0.528651 0.322837 0.751183 -0.521739
O7    O     O_3   0.342146 0.739259 0.115399 -0.570411
O8    O     O_3   0.606566 0.243176 0.887055 -0.536423
O9    O     O_3   0.369689 0.757516 0.932500 -0.545486
O10   O     O_3   0.559112 0.218374 0.070760 -0.544923
O11   O     O_3   0.650906 0.179939 0.557335 -0.499933
O12   O     O_R   0.578300 0.341170 0.495550 -0.592250
O13   O     O_3   0.357458 0.819231 0.435711 -0.524004
O14   O     O_3   0.684895 0.014053 0.633848 -0.558519
O15   O     O_3   0.307684 0.991498 0.376506 -0.596062
O16   O     O_R   0.609310 0.646410 0.493750 -0.635043
O17   O     O_R   0.390690 0.353590 0.506250 -0.615929
O18   O     O_R   0.406180 0.506230 0.637500 -0.665832
O19   O     O_R   0.593820 0.493770 0.362500 -0.620063
O20   O     O_R   0.593800 0.493820 0.626800 -0.584909
O21   O     O_R   0.406200 0.506180 0.373200 -0.602459
O22   O     O_3   0.601081 0.333394 0.210693 -0.548411
Zn1   Zn    Zn3+2 0.374730 0.508290 0.507150 0.954530
Zn2   Zn    Zn3+2 0.625270 0.491710 0.492850 0.980004

loop_
_geom_bond_atom_site_label_1
_geom_bond_atom_site_label_2
_ccdc_geom_bond_type
C25   C31   A    
C26   C32   A    
C16   C21   S    
C48   H43   S    
C27   C29   A    
C47   H40   S    
C24   O6    S    
C41   O8    S    
O1    Zn1   S    
C44   H31   S    
C42   H24   S    
C3    C49   A    
C43   H26   S    
C40   H18   S    
C50   O14   S    
C10   N1    A    
C19   C21   A    
C24   C26   A    
C38   H11   S    
C44   H30   S    
C5    C6    A    
C9    H34   S    
C11   C14   A    
O20   Zn2   S    
C43   H27   S    
C17   C20   S    
C1    O16   A    
C35   O2    S    
C18   O22   S    
O19   Zn2   S    
C22   C25   A    
C1    C49   S    
C46   O13   S    
C50   C52   A    
C11   N2    A    
C13   N1    A    
C33   H45   S    
C37   H6    S    
C41   H19   S    
C38   H9    S    
C19   O2    S    
C35   H50   S    
C7    C15   A    
C52   N4    S    
N2    Zn2   S    
O17   Zn1   S    
C35   H2    S    
C39   H13   S    
H39   N4    S    
C13   H1    S    
C4    C45   A    
C2    C45   A    
C42   H22   S    
C40   H17   S    
C23   C30   A    
H38   N4    S    
C4    C6    A    
C11   H12   S    
C48   O15   S    
C17   O21   A    
C3    C5    A    
C43   H28   S    
C41   H21   S    
C29   C34   A    
C33   O22   S    
C7    O3    S    
C33   H47   S    
C32   C34   A    
O21   Zn1   S    
O12   Zn2   S    
C8    O4    S    
C43   O10   S    
C10   H23   S    
C40   O7    S    
C49   C52   A    
C47   H41   S    
C18   C29   A    
C6    C50   A    
N1    Zn1   S    
C37   O4    S    
C37   H7    S    
C3    O13   S    
C1    O1    A    
C41   H20   S    
C46   H32   S    
C47   O14   S    
C20   C22   A    
C44   H29   S    
C13   C15   A    
C51   O15   S    
C39   H14   S    
C12   O12   A    
C4    O11   S    
C36   O3    S    
C36   H5    S    
C46   H35   S    
C7    C9    A    
C39   O6    S    
C8    C14   A    
C48   H44   S    
C39   H15   S    
C12   C45   S    
C35   H49   S    
C25   C27   A    
C48   H46   S    
C2    N3    S    
C26   C28   A    
C33   H48   S    
C46   H33   S    
C28   C30   A    
C16   O18   A    
C36   H3    S    
H36   N3    S    
C17   O19   A    
C12   O17   A    
C16   O20   A    
C44   O11   S    
C9    N2    A    
C36   H4    S    
C47   H42   S    
C31   O7    S    
O18   Zn1   S    
C18   C20   A    
C37   H8    S    
C2    C51   A    
C23   O9    S    
C42   O9    S    
C42   H25   S    
C8    C10   A    
C22   O5    S    
C40   H16   S    
C21   C24   A    
H37   N3    S    
C27   C28   A    
C14   C15   A    
C5    C51   A    
C32   O8    S    
C38   O5    S    
C19   C30   A    
C34   O10   S    
O16   Zn2   S    
C23   C31   A    
C38   H10   S    
