data_mof_unit_45626.cif
_audit_creation_date              2012-12-10T19:00:00-0500
_audit_creation_method            fapswitch 2.2
_symmetry_space_group_name_H-M    P1
_symmetry_Int_Tables_number       1
_space_group_crystal_system       triclinic
_cell_length_a                    10.8194
_cell_length_b                    10.678403
_cell_length_c                    9.884098
_cell_angle_alpha                 88.493691
_cell_angle_beta                  90.965147
_cell_angle_gamma                 90.173368
_cell_volume                      1141.38813903

loop_
_atom_site_label
_atom_site_type_symbol
_atom_type_description
_atom_site_fract_x
_atom_site_fract_y
_atom_site_fract_z
_atom_type_partial_charge
C1    C     C_R   0.499035 0.260113 0.501912 1.043203
C2    C     C_R   0.573018 0.060756 0.597370 0.353478
C3    C     C_R   0.502951 0.872113 0.494889 -0.305709
C4    C     C_R   0.495612 0.127228 0.505814 -0.316711
C5    C     C_R   0.528150 0.605996 0.069241 0.024967
C6    C     C_R   0.471299 0.394219 0.930751 -0.031781
C7    C     C_R   0.527891 0.606177 0.925834 -0.108194
C8    C     C_R   0.470816 0.394166 0.074107 -0.055786
C9    C     C_R   0.260068 0.499318 0.498429 0.902871
C10   C     C_R   0.740172 0.499996 0.501483 0.902940
C11   C     C_R   0.164850 0.500001 0.009548 -0.262577
C12   C     C_R   0.500707 0.739645 0.498224 1.045786
C13   C     C_R   0.824788 0.312474 0.927482 -0.380434
C14   C     C_R   0.133008 0.544235 0.136298 0.433959
C15   C     C_R   0.869309 0.339231 0.798743 0.526294
C16   C     C_R   0.108829 0.456829 0.242807 -0.034370
C17   C     C_R   0.891107 0.465646 0.759240 -0.023482
C18   C     C_R   0.119706 0.328302 0.220349 -0.283811
C19   C     C_R   0.871424 0.561249 0.850664 -0.395233
C20   C     C_R   0.150545 0.284576 0.092934 0.476134
C21   C     C_R   0.826218 0.533778 0.981977 0.578062
C22   C     C_R   0.172403 0.371427 0.985827 0.300287
C23   C     C_R   0.873036 0.502470 0.503917 -0.108812
C24   C     C_R   0.801256 0.407941 0.018273 0.320555
C25   C     C_R   0.932356 0.505015 0.379831 -0.206979
C26   C     C_R   0.068686 0.508570 0.619323 -0.211373
C27   C     C_3   0.056176 0.097854 0.056526 -0.366042
C28   C     C_3   0.825198 0.747950 0.036672 -0.361720
C29   C     C_3   0.386390 0.893442 0.185479 -0.226196
C30   C     C_3   0.579572 0.091746 0.823814 -0.264931
C31   C     C_R   0.127706 0.501353 0.495516 -0.085457
C32   C     C_R   0.942499 0.498623 0.625651 0.023999
C33   C     C_R   0.058463 0.494210 0.374030 0.001948
C34   C     C_R   0.414433 0.067356 0.416720 0.272886
C35   C     C_R   0.583352 0.931862 0.584778 0.274341
C36   C     C_R   0.421200 0.937703 0.407401 0.332086
H1    H     H_    0.551527 0.691257 0.870457 0.161011
H2    H     H_    0.446258 0.310190 0.878817 0.155960
H3    H     H_    0.203861 0.242103 0.854977 0.366903
H4    H     H_    0.740235 0.288423 0.153919 0.317116
H5    H     H_    0.110746 0.691441 0.246284 0.360835
H6    H     H_    0.924424 0.268442 0.629124 0.336948
H7    H     H_    0.016208 0.124862 0.955743 0.205997
H8    H     H_    0.989587 0.117148 0.138091 0.162296
H9    H     H_    0.071893 0.995206 0.057496 0.216792
H10   H     H_    0.802280 0.810069 0.120829 0.190751
H11   H     H_    0.763230 0.774386 0.949749 0.165513
H12   H     H_    0.446552 0.309200 0.129402 0.165913
H13   H     H_    0.923983 0.764478 0.012675 0.210498
H14   H     H_    0.257287 0.081617 0.319310 0.385345
H15   H     H_    0.734872 0.918918 0.694335 0.366655
H16   H     H_    0.346209 0.819780 0.120910 0.205472
H17   H     H_    0.488907 0.887812 0.178578 0.113292
H18   H     H_    0.354691 0.985211 0.142924 0.207897
H19   H     H_    0.476730 0.097366 0.816956 0.144564
H20   H     H_    0.610226 0.159594 0.900049 0.165734
H21   H     H_    0.607547 0.997245 0.862357 0.157121
H22   H     H_    0.184437 0.566960 0.928637 0.186364
H23   H     H_    0.809199 0.215681 0.957625 0.162109
H24   H     H_    0.101920 0.261367 0.302051 0.193245
H25   H     H_    0.892400 0.656014 0.817082 0.184159
H26   H     H_    0.880612 0.506328 0.286249 0.266866
H27   H     H_    0.120808 0.512966 0.713029 0.215467
H28   H     H_    0.553638 0.690018 0.121096 0.130698
N1    N     N_R   0.499970 0.499970 0.857200 -0.086386
N2    N     N_R   0.500030 0.500030 0.142800 -0.061961
O1    O     O_R   0.499990 0.316750 0.614620 -0.601348
O2    O     O_3   0.752761 0.380207 0.143677 -0.744414
O3    O     O_3   0.126504 0.672327 0.150727 -0.773738
O4    O     O_3   0.891188 0.238930 0.716857 -0.737213
O5    O     O_3   0.170704 0.158095 0.077099 -0.628245
O6    O     O_3   0.805098 0.622829 0.080173 -0.589110
O7    O     O_3   0.326397 0.137305 0.345853 -0.754189
O8    O     O_3   0.670795 0.862140 0.657450 -0.775705
O9    O     O_3   0.344470 0.873579 0.319083 -0.592889
O10   O     O_3   0.636375 0.122081 0.699125 -0.554096
O11   O     O_R   0.500010 0.683250 0.385380 -0.616320
O12   O     O_R   0.499990 0.316780 0.385290 -0.603077
O13   O     O_R   0.500010 0.683220 0.614710 -0.609096
O14   O     O_R   0.316760 0.500000 0.614660 -0.611830
O15   O     O_R   0.683240 0.500000 0.385340 -0.573509
O16   O     O_R   0.316760 0.500020 0.385330 -0.609558
O17   O     O_R   0.683240 0.499980 0.614670 -0.608656
O18   O     O_3   0.202536 0.334671 0.857708 -0.779933
Zn1   Zn    Zn3+2 0.500000 0.499980 0.653120 1.001664
Zn2   Zn    Zn3+2 0.500000 0.500020 0.346880 1.023889

loop_
_geom_bond_atom_site_label_1
_geom_bond_atom_site_label_2
_ccdc_geom_bond_type
C2    C35   A    
C30   H21   S    
C35   O8    S    
C8    N2    A    
H15   O8    S    
C27   O5    S    
C28   H11   S    
C26   C32   A    
C28   H10   S    
C19   C21   A    
H3    O18   S    
C11   C14   A    
C29   H18   S    
C12   O13   A    
C10   O17   A    
H6    O4    S    
C3    C12   S    
C17   C19   A    
C27   H8    S    
C6    N1    A    
C31   C33   A    
C20   O5    S    
C11   H22   S    
C34   C36   A    
O15   Zn2   S    
C9    O16   A    
O12   Zn2   S    
C26   C31   A    
C1    O12   A    
C28   O6    S    
C4    C34   A    
O1    Zn1   S    
C21   O6    S    
H14   O7    S    
C5    C7    A    
C9    C31   S    
C6    C8    A    
O16   Zn2   S    
C30   H20   S    
C13   C24   A    
C9    O14   A    
C22   O18   S    
C2    C4    A    
C26   H27   S    
C8    H12   S    
O14   Zn1   S    
C36   O9    S    
C16   C33   S    
C7    N1    A    
C30   O10   S    
C28   H13   S    
C3    C35   A    
C12   O11   A    
C6    H2    S    
C7    H1    S    
C29   O9    S    
C18   H24   S    
O17   Zn1   S    
C20   C22   A    
O11   Zn2   S    
C13   C15   A    
C14   O3    S    
C14   C16   A    
O13   Zn1   S    
C2    O10   S    
H5    O3    S    
C15   C17   A    
C15   O4    S    
C11   C22   A    
C5    N2    A    
N2    Zn2   S    
N1    Zn1   S    
C13   H23   S    
C10   C23   S    
C30   H19   S    
C10   O15   A    
C1    C4    S    
C23   C32   A    
C27   H9    S    
C29   H17   S    
C3    C36   A    
C19   H25   S    
C1    O1    A    
C18   C20   A    
C25   H26   S    
C23   C25   A    
C24   O2    S    
C34   O7    S    
C27   H7    S    
C5    H28   S    
C16   C18   A    
H4    O2    S    
C21   C24   A    
C17   C32   S    
C25   C33   A    
C29   H16   S    
