data_mof_unit_32944.cif
_audit_creation_date              2012-12-10T18:54:30-0500
_audit_creation_method            fapswitch 2.2
_symmetry_space_group_name_H-M    P1
_symmetry_Int_Tables_number       1
_space_group_crystal_system       triclinic
_cell_length_a                    19.301854
_cell_length_b                    18.422422
_cell_length_c                    9.037923
_cell_angle_alpha                 89.559112
_cell_angle_beta                  93.237154
_cell_angle_gamma                 89.438128
_cell_volume                      3208.37519621

loop_
_atom_site_label
_atom_site_type_symbol
_atom_type_description
_atom_site_fract_x
_atom_site_fract_y
_atom_site_fract_z
_atom_type_partial_charge
C1    C     C_R   0.368060 0.500391 0.500589 0.781891
C2    C     C_R   0.631926 0.499760 0.499297 0.782041
C3    C     C_R   0.441716 0.724140 0.457642 0.156030
C4    C     C_R   0.527704 0.274648 0.615973 0.156929
C5    C     C_R   0.559841 0.720826 0.539102 0.165909
C6    C     C_R   0.470211 0.280925 0.379315 0.161366
C7    C     C_R   0.441271 0.799999 0.474605 -0.288459
C8    C     C_R   0.517490 0.199108 0.617358 -0.282851
C9    C     C_R   0.564273 0.795593 0.509522 -0.293769
C10   C     C_R   0.481552 0.205962 0.361851 -0.299434
C11   C     C_R   0.503827 0.838141 0.489007 0.097713
C12   C     C_R   0.500952 0.161762 0.485288 0.096243
C13   C     C_R   0.552181 0.961101 0.578596 -0.047330
C14   C     C_R   0.455751 0.037923 0.386971 -0.046705
C15   C     C_R   0.460186 0.960665 0.381153 -0.050877
C16   C     C_R   0.554866 0.038297 0.568421 -0.050511
C17   C     C_R   0.503831 0.078425 0.479277 -0.004076
C18   C     C_R   0.505566 0.921047 0.482975 -0.004096
C19   C     C_R   0.499864 0.500192 0.220903 0.849746
C20   C     C_R   0.500389 0.499825 0.779124 0.848741
C21   C     C_1   0.500160 0.500309 0.065672 -0.208331
C22   C     C_1   0.500334 0.499785 0.934366 -0.200537
C23   C     C_R   0.737537 0.512823 0.360527 -0.204458
C24   C     C_R   0.252046 0.495101 0.372762 -0.181374
C25   C     C_R   0.262046 0.514298 0.638344 -0.207486
C26   C     C_R   0.748184 0.491275 0.626080 -0.199847
C27   C     C_R   0.809496 0.517140 0.357601 -0.160408
C28   C     C_R   0.180110 0.500767 0.374752 -0.175860
C29   C     C_R   0.190002 0.519153 0.640757 -0.162539
C30   C     C_R   0.820052 0.496357 0.623544 -0.173354
C31   C     C_R   0.850810 0.510000 0.489531 0.149145
C32   C     C_R   0.148912 0.513249 0.508616 0.144924
C33   C     C_R   0.706947 0.499806 0.494841 0.007762
C34   C     C_R   0.292996 0.501953 0.504327 0.012749
C35   C     C_R   0.961883 0.579258 0.499534 -0.048807
C36   C     C_R   0.037533 0.446929 0.502589 -0.053412
C37   C     C_R   0.035148 0.579994 0.507851 -0.047950
C38   C     C_R   0.964589 0.446401 0.486176 -0.053701
C39   C     C_R   0.072704 0.513704 0.510770 -0.048790
C40   C     C_R   0.926917 0.512344 0.487468 -0.050592
Cu1   Cu    Cu3+1 0.500000 0.573360 0.500000 0.935678
Cu2   Cu    Cu3+1 0.500000 0.426640 0.500000 0.937427
H1    H     H_    0.705738 0.519702 0.258601 0.116477
H2    H     H_    0.275898 0.487211 0.268433 0.141758
H3    H     H_    0.293613 0.519793 0.740571 0.114014
H4    H     H_    0.724568 0.483168 0.730677 0.135271
H5    H     H_    0.832995 0.525856 0.253022 0.108081
H6    H     H_    0.148670 0.495211 0.272421 0.118700
H7    H     H_    0.166262 0.526524 0.745362 0.109134
H8    H     H_    0.851729 0.490111 0.725737 0.118583
N1    N     N_R   0.500000 0.683620 0.500000 -0.210970
N2    N     N_R   0.500000 0.316380 0.500000 -0.209025
O1    O     O_R   0.400190 0.561980 0.499980 -0.575039
O2    O     O_R   0.599810 0.438020 0.500020 -0.590898
O3    O     O_R   0.599810 0.561980 0.500020 -0.575317
O4    O     O_R   0.400190 0.438020 0.499980 -0.581221
O5    O     O_R   0.500000 0.561940 0.288400 -0.589760
O6    O     O_R   0.500000 0.438060 0.711600 -0.576022
O7    O     O_R   0.500000 0.561940 0.711600 -0.589618
O8    O     O_R   0.500000 0.438060 0.288400 -0.583634
C41   C     C_R   0.922392 0.648758 0.507136 0.132343
C42   C     C_R   0.926545 0.689836 0.637689 -0.150973
C43   C     C_R   0.892305 0.756964 0.643007 -0.146321
C44   C     C_R   0.853333 0.783245 0.518579 -0.115975
C45   C     C_R   0.849260 0.742869 0.388128 -0.151111
C46   C     C_R   0.884124 0.676164 0.381827 -0.145918
H9    H     H_    0.956375 0.669881 0.734940 0.117051
H10   H     H_    0.895504 0.788300 0.743915 0.122037
H11   H     H_    0.826386 0.834910 0.523153 0.117606
H12   H     H_    0.819526 0.763539 0.291467 0.118505
H13   H     H_    0.882224 0.646544 0.278792 0.108347
C47   C     C_R   0.077342 0.377457 0.513318 0.140714
C48   C     C_R   0.110840 0.356155 0.648922 -0.141463
C49   C     C_R   0.147699 0.290513 0.660553 -0.136086
C50   C     C_R   0.150907 0.245532 0.537334 -0.121705
C51   C     C_R   0.117703 0.266392 0.401919 -0.157332
C52   C     C_R   0.081270 0.332351 0.389498 -0.134890
H14   H     H_    0.108026 0.390217 0.745580 0.108070
H15   H     H_    0.173447 0.274328 0.765308 0.116699
H16   H     H_    0.178996 0.194460 0.547125 0.112095
H17   H     H_    0.120445 0.231601 0.306433 0.119901
H18   H     H_    0.056032 0.348216 0.283975 0.114312
C53   C     C_R   0.071790 0.650562 0.507689 0.131648
C54   C     C_R   0.067042 0.695061 0.380466 -0.150518
C55   C     C_R   0.097851 0.763472 0.382404 -0.145599
C56   C     C_R   0.133900 0.787678 0.510890 -0.119053
C57   C     C_R   0.138582 0.743815 0.638037 -0.151343
C58   C     C_R   0.107168 0.675730 0.637017 -0.151276
H19   H     H_    0.039178 0.676865 0.280386 0.116988
H20   H     H_    0.094129 0.797516 0.284102 0.123934
H21   H     H_    0.158114 0.840425 0.511971 0.119562
H22   H     H_    0.166032 0.762849 0.737820 0.119819
H23   H     H_    0.109284 0.643344 0.737574 0.107894
C59   C     C_R   0.927498 0.376742 0.465114 0.141467
C60   C     C_R   0.898248 0.358889 0.324496 -0.147570
C61   C     C_R   0.865562 0.292230 0.302127 -0.139120
C62   C     C_R   0.862075 0.243017 0.419766 -0.119741
C63   C     C_R   0.890341 0.260830 0.560580 -0.142852
C64   C     C_R   0.923008 0.327556 0.583460 -0.128756
H24   H     H_    0.901609 0.396218 0.232071 0.107836
H25   H     H_    0.843449 0.278472 0.193333 0.115584
H26   H     H_    0.837642 0.191000 0.401465 0.112896
H27   H     H_    0.887283 0.222753 0.651720 0.118861
H28   H     H_    0.945254 0.340706 0.692543 0.111486
C65   C     C_R   0.382387 0.693638 0.370975 0.167029
C66   C     C_R   0.390240 0.673453 0.223269 -0.075679
C67   C     C_R   0.333024 0.650536 0.134759 -0.183059
C68   C     C_R   0.267466 0.648822 0.192450 -0.144664
C69   C     C_R   0.259233 0.669825 0.338717 -0.106419
C70   C     C_R   0.316163 0.693163 0.427450 -0.159844
H29   H     H_    0.440287 0.677342 0.175469 0.127946
H30   H     H_    0.339400 0.634890 0.021090 0.126776
H31   H     H_    0.223121 0.630774 0.124320 0.120500
H32   H     H_    0.208948 0.666790 0.384119 0.169293
H33   H     H_    0.308861 0.710127 0.540046 0.117598
C71   C     C_R   0.574617 0.303842 0.734722 0.173260
C72   C     C_R   0.642447 0.323393 0.703678 -0.076961
C73   C     C_R   0.690963 0.340219 0.818787 -0.192029
C74   C     C_R   0.672461 0.336746 0.965800 -0.129079
C75   C     C_R   0.606035 0.314329 0.997977 -0.128812
C76   C     C_R   0.557692 0.296801 0.882794 -0.177203
H34   H     H_    0.658819 0.322231 0.591076 0.137132
H35   H     H_    0.743485 0.353994 0.794259 0.133172
H36   H     H_    0.710192 0.349315 0.054866 0.124923
H37   H     H_    0.592802 0.308706 0.112246 0.131287
H38   H     H_    0.507825 0.274996 0.907505 0.107832
C77   C     C_R   0.615382 0.689605 0.639200 0.166063
C78   C     C_R   0.601206 0.672323 0.786024 -0.081810
C79   C     C_R   0.654219 0.647602 0.886096 -0.175382
C80   C     C_R   0.722035 0.641576 0.841175 -0.155661
C81   C     C_R   0.736827 0.660732 0.696546 -0.108927
C82   C     C_R   0.684041 0.685562 0.596058 -0.146467
H39   H     H_    0.549364 0.679541 0.823939 0.125027
H40   H     H_    0.642826 0.633850 0.998762 0.130158
H41   H     H_    0.763134 0.622149 0.918311 0.120072
H42   H     H_    0.789011 0.654975 0.661568 0.166330
H43   H     H_    0.696369 0.700583 0.484540 0.121476
C83   C     C_R   0.412234 0.313296 0.286729 0.170201
C84   C     C_R   0.345161 0.312632 0.339535 -0.086601
C85   C     C_R   0.287842 0.333369 0.246732 -0.167953
C86   C     C_R   0.296909 0.354669 0.100442 -0.157485
C87   C     C_R   0.363336 0.354879 0.046723 -0.145193
C88   C     C_R   0.420470 0.333270 0.139099 -0.149970
H44   H     H_    0.337153 0.294689 0.451678 0.122575
H45   H     H_    0.236402 0.332899 0.288182 0.152799
H46   H     H_    0.252526 0.370995 0.028912 0.122286
H47   H     H_    0.370579 0.371434 0.933487 0.137980
H48   H     H_    0.471454 0.334091 0.097870 0.130699
H49   H     H_    0.392305 0.828793 0.464120 0.147667
H50   H     H_    0.527226 0.169941 0.720204 0.148828
H51   H     H_    0.614675 0.820308 0.515516 0.149944
H52   H     H_    0.469947 0.183299 0.254180 0.155229
C89   C     C_R   0.597907 0.922710 0.693143 0.118964
C90   C     C_R   0.568678 0.886347 0.811305 -0.159248
C91   C     C_R   0.611056 0.847358 0.915072 -0.153203
C92   C     C_R   0.682863 0.844989 0.902581 -0.082831
C93   C     C_R   0.712522 0.881661 0.786390 -0.135975
C94   C     C_R   0.670388 0.920484 0.682020 -0.156253
H53   H     H_    0.513090 0.887539 0.821223 0.127814
H54   H     H_    0.588268 0.818172 0.004228 0.117972
H55   H     H_    0.715481 0.814372 0.982494 0.117242
H56   H     H_    0.768116 0.879471 0.776456 0.118272
H57   H     H_    0.693888 0.947466 0.590813 0.125169
C95   C     C_R   0.398790 0.074999 0.297037 0.116648
C96   C     C_R   0.343632 0.108083 0.366812 -0.161318
C97   C     C_R   0.289999 0.142654 0.282007 -0.142739
C98   C     C_R   0.291193 0.144881 0.127587 -0.087026
C99   C     C_R   0.345753 0.111899 0.057242 -0.138729
C100  C     C_R   0.399245 0.076733 0.141255 -0.155409
H58   H     H_    0.342319 0.107087 0.486452 0.120753
H59   H     H_    0.247742 0.168303 0.335923 0.118635
H60   H     H_    0.249874 0.172293 0.062506 0.115228
H61   H     H_    0.346676 0.113693 0.937639 0.121768
H62   H     H_    0.441521 0.051765 0.085563 0.125473
C101  C     C_R   0.418622 0.921352 0.263123 0.122171
C102  C     C_R   0.452564 0.882056 0.155488 -0.150023
C103  C     C_R   0.414308 0.842105 0.048923 -0.163077
C104  C     C_R   0.341910 0.841713 0.047862 -0.091026
C105  C     C_R   0.307593 0.880960 0.153812 -0.126168
C106  C     C_R   0.345611 0.920625 0.261122 -0.150973
H63   H     H_    0.508626 0.881709 0.155974 0.123015
H64   H     H_    0.440736 0.810775 0.968032 0.118258
H65   H     H_    0.312432 0.810479 0.965693 0.116058
H66   H     H_    0.251535 0.880044 0.153754 0.120326
H67   H     H_    0.318384 0.949294 0.344757 0.125190
C107  C     C_R   0.613609 0.076359 0.648266 0.116546
C108  C     C_R   0.661292 0.115429 0.567926 -0.149694
C109  C     C_R   0.714805 0.153463 0.642359 -0.157959
C110  C     C_R   0.721677 0.152324 0.797052 -0.090521
C111  C     C_R   0.674717 0.113447 0.878022 -0.123725
C112  C     C_R   0.620863 0.075614 0.804371 -0.153934
H68   H     H_    0.656388 0.117139 0.447973 0.122425
H69   H     H_    0.750494 0.184542 0.580213 0.126512
H70   H     H_    0.763017 0.182156 0.854156 0.116026
H71   H     H_    0.679638 0.113188 0.997910 0.121052
H72   H     H_    0.583868 0.047140 0.868706 0.126123

loop_
_geom_bond_atom_site_label_1
_geom_bond_atom_site_label_2
_ccdc_geom_bond_type
C15   C18   A    
C65   C70   A    
C11   C18   S    
C96   C97   A    
Cu1   Cu2   S    
C60   C61   A    
C72   H34   S    
C4    C8    A    
C60   H24   S    
C78   C79   A    
Cu2   O6    S    
C104  C105  A    
C106  H67   S    
C29   H7    S    
C55   C56   A    
C3    C65   S    
C7    C11   A    
C93   C94   A    
C85   C86   A    
C13   C18   A    
C4    N2    A    
C53   C54   A    
C52   H18   S    
C95   C96   A    
C35   C37   A    
C1    O4    A    
C105  H66   S    
C29   C32   A    
C3    C7    A    
C56   H21   S    
C30   C31   A    
C42   H9    S    
C66   C67   A    
C45   H12   S    
C89   C94   A    
C23   H1    S    
C31   C40   S    
C67   H30   S    
C32   C39   S    
C107  C112  A    
C1    O1    A    
C73   C74   A    
Cu1   O3    S    
C47   C52   A    
Cu2   O4    S    
C7    H49   S    
C41   C46   A    
C28   H6    S    
C80   H41   S    
C16   C17   A    
C23   C33   A    
C12   C17   S    
C67   C68   A    
C102  H63   S    
C23   C27   A    
C50   H16   S    
C62   H26   S    
C8    C12   A    
C25   C34   A    
C10   H52   S    
C41   C42   A    
C53   C58   A    
C30   H8    S    
C97   H59   S    
C21   C22   T    
C96   H58   S    
C14   C17   A    
C38   C59   S    
C95   C100  A    
C88   H48   S    
C110  H70   S    
C1    C34   S    
C62   C63   A    
C66   H29   S    
C48   C49   A    
C25   C29   A    
C99   H61   S    
C55   H20   S    
C49   C50   A    
C27   C31   A    
C99   C100  A    
C28   C32   A    
C61   H25   S    
C54   C55   A    
Cu1   O7    S    
C81   H42   S    
C71   C76   A    
Cu2   O8    S    
C98   C99   A    
C3    N1    A    
C75   H37   S    
C82   H43   S    
C74   H36   S    
C19   O5    A    
C79   H40   S    
C76   H38   S    
C109  C110  A    
C20   O7    A    
C92   C93   A    
C68   H31   S    
C6    C83   S    
C100  H62   S    
C8    H50   S    
C50   C51   A    
C111  C112  A    
C5    C9    A    
C42   C43   A    
C9    C11   A    
C84   H44   S    
C26   C33   A    
C80   C81   A    
C46   H13   S    
C14   C15   A    
C48   H14   S    
C13   C89   S    
C61   C62   A    
C5    C77   S    
C90   C91   A    
C35   C41   S    
C44   H11   S    
C51   C52   A    
C74   C75   A    
C77   C82   A    
Cu1   O1    S    
C108  H68   S    
C98   H60   S    
C105  C106  A    
C10   C12   A    
C111  H71   S    
C86   H46   S    
C2    C33   S    
C102  C103  A    
C20   C22   S    
C92   H55   S    
C103  C104  A    
C49   H15   S    
C2    O2    A    
C97   C98   A    
C24   H2    S    
C112  H72   S    
C20   O6    A    
C77   C78   A    
C25   H3    S    
C104  H65   S    
C57   H22   S    
C75   C76   A    
C79   C80   A    
C27   H5    S    
C110  C111  A    
C58   H23   S    
C9    H51   S    
C19   C21   S    
C91   H54   S    
C56   C57   A    
C87   H47   S    
C4    C71   S    
C36   C39   A    
C94   H57   S    
C63   H27   S    
C24   C28   A    
C47   C48   A    
C81   C82   A    
C85   H45   S    
C6    C10   A    
C109  H69   S    
C84   C85   A    
C26   C30   A    
C101  C106  A    
C19   O8    A    
C65   C66   A    
C43   H10   S    
C72   C73   A    
C51   H17   S    
C15   C101  S    
C83   C88   A    
C44   C45   A    
C36   C38   A    
C35   C40   A    
C107  C108  A    
Cu1   O5    S    
C90   H53   S    
C37   C39   A    
C101  C102  A    
C16   C107  S    
C78   H39   S    
Cu2   O2    S    
C38   C40   A    
C59   C64   A    
C69   H32   S    
C70   H33   S    
C71   C72   A    
C64   H28   S    
C73   H35   S    
C45   C46   A    
C14   C95   S    
C59   C60   A    
C24   C34   A    
C2    O3    A    
C83   C84   A    
C26   H4    S    
C43   C44   A    
C36   C47   S    
C68   C69   A    
C57   C58   A    
C63   C64   A    
C54   H19   S    
C13   C16   A    
C69   C70   A    
C91   C92   A    
C87   C88   A    
C37   C53   S    
C108  C109  A    
C6    N2    A    
C89   C90   A    
C86   C87   A    
C93   H56   S    
Cu1   N1    S    
C103  H64   S    
Cu2   N2    S    
C5    N1    A    
