data_mof_unit_48009.cif
_audit_creation_date              2012-12-10T18:45:11-0500
_audit_creation_method            fapswitch 2.2
_symmetry_space_group_name_H-M    P1
_symmetry_Int_Tables_number       1
_space_group_crystal_system       triclinic
_cell_length_a                    10.626111
_cell_length_b                    9.839752
_cell_length_c                    10.712672
_cell_angle_alpha                 90.667246
_cell_angle_beta                  90.407548
_cell_angle_gamma                 90.419356
_cell_volume                      1119.96376532

loop_
_atom_site_label
_atom_site_type_symbol
_atom_type_description
_atom_site_fract_x
_atom_site_fract_y
_atom_site_fract_z
_atom_type_partial_charge
C1    C     C_R   0.260267 0.499463 0.502520 0.912298
C2    C     C_R   0.739757 0.500505 0.502158 0.926234
C3    C     C_R   0.935677 0.571162 0.415173 -0.240627
C4    C     C_R   0.064399 0.569332 0.414362 -0.259576
C5    C     C_R   0.610391 0.072773 0.506658 -0.077236
C6    C     C_R   0.390091 0.070794 0.488655 -0.064641
C7    C     C_R   0.610399 0.929034 0.506422 -0.090505
C8    C     C_R   0.389938 0.927190 0.489497 -0.062032
C9    C     C_R   0.483580 0.500011 0.261076 0.872336
C10   C     C_R   0.505213 0.501535 0.740948 0.889970
C11   C     C_R   0.418136 0.750780 0.121465 -0.354700
C12   C     C_R   0.548054 0.755975 0.897961 -0.386123
C13   C     C_R   0.452219 0.875957 0.071063 0.518342
C14   C     C_R   0.525714 0.879596 0.963446 0.495026
C15   C     C_R   0.502039 0.630381 0.943405 0.048773
C16   C     C_R   0.456968 0.627758 0.065042 0.040642
C17   C     C_R   0.461018 0.502491 0.128441 -0.107233
C18   C     C_R   0.503148 0.505472 0.875374 -0.097952
C19   C     C_R   0.468250 0.380070 0.062571 -0.197980
C20   C     C_R   0.482842 0.381866 0.935803 -0.197864
C21   C     C_R   0.065623 0.431790 0.603962 0.142712
C22   C     C_R   0.934534 0.434923 0.605557 0.149059
C23   C     C_R   0.872101 0.502223 0.508455 -0.079502
C24   C     C_R   0.127945 0.498499 0.506788 -0.073477
H1    H     H_    0.465991 0.282983 0.109068 0.222749
H2    H     H_    0.481375 0.285649 0.885999 0.196706
H3    H     H_    0.364134 0.751196 0.206729 0.188077
H4    H     H_    0.608665 0.756589 0.817767 0.187246
H5    H     H_    0.885404 0.623696 0.341901 0.161861
H6    H     H_    0.114664 0.621383 0.340993 0.147620
H7    H     H_    0.698862 0.127261 0.513649 0.141171
H8    H     H_    0.302230 0.123749 0.477803 0.129357
H9    H     H_    0.698815 0.875937 0.513041 0.136087
H10   H     H_    0.301598 0.872688 0.480885 0.130290
N1    N     N_R   0.500000 0.857200 0.500000 -0.079663
N2    N     N_R   0.500000 0.142810 0.500000 -0.079023
O1    O     O_R   0.316770 0.614620 0.499990 -0.643844
O2    O     O_R   0.683230 0.614620 0.500010 -0.638755
O3    O     O_R   0.316800 0.385290 0.500000 -0.616070
O4    O     O_R   0.683200 0.385290 0.500000 -0.609016
O5    O     O_R   0.500010 0.614690 0.316770 -0.611326
O6    O     O_R   0.499990 0.614690 0.683230 -0.626679
O7    O     O_R   0.500040 0.385360 0.316770 -0.605929
O8    O     O_R   0.499960 0.385360 0.683230 -0.621808
Zn1   Zn    Zn3+2 0.500000 0.653120 0.500000 0.938147
Zn2   Zn    Zn3+2 0.500000 0.346880 0.500000 0.958307
O9    O     O_3   0.428568 0.995108 0.136111 -0.573326
C25   C     C_3   0.300637 0.028218 0.120399 -0.350618
H11   H     H_    0.237854 0.950519 0.162479 0.151487
H12   H     H_    0.276638 0.042061 0.019982 0.164367
H13   H     H_    0.282831 0.126033 0.169467 0.193324
O10   O     O_3   0.579083 0.004494 0.932730 -0.586221
C26   C     C_3   0.595960 0.018904 0.803421 -0.328489
H14   H     H_    0.510326 0.986919 0.749997 0.170140
H15   H     H_    0.680849 0.963341 0.772010 0.160768
H16   H     H_    0.613373 0.127707 0.783579 0.202839
N3    N     N_2   0.135335 0.373581 0.704015 -0.307435
H17   H     H_    0.109266 0.405610 0.791998 0.226782
C27   C     C_3   0.158245 0.228867 0.694639 -0.782665
H18   H     H_    0.107550 0.174611 0.769733 0.214023
H19   H     H_    0.260509 0.210334 0.706385 0.260720
H20   H     H_    0.126609 0.185954 0.603099 0.230955
N4    N     N_2   0.865115 0.372722 0.703329 -0.311069
H21   H     H_    0.903321 0.284248 0.736727 0.239527
C28   C     C_3   0.827997 0.465124 0.802207 -0.802503
H22   H     H_    0.912147 0.505638 0.852625 0.230707
H23   H     H_    0.767791 0.410262 0.869578 0.252050
H24   H     H_    0.773666 0.551281 0.763867 0.233189

loop_
_geom_bond_atom_site_label_1
_geom_bond_atom_site_label_2
_ccdc_geom_bond_type
C5    H7    S    
C15   C18   A    
C6    H8    S    
N4    C28   S    
C21   N3    S    
C11   H3    S    
C10   O6    A    
C11   C13   A    
C11   C16   A    
C2    O2    A    
C9    O5    A    
C19   C20   A    
C12   C15   A    
C1    O1    A    
C28   H24   S    
C25   H12   S    
C22   N4    S    
C9    O7    A    
C27   H18   S    
C8    H10   S    
C21   C22   A    
N2    Zn2   S    
C7    H9    S    
C3    H5    S    
N3    H17   S    
C20   H2    S    
C10   C18   S    
O3    Zn2   S    
C4    C24   A    
C10   O8    A    
C6    C8    A    
C9    C17   S    
C25   H11   S    
C17   C19   A    
C12   C14   A    
C18   C20   A    
C26   H15   S    
C19   H1    S    
O7    Zn2   S    
C14   O10   S    
C21   C24   A    
C27   H19   S    
N3    C27   S    
O4    Zn2   S    
O1    Zn1   S    
C15   C16   A    
N1    Zn1   S    
C5    N2    A    
C2    O4    A    
O9    C25   S    
O10   C26   S    
C12   H4    S    
C1    C24   S    
C13   O9    S    
C28   H22   S    
C26   H16   S    
C2    C23   S    
C5    C7    A    
C1    O3    A    
C22   C23   A    
O2    Zn1   S    
O5    Zn1   S    
O8    Zn2   S    
C28   H23   S    
C3    C23   A    
C13   C14   A    
C7    N1    A    
C8    N1    A    
C25   H13   S    
C4    H6    S    
C3    C4    A    
N4    H21   S    
C26   H14   S    
C6    N2    A    
C16   C17   A    
C27   H20   S    
O6    Zn1   S    
