data_mof_unit_31941.cif
_audit_creation_date              2012-12-11T14:58:26-0500
_audit_creation_method            fapswitch 2.2
_symmetry_space_group_name_H-M    P1
_symmetry_Int_Tables_number       1
_space_group_crystal_system       triclinic
_cell_length_a                    10.94892
_cell_length_b                    10.994507
_cell_length_c                    18.811611
_cell_angle_alpha                 90.296086
_cell_angle_beta                  90.465576
_cell_angle_gamma                 59.629856
_cell_volume                      1953.69626365

loop_
_atom_site_label
_atom_site_type_symbol
_atom_type_description
_atom_site_fract_x
_atom_site_fract_y
_atom_site_fract_z
_atom_type_partial_charge
C1    C     C_R   0.359436 0.771837 0.397569 0.542242
C2    C     C_R   0.244109 0.433673 0.201525 -0.154594
C3    C     C_R   0.240943 0.443855 0.275396 -0.033748
C4    C     C_R   0.383357 0.352976 0.388815 0.535804
C5    C     C_R   0.882219 0.803954 0.369026 -0.109067
C6    C     C_R   0.923757 0.668607 0.393300 -0.101427
C7    C     C_R   0.039965 0.551146 0.362917 -0.046792
C8    C     C_R   0.117058 0.568221 0.308318 0.061613
C9    C     C_R   0.354512 0.335378 0.314782 -0.005021
C10   C     C_R   0.955945 0.298326 0.308281 -0.157938
C11   C     C_R   0.985585 0.290245 0.236276 -0.127237
C12   C     C_R   0.604647 0.093936 0.176024 -0.002516
C13   C     C_R   0.875690 0.335901 0.186075 0.041352
C14   C     C_R   0.734990 0.403787 0.207324 -0.159572
C15   C     C_R   0.705367 0.409403 0.279222 -0.134437
C16   C     C_R   0.777590 0.378637 0.403167 0.534645
C17   C     C_R   0.815912 0.356165 0.329430 0.041106
C18   C     C_R   0.474309 0.763884 0.284646 -0.137799
C19   C     C_R   0.462353 0.784694 0.211555 -0.174990
C20   C     C_R   0.329878 0.876355 0.182389 0.018964
C21   C     C_R   0.211383 0.948102 0.226834 -0.140994
C22   C     C_R   0.221695 0.922365 0.298695 -0.150281
C23   C     C_R   0.355633 0.318784 0.166333 0.007084
C24   C     C_R   0.352205 0.826805 0.327392 0.033604
C25   C     C_R   0.465277 0.274630 0.716893 -0.123296
C26   C     C_R   0.447931 0.272092 0.788873 -0.135411
C27   C     C_R   0.311780 0.333897 0.816669 0.030918
C28   C     C_R   0.344649 0.767998 0.604972 0.546596
C29   C     C_R   0.192428 0.410184 0.772734 -0.134422
C30   C     C_R   0.210201 0.415527 0.699940 -0.140567
C31   C     C_R   0.346761 0.342586 0.671783 0.037317
C32   C     C_R   0.734299 0.475444 0.732462 -0.125732
C33   C     C_R   0.746843 0.461018 0.805360 -0.137033
C34   C     C_R   0.465315 0.220529 0.279300 -0.146231
C35   C     C_R   0.815677 0.326764 0.835556 0.029510
C36   C     C_R   0.856342 0.207533 0.792286 -0.138862
C37   C     C_R   0.839488 0.222610 0.718669 -0.152785
C38   C     C_R   0.784047 0.356495 0.688375 0.031040
C39   C     C_R   0.207738 0.817476 0.714939 -0.130422
C40   C     C_R   0.373111 0.352668 0.597683 0.543316
C41   C     C_R   0.200876 0.828942 0.788040 -0.139164
C42   C     C_R   0.304284 0.842221 0.825464 0.032612
C43   C     C_R   0.417231 0.839552 0.788941 -0.135925
C44   C     C_R   0.423776 0.828536 0.715634 -0.143277
C45   C     C_R   0.472325 0.213735 0.206287 -0.026027
C46   C     C_R   0.320263 0.815380 0.678285 0.033552
C47   C     C_R   0.912162 0.316241 0.112076 0.543580
C48   C     C_R   0.328809 0.291995 0.093379 0.543481
C49   C     C_R   0.305202 0.903259 0.106714 0.545951
C50   C     C_R   0.879430 0.310145 0.905698 0.545351
C51   C     C_R   0.296341 0.291055 0.886628 0.554556
C52   C     C_R   0.756798 0.380281 0.612331 0.543858
C53   C     C_R   0.276328 0.893423 0.898053 0.550075
C54   C     C_R   0.855642 0.866645 0.121660 -0.107597
C55   C     C_R   0.855286 0.983541 0.150486 -0.162844
C56   C     C_R   0.073673 0.705164 0.284044 -0.074720
C57   C     C_R   0.730950 0.096012 0.177564 -0.137551
C58   C     C_3   0.784694 0.715334 0.020335 0.025417
C59   C     C_3   0.720649 0.837188 0.966184 -0.284509
C60   C     C_3   0.801199 0.793509 0.896143 -0.493239
C61   C     C_R   0.957312 0.822205 0.314604 -0.096746
C62   C     C_R   0.609210 0.970927 0.152962 -0.016387
C63   C     C_R   0.729536 0.861777 0.120007 0.283800
Cr1   Cr    Cr6+3 0.601770 0.606860 0.505860 0.996364
Cr2   Cr    Cr6+3 0.291380 0.601660 0.495070 1.022655
Cr3   Cr    Cr6+3 0.606880 0.291510 0.499120 1.006656
Cr4   Cr    Cr6+3 0.062440 0.063090 0.008210 0.997924
Cr5   Cr    Cr6+3 0.062880 0.375170 0.998920 0.986345
Cr6   Cr    Cr6+3 0.374700 0.061720 0.992470 1.001250
H1    H     H_    0.553711 0.137118 0.308465 0.147353
H2    H     H_    0.554459 0.728096 0.178243 0.168465
H3    H     H_    0.108785 0.021666 0.205450 0.129289
H4    H     H_    0.127476 0.972410 0.331219 0.120674
H5    H     H_    0.572328 0.223756 0.696688 0.142991
H6    H     H_    0.540955 0.214648 0.822349 0.127147
H7    H     H_    0.086191 0.458027 0.793861 0.135244
H8    H     H_    0.118488 0.472818 0.665719 0.119792
H9    H     H_    0.685765 0.580521 0.710569 0.135063
H10   H     H_    0.711893 0.554284 0.837828 0.112656
H11   H     H_    0.909973 0.102408 0.814652 0.132324
H12   H     H_    0.792382 0.894771 0.392676 0.110493
H13   H     H_    0.873521 0.130235 0.685537 0.117034
H14   H     H_    0.126945 0.805616 0.687549 0.133544
H15   H     H_    0.925827 0.927317 0.296521 0.110174
H16   H     H_    0.111675 0.832867 0.814787 0.122620
H17   H     H_    0.497755 0.851438 0.816638 0.126555
H18   H     H_    0.511688 0.826398 0.688461 0.120967
H19   H     H_    0.954293 0.781023 0.101810 0.099436
H20   H     H_    0.951923 0.986029 0.152294 0.155918
H21   H     H_    0.734113 0.181676 0.202339 0.136168
H22   H     H_    0.130990 0.721433 0.242055 0.110527
H23   H     H_    0.866563 0.654960 0.436161 0.131140
H24   H     H_    0.515174 0.965811 0.157683 0.155480
H25   H     H_    0.154370 0.513082 0.171437 0.138251
H26   H     H_    0.767039 0.631255 0.998946 0.185668
H27   H     H_    0.901309 0.666764 0.024871 0.135680
H28   H     H_    0.608612 0.868846 0.956068 0.199876
H29   H     H_    0.723683 0.930403 0.986840 0.162233
H30   H     H_    0.912298 0.767716 0.904687 0.150561
H31   H     H_    0.749667 0.881651 0.857500 0.142945
H32   H     H_    0.801343 0.700216 0.873418 0.148231
H33   H     H_    0.071677 0.447309 0.382988 0.097264
H34   H     H_    0.041085 0.259585 0.347007 0.095722
H35   H     H_    0.094370 0.246262 0.219439 0.120781
H36   H     H_    0.649687 0.444225 0.168559 0.112502
H37   H     H_    0.596143 0.456522 0.295959 0.123278
H38   H     H_    0.577166 0.691324 0.307060 0.153074
O1    O     O_R   0.748800 0.497470 0.428000 -0.531224
O2    O     O_R   0.417600 0.174890 0.067840 -0.524281
O3    O     O_R   0.375320 0.946260 0.070860 -0.500005
O4    O     O_R   0.476420 0.724060 0.429470 -0.511610
O5    O     O_R   0.160600 0.919630 0.926660 -0.525101
O6    O     O_R   0.933060 0.190520 0.936020 -0.501153
O7    O     O_R   0.908880 0.403460 0.925020 -0.548649
O8    O     O_R   0.179600 0.361450 0.918490 -0.508473
O9    O     O_R   0.391510 0.170860 0.907530 -0.529867
O10   O     O_R   0.351130 0.942530 0.922260 -0.518897
O11   O     O_3   0.166667 0.166667 0.999870 -0.243394
O12   O     O_R   0.300070 0.471040 0.567100 -0.504339
O13   O     O_R   0.264580 0.744340 0.416750 -0.506400
O14   O     O_R   0.309380 0.472470 0.418200 -0.493640
O15   O     O_R   0.501710 0.260430 0.414300 -0.530396
O16   O     O_R   0.728090 0.305600 0.428960 -0.500977
O17   O     O_R   0.738760 0.495930 0.588610 -0.530254
O18   O     O_R   0.467110 0.722640 0.578360 -0.509253
O19   O     O_R   0.254530 0.742800 0.577360 -0.526331
O20   O     O_3   0.718189 0.753794 0.087784 -0.587838
O21   O     O_R   0.491670 0.258900 0.574910 -0.527339
O22   O     O_R   0.718780 0.304180 0.577850 -0.507420
O23   O     O_3   0.500010 0.500010 0.500020 -0.249441
O24   O     O_R   0.186690 0.923650 0.086970 -0.538604
O25   O     O_R   0.957250 0.194250 0.084630 -0.519375
O26   O     O_R   0.934970 0.407490 0.085330 -0.507178
O27   O     O_R   0.203780 0.365190 0.067090 -0.515056

loop_
_geom_bond_atom_site_label_1
_geom_bond_atom_site_label_2
_ccdc_geom_bond_type
C25   C31   A    
Cr6   O9    S    
C23   C45   A    
C27   C29   A    
C52   O17   A    
C41   C42   A    
C19   H2    S    
C35   C36   A    
C43   C44   A    
C60   H30   S    
C8    C56   A    
Cr2   O23   S    
C7    C8    A    
C39   C41   A    
C29   H7    S    
C49   O24   A    
C28   C46   S    
C26   C27   A    
C62   C63   A    
C18   C24   A    
C52   O22   A    
C15   H37   S    
C48   O27   A    
Cr5   O26   S    
C37   C38   A    
C18   C19   A    
C42   C53   S    
C30   C31   A    
C53   O10   A    
C38   C52   S    
C54   C63   A    
C10   C17   A    
C40   O21   A    
Cr6   O11   S    
C12   C62   A    
C31   C40   S    
C25   H5    S    
C58   H27   S    
C18   H38   S    
Cr5   O11   S    
C30   H8    S    
Cr6   O2    S    
C56   H22   S    
Cr4   O25   S    
C44   C46   A    
C16   C17   S    
C7    H33   S    
Cr3   O15   S    
C11   H35   S    
Cr2   O14   S    
C44   H18   S    
C34   H1    S    
Cr3   O22   S    
C48   O2    A    
C59   C60   S    
C1    O4    A    
C13   C14   A    
C47   O26   A    
C27   C51   S    
Cr1   O1    S    
C14   H36   S    
C57   H21   S    
C21   H3    S    
C5    C61   A    
C2    H25   S    
C3    C8    S    
C36   H11   S    
C13   C47   S    
C33   H10   S    
Cr1   O4    S    
C25   C26   A    
Cr1   O17   S    
C32   H9    S    
C51   O8    A    
C50   O7    A    
C1    O13   A    
C58   H26   S    
C20   C49   S    
C3    C9    A    
C5    H12   S    
Cr6   O3    S    
C14   C15   A    
C35   C50   S    
C26   H6    S    
Cr2   O12   S    
C4    O15   A    
C34   C45   A    
C39   C46   A    
C12   C57   A    
C53   O5    A    
Cr1   O23   S    
C32   C38   A    
C55   C57   A    
C9    C34   A    
C59   H28   S    
C22   C24   A    
C37   H13   S    
C42   C43   A    
C60   H32   S    
C28   O18   A    
C15   C17   A    
C54   C55   A    
C10   H34   S    
C23   C48   S    
Cr3   O16   S    
C43   H17   S    
C16   O16   A    
Cr4   O24   S    
C12   C45   S    
C60   H31   S    
C61   H15   S    
C6    C7    A    
C28   O19   A    
C41   H16   S    
C51   O9    A    
C47   O25   A    
C50   O6    A    
Cr2   O19   S    
C19   C20   A    
Cr5   O27   S    
C2    C3    A    
C58   C59   S    
C39   H14   S    
C55   H20   S    
C32   C33   A    
C54   H19   S    
C11   C13   A    
C5    C6    A    
C6    H23   S    
Cr6   O10   S    
C33   C35   A    
Cr2   O13   S    
Cr3   O21   S    
C4    O14   A    
Cr4   O6    S    
Cr4   O11   S    
C10   C11   A    
C16   O1    A    
Cr5   O8    S    
C29   C30   A    
Cr4   O5    S    
C58   O20   S    
C40   O12   A    
C20   C21   A    
C1    C24   S    
C36   C37   A    
Cr1   O18   S    
C62   H24   S    
C2    C23   A    
C59   H29   S    
C56   C61   A    
C22   H4    S    
C4    C9    S    
C21   C22   A    
C63   O20   S    
Cr5   O7    S    
C49   O3    A    
Cr3   O23   S    
