data_mof_unit_30192.cif
_audit_creation_date              2013-03-05T15:45:30-0500
_audit_creation_method            fapswitch 2.2
_symmetry_space_group_name_H-M    P1
_symmetry_Int_Tables_number       1
_space_group_crystal_system       triclinic
_cell_length_a                    11.013444
_cell_length_b                    11.008493
_cell_length_c                    18.818792
_cell_angle_alpha                 89.634609
_cell_angle_beta                  89.193965
_cell_angle_gamma                 59.96107
_cell_volume                      1974.96674386

loop_
_atom_site_label
_atom_site_type_symbol
_atom_site_description
_atom_site_fract_x
_atom_site_fract_y
_atom_site_fract_z
_atom_type_partial_charge
O1    O     O_R   0.507430 0.255570 0.581420 -0.514584
O2    O     O_R   0.280190 0.527390 0.578910 -0.477240
C1    C     C_R   0.287719 0.623315 0.615743 0.598904
O3    O     O_R   0.260310 0.739740 0.584580 -0.515614
O4    O     O_R   0.532250 0.695150 0.573830 -0.511603
C2    C     C_R   0.653057 0.620747 0.601746 0.565406
O5    O     O_R   0.744930 0.503430 0.576380 -0.514044
O6    O     O_R   0.699250 0.276390 0.571950 -0.477788
C3    C     C_R   0.632714 0.216785 0.598867 0.547310
O7    O     O_R   0.499020 0.256400 0.419850 -0.524740
O8    O     O_R   0.272400 0.528160 0.429140 -0.503853
C4    C     C_R   0.224182 0.647717 0.401217 0.538916
O9    O     O_R   0.251910 0.740570 0.423020 -0.491537
O10   O     O_R   0.524460 0.695920 0.424060 -0.504438
C5    C     C_R   0.643663 0.625644 0.393778 0.522478
O11   O     O_R   0.736530 0.504260 0.414810 -0.517231
O12   O     O_R   0.691460 0.277160 0.422180 -0.477095
C6    C     C_R   0.621020 0.225869 0.395776 0.512879
Cr1   Cr    Cr6+3 0.392930 0.397900 0.502230 1.080711
Cr2   Cr    Cr6+3 0.398240 0.708600 0.501260 1.070664
Cr3   Cr    Cr6+3 0.708800 0.393470 0.496460 1.087159
O13   O     O_3   0.499990 0.499990 0.499980 -0.269508
C7    C     C_3   0.535805 0.740803 0.795972 -0.150307
C8    C     C_3   0.523981 0.741731 0.714044 -0.252361
H1    H     H_    0.478149 0.849615 0.691861 0.133710
C9    C     C_3   0.755981 0.752284 0.765885 -0.083337
C10   C     C_3   0.768362 0.519158 0.797086 -0.201858
C11   C     C_3   0.694811 0.676725 0.814056 0.002338
C12   C     C_3   0.669664 0.643408 0.678382 0.030349
C13   C     C_3   0.754175 0.718657 0.686234 -0.238778
C14   C     C_3   0.742467 0.496551 0.719836 0.008039
C15   C     C_R   0.807469 0.105263 0.697287 -0.014244
C16   C     C_R   0.817985 0.107266 0.773160 -0.035396
C17   C     C_R   0.700950 0.127566 0.815962 -0.081682
C18   C     C_R   0.578371 0.149695 0.782297 -0.147729
C19   C     C_R   0.572844 0.137325 0.709963 -0.027078
C20   C     C_R   0.677890 0.138323 0.666985 -0.061799
C21   C     C_R   0.281125 0.515069 0.734131 -0.026774
C22   C     C_R   0.257890 0.528550 0.808358 -0.070180
C23   C     C_R   0.205897 0.660989 0.840410 0.016579
C24   C     C_R   0.201754 0.769255 0.799816 -0.144417
H2    H     H_    0.178546 0.867036 0.823259 0.201565
C25   C     C_R   0.217438 0.758272 0.727388 -0.162295
C26   C     C_R   0.254593 0.632849 0.692661 0.028749
C27   C     C_R   0.801913 0.607388 0.298498 -0.120967
H3    H     H_    0.887955 0.541911 0.333406 0.187249
C28   C     C_R   0.825961 0.605967 0.225905 -0.029159
C29   C     C_R   0.712155 0.700959 0.181690 -0.027454
C30   C     C_R   0.577033 0.778919 0.211497 -0.144036
C31   C     C_R   0.553380 0.760165 0.282329 -0.116157
C32   C     C_R   0.666418 0.673753 0.325731 -0.025492
C33   C     C_R   0.589192 0.104323 0.294372 -0.017681
C34   C     C_R   0.587160 0.097008 0.221315 -0.062091
C35   C     C_R   0.655337 0.148636 0.178106 -0.029343
C36   C     C_R   0.737746 0.199392 0.208096 -0.057363
C37   C     C_R   0.754023 0.192511 0.282178 -0.033149
C38   C     C_R   0.665997 0.160401 0.325483 -0.040162
C39   C     C_R   0.072533 0.789009 0.305026 -0.135332
H4    H     H_    0.019662 0.879305 0.339705 0.179630
C40   C     C_R   0.045390 0.803007 0.233498 -0.118089
C41   C     C_R   0.119766 0.687814 0.187512 -0.011901
C42   C     C_R   0.215173 0.555038 0.213416 -0.007668
C43   C     C_R   0.239016 0.540842 0.286007 -0.063976
C44   C     C_R   0.171618 0.659117 0.330900 -0.002189
O14   O     O_R   0.089490 0.825610 0.930610 -0.523935
O15   O     O_R   0.818370 0.054540 0.929880 -0.523706
C45   C     C_R   0.706582 0.093624 0.893043 0.512543
O16   O     O_R   0.605870 0.077310 0.915530 -0.517156
O17   O     O_R   0.646440 0.806700 0.917570 -0.480938
C46   C     C_R   0.721043 0.687832 0.889584 0.557304
O18   O     O_R   0.837200 0.593290 0.915250 -0.496621
O19   O     O_R   0.065330 0.635370 0.931590 -0.476636
C47   C     C_R   0.125375 0.702851 0.908079 0.540052
O20   O     O_R   0.068300 0.828790 0.091860 -0.482770
O21   O     O_R   0.798730 0.057480 0.079370 -0.496863
C48   C     C_R   0.674803 0.105767 0.104259 0.514261
O22   O     O_R   0.584680 0.080480 0.076790 -0.502131
O23   O     O_R   0.626790 0.809640 0.067050 -0.484020
C49   C     C_R   0.732609 0.715633 0.105527 0.532710
O24   O     O_R   0.816010 0.596460 0.076500 -0.535239
O25   O     O_R   0.045680 0.638310 0.081070 -0.559882
C50   C     C_R   0.086862 0.712773 0.113747 0.505370
Cr4   Cr    Cr6+3 0.937620 0.938540 0.007640 1.059119
Cr5   Cr    Cr6+3 0.625150 0.937450 0.994520 1.077531
Cr6   Cr    Cr6+3 0.937990 0.625080 0.001190 1.043540
O26   O     O_3   0.833590 0.833690 0.001120 -0.296513
C51   C     C_2   0.441001 0.886722 0.825017 0.266411
H5    H     H_    0.447077 0.974722 0.803860 0.158028
O27   O     O_2   0.360514 0.906072 0.874525 -0.489126
C52   C     C_2   0.882985 0.388704 0.687112 0.346210
H6    H     H_    0.887598 0.307254 0.654058 0.196543
O28   O     O_2   0.988472 0.398191 0.691948 -0.420082
C53   C     C_2   0.899616 0.719389 0.785174 0.242280
H7    H     H_    0.918922 0.802106 0.802033 0.090444
O29   O     O_2   0.995257 0.599060 0.780778 -0.472832
H8    H     H_    0.860913 0.653739 0.662834 0.198772
C54   C     C_2   0.929064 0.054014 0.646947 0.225313
H9    H     H_    0.922650 0.014057 0.595362 0.111014
O30   O     O_2   0.034488 0.058661 0.660061 -0.470812
C55   C     C_2   0.941060 0.102640 0.807436 0.233971
H10   H     H_    0.982601 0.047397 0.856129 0.164626
O31   O     O_2   0.995078 0.167618 0.783693 -0.444500
H11   H     H_    0.487577 0.165811 0.812931 0.183495
C56   C     C_2   0.458105 0.119061 0.680310 0.217023
H12   H     H_    0.473712 0.065672 0.629839 0.124589
O32   O     O_2   0.345649 0.163397 0.711372 -0.472984
H13   H     H_    0.316600 0.414766 0.709078 0.199710
H14   H     H_    0.266825 0.440678 0.838782 0.155880
H15   H     H_    0.498622 0.671354 0.818914 0.148764
H16   H     H_    0.213493 0.845330 0.699338 0.214926
C57   C     C_2   0.966140 0.491757 0.200431 0.271688
H17   H     H_    0.002191 0.481370 0.146518 0.192290
O33   O     O_2   0.045684 0.399988 0.241014 -0.437097
H18   H     H_    0.488005 0.847723 0.179161 0.173009
H19   H     H_    0.446534 0.809155 0.302406 0.193394
C58   C     C_2   0.508060 0.055123 0.337160 0.266669
H20   H     H_    0.543957 0.010098 0.389439 0.103942
O34   O     O_2   0.398025 0.068796 0.315275 -0.448682
H21   H     H_    0.531946 0.049266 0.197820 0.198422
C59   C     C_2   0.807049 0.256539 0.160788 0.232367
H22   H     H_    0.750755 0.320698 0.115500 0.117440
O35   O     O_2   0.928904 0.225711 0.169082 -0.464605
C60   C     C_2   0.859673 0.222900 0.312958 0.342970
H23   H     H_    0.867240 0.312454 0.294761 0.173258
O36   O     O_2   0.941082 0.145860 0.357942 -0.479963
H24   H     H_    0.452983 0.704628 0.699893 0.174205
H25   H     H_    0.967507 0.904919 0.213669 0.167011
C61   C     C_2   0.290450 0.433116 0.165400 0.231884
H26   H     H_    0.314786 0.447241 0.110967 0.104732
O37   O     O_2   0.320222 0.316111 0.185405 -0.445595
H27   H     H_    0.317607 0.439813 0.306583 0.187426
H28   H     H_    0.688092 0.866958 0.773245 0.075192
H29   H     H_    0.704762 0.818294 0.655363 0.061886
H30   H     H_    0.882128 0.467307 0.808340 0.255642
H31   H     H_    0.731522 0.467403 0.836062 0.075272
C62   C     C_2   0.645220 0.435674 0.722237 0.150746
H32   H     H_    0.643203 0.376085 0.767419 0.121522
O38   O     O_2   0.562917 0.457159 0.674979 -0.541624

loop_
_geom_bond_atom_site_label_1
_geom_bond_atom_site_label_2
_geom_bond_distance
_ccdc_geom_bond_type
C36   C37   1.404837 A    
C53   H7    1.083720 S    
C24   H2    1.070546 S    
C57   H17   1.069941 S    
O20   Cr4   2.083728 S    
C51   H5    1.077372 S    
C61   H26   1.085035 S    
C56   O32   1.221452 D    
O19   Cr6   1.949546 S    
C60   H23   1.083172 S    
O4    Cr2   1.975010 S    
C27   H3    1.084760 S    
C15   C54   1.491251 S    
O8    Cr1   1.957229 S    
C12   C13   1.533524 S    
C29   C49   1.468189 S    
C19   C20   1.406766 A    
Cr5   O26   1.992753 S    
C31   H19   1.083069 S    
C18   H11   1.082223 S    
C41   C50   1.429499 S    
C21   C22   1.411834 A    
C4    C44   1.431321 S    
O14   Cr4   2.077852 S    
C27   C32   1.383848 A    
C39   C40   1.373891 A    
C5    O11   1.274620 A    
C54   H9    1.085979 S    
O14   C47   1.276756 A    
C58   H20   1.085557 S    
O12   C6    1.273003 A    
C17   C18   1.405731 A    
C21   H13   1.078747 S    
C8    C12   1.560939 S    
C13   H8    1.111269 S    
O15   Cr4   1.961660 S    
O18   Cr6   2.101655 S    
C18   C19   1.374128 A    
O6    C3    1.300318 A    
C7    C8    1.548650 S    
C46   O18   1.277118 A    
C25   H16   1.073097 S    
C43   H27   1.084530 S    
C14   C52   1.525382 S    
C9    C53   1.485368 S    
C27   C28   1.386580 A    
C30   H18   1.082948 S    
C53   O29   1.213694 D    
C7    C51   1.511701 S    
Cr3   O13   1.991221 S    
C8    H24   1.084514 S    
C24   C25   1.369965 A    
C41   C42   1.394938 A    
O20   C50   1.255731 A    
C3    C20   1.486766 S    
C56   H12   1.085562 S    
C54   O30   1.216276 D    
C59   O35   1.220595 D    
O25   C50   1.281528 A    
C36   C59   1.491783 S    
C33   C58   1.482857 S    
C39   C44   1.384343 A    
C22   H14   1.082805 S    
C7    H15   1.114831 S    
C1    C26   1.479232 S    
O1    Cr1   2.076295 S    
C10   C14   1.531011 S    
C45   O16   1.275492 A    
O16   Cr5   2.068249 S    
C37   C60   1.487448 S    
O10   Cr2   1.952962 S    
Cr1   O13   1.994945 S    
O1    C3    1.270866 A    
C8    H1    1.113081 S    
C62   O38   1.214027 D    
C22   C23   1.408201 A    
O23   C49   1.326718 A    
C14   C62   1.521551 S    
O22   Cr5   2.093777 S    
C31   C32   1.398196 A    
C39   H4    1.082200 S    
Cr6   O26   1.988033 S    
O12   Cr3   1.976119 S    
C43   C44   1.410243 A    
C61   O37   1.217695 D    
C40   C41   1.407852 A    
O21   C48   1.274215 A    
C21   C26   1.410585 A    
O24   Cr6   2.068118 S    
C6    C38   1.466626 S    
C52   O28   1.222080 D    
C28   C29   1.436275 A    
O7    Cr1   2.086309 S    
C13   H29   1.113507 S    
C2    C12   1.494426 S    
C42   C43   1.387747 A    
C55   O31   1.216465 D    
C16   C17   1.429973 A    
C57   O33   1.222389 D    
C15   C20   1.412280 A    
C48   O22   1.273892 A    
C35   C48   1.448670 S    
C23   C24   1.393224 A    
Cr2   O13   1.988375 S    
C9    C13   1.549051 S    
C5    C32   1.448550 S    
C51   O27   1.220421 D    
C25   C26   1.392574 A    
C7    C11   1.567506 S    
C37   C38   1.430433 A    
C1    O3    1.298362 A    
C9    H28   1.107333 S    
C59   H22   1.085539 S    
C35   C36   1.407339 A    
C29   C30   1.403491 A    
O9    Cr2   2.093157 S    
O2    Cr1   1.964644 S    
C10   H30   1.109254 S    
C40   H25   1.083449 S    
C11   C46   1.472340 S    
O19   C47   1.290089 A    
O6    Cr3   1.949005 S    
C17   C45   1.489996 S    
O8    C4    1.260806 A    
C34   H21   1.082587 S    
O11   Cr3   2.068231 S    
C34   C35   1.397221 A    
C2    O5    1.267117 A    
C9    C11   1.581686 S    
C19   C56   1.491426 S    
C16   C55   1.486957 S    
C10   H31   1.115787 S    
C15   C16   1.435359 A    
O2    C1    1.304254 A    
C12   C14   1.602756 S    
O17   Cr5   1.975571 S    
O5    Cr3   2.099511 S    
C42   C61   1.478379 S    
O21   Cr4   1.958477 S    
C52   H6    1.074285 S    
O4    C2    1.280712 A    
O7    C6    1.286959 A    
C28   C57   1.495849 S    
C55   H10   1.070031 S    
C58   O34   1.221273 D    
O15   C45   1.292795 A    
O17   C46   1.258958 A    
C60   O36   1.220938 D    
C33   C38   1.407388 A    
C49   O24   1.285221 A    
O3    Cr2   2.074171 S    
O23   Cr5   1.947754 S    
Cr4   O26   1.997442 S    
C4    O9    1.275868 A    
C30   C31   1.388478 A    
C10   C11   1.536217 S    
O10   C5    1.270642 A    
C62   H32   1.077355 S    
C23   C47   1.478876 S    
O25   Cr6   1.978265 S    
C33   C34   1.378866 A    
