data_mof_unit_19181.cif
_audit_creation_date              2013-03-05T15:57:37-0500
_audit_creation_method            fapswitch 2.2
_symmetry_space_group_name_H-M    P1
_symmetry_Int_Tables_number       1
_space_group_crystal_system       triclinic
_cell_length_a                    15.08273
_cell_length_b                    13.892799
_cell_length_c                    11.687008
_cell_angle_alpha                 89.260502
_cell_angle_beta                  88.401342
_cell_angle_gamma                 89.037698
_cell_volume                      2447.42329532

loop_
_atom_site_label
_atom_site_type_symbol
_atom_site_description
_atom_site_fract_x
_atom_site_fract_y
_atom_site_fract_z
_atom_type_partial_charge
O1    O     O_R   0.370260 0.582280 0.500020 -0.543858
O2    O     O_R   0.629740 0.417720 0.499980 -0.552968
O3    O     O_R   0.629740 0.582280 0.499980 -0.619743
O4    O     O_R   0.370260 0.417720 0.500020 -0.628989
C1    C     C_R   0.329406 0.500858 0.499173 0.876613
C2    C     C_R   0.670660 0.499245 0.500795 0.877908
O5    O     O_R   0.500010 0.582270 0.337200 -0.540379
O6    O     O_R   0.499990 0.417730 0.662800 -0.539854
O7    O     O_R   0.499990 0.582270 0.662800 -0.621070
O8    O     O_R   0.500010 0.417730 0.337200 -0.620912
C3    C     C_R   0.501638 0.500432 0.284186 0.856837
C4    C     C_R   0.498651 0.499572 0.715815 0.857621
Cu1   Cu    Cu3+1 0.500000 0.597420 0.500000 0.986472
Cu2   Cu    Cu3+1 0.500000 0.402580 0.500000 0.980121
C5    C     C_1   0.501739 0.501124 0.162390 -0.078879
C6    C     C_1   0.498823 0.498892 0.837594 -0.080776
C7    C     C_1   0.500991 0.500579 0.059876 0.034151
C8    C     C_1   0.499687 0.499441 0.940102 0.033138
C9    C     C_R   0.814391 0.517671 0.396087 0.083146
C10   C     C_R   0.185411 0.505439 0.606061 0.095901
C11   C     C_R   0.767297 0.498322 0.499512 -0.037891
C12   C     C_R   0.232845 0.504183 0.500438 -0.046519
C13   C     C_R   0.812079 0.481624 0.602482 -0.113502
C14   C     C_R   0.188616 0.509112 0.395724 -0.092903
C15   C     C_R   0.904109 0.499312 0.606261 -0.065454
C16   C     C_R   0.095562 0.524162 0.396053 -0.054358
C17   C     C_R   0.952763 0.512795 0.501666 0.047562
C18   C     C_R   0.046777 0.514807 0.501199 0.040973
C19   C     C_R   0.907822 0.523145 0.397246 0.073336
C20   C     C_R   0.091685 0.506993 0.605914 0.072230
C21   C     C_R   0.949430 0.504741 0.711043 -0.044832
C22   C     C_R   0.049174 0.548187 0.295035 -0.035532
C23   C     C_R   0.041841 0.504815 0.709109 -0.154600
C24   C     C_R   0.956987 0.543372 0.296326 -0.159140
H1    H     H_    0.074289 0.506466 0.790342 0.208525
H2    H     H_    0.923855 0.559826 0.217446 0.208169
C25   C     C_R   0.442734 0.793843 0.572060 0.121247
C26   C     C_R   0.557218 0.206148 0.427943 0.120769
C27   C     C_R   0.556291 0.793449 0.426819 0.129596
C28   C     C_R   0.443602 0.206662 0.573219 0.126846
N1    N     N_R   0.500000 0.743810 0.500000 -0.249484
N2    N     N_R   0.500000 0.256190 0.500000 -0.249683
C29   C     C_R   0.560981 0.896455 0.429051 -0.045234
C30   C     C_R   0.438892 0.103633 0.570959 -0.044516
C31   C     C_R   0.444548 0.896885 0.578233 -0.042817
C32   C     C_R   0.555313 0.103148 0.421747 -0.042833
C33   C     C_R   0.500767 0.948322 0.501069 -0.015068
C34   C     C_R   0.499084 0.051741 0.498922 -0.015570
C35   C     C_R   0.622510 0.949689 0.359581 0.185350
C36   C     C_R   0.377355 0.050399 0.640392 0.185583
C37   C     C_R   0.390492 0.950548 0.657366 0.182002
C38   C     C_R   0.609319 0.049507 0.342576 0.182814
C39   C     C_3   0.766138 0.527181 0.283558 -0.856833
H3    H     H_    0.792584 0.472474 0.222537 0.255788
H4    H     H_    0.693846 0.515532 0.291176 0.199160
H5    H     H_    0.775688 0.600331 0.246377 0.232096
C40   C     C_3   0.233984 0.502345 0.718681 -0.854912
H6    H     H_    0.307120 0.500771 0.709058 0.196240
H7    H     H_    0.216211 0.567395 0.769129 0.253372
H8    H     H_    0.215445 0.436645 0.768271 0.235401
C41   C     C_2   0.765951 0.432626 0.700759 0.353685
H9    H     H_    0.800586 0.376552 0.748193 0.103123
O9    O     O_2   0.691241 0.456530 0.732519 -0.559536
C42   C     C_2   0.237966 0.485907 0.287370 0.299184
H10   H     H_    0.209507 0.437120 0.227138 0.101543
O10   O     O_2   0.307869 0.524537 0.261931 -0.548100
C43   C     C_2   0.902979 0.522930 0.822927 0.365006
H11   H     H_    0.838846 0.559445 0.825968 0.097239
O11   O     O_2   0.936512 0.498865 0.913060 -0.499657
C44   C     C_2   0.093200 0.590621 0.191032 0.360124
H12   H     H_    0.154136 0.630214 0.197898 0.114245
O12   O     O_2   0.060932 0.583617 0.096859 -0.500972
C45   C     C_2   0.368839 0.741306 0.627536 0.455778
H13   H     H_    0.379880 0.692858 0.699095 0.060929
O13   O     O_2   0.293465 0.753616 0.594026 -0.537896
C46   C     C_2   0.631203 0.258628 0.372597 0.453716
H14   H     H_    0.620246 0.307243 0.301172 0.062403
O14   O     O_2   0.706550 0.246129 0.406120 -0.543106
C47   C     C_2   0.600213 0.740434 0.332401 0.443075
H15   H     H_    0.657503 0.694860 0.347450 0.067734
O15   O     O_2   0.573467 0.749913 0.235167 -0.541385
C48   C     C_2   0.399962 0.259702 0.668066 0.445126
H16   H     H_    0.343228 0.306474 0.653601 0.066349
O16   O     O_2   0.426549 0.249229 0.765258 -0.542408
C49   C     C_3   0.709315 0.905798 0.314533 -0.840463
H17   H     H_    0.762032 0.960636 0.308290 0.249622
H18   H     H_    0.734631 0.850001 0.374705 0.207848
H19   H     H_    0.701349 0.875623 0.228076 0.257884
C50   C     C_3   0.290558 0.094342 0.685360 -0.838709
H20   H     H_    0.237732 0.039603 0.691056 0.249338
H21   H     H_    0.298403 0.124131 0.772034 0.258143
H22   H     H_    0.265493 0.150469 0.625439 0.207008
C51   C     C_3   0.355608 0.907100 0.769351 -0.826520
H23   H     H_    0.351768 0.961979 0.837672 0.249394
H24   H     H_    0.288204 0.878142 0.759401 0.258132
H25   H     H_    0.401689 0.850396 0.801364 0.210863
C52   C     C_3   0.644029 0.092942 0.230498 -0.826791
H26   H     H_    0.647702 0.038056 0.162177 0.249298
H27   H     H_    0.597938 0.149703 0.198643 0.210645
H28   H     H_    0.711476 0.121848 0.240249 0.258253

loop_
_geom_bond_atom_site_label_1
_geom_bond_atom_site_label_2
_geom_bond_distance
_ccdc_geom_bond_type
C15   C21   1.422454 A    
C16   C22   1.422253 A    
C51   H23   1.110776 S    
C17   C19   1.416954 A    
C45   H13   1.081498 S    
O3    C2    1.299193 A    
Cu1   N1    2.033767 S    
C52   H26   1.110803 S    
C27   N1    1.375439 A    
C26   C46   1.473106 S    
C49   H17   1.110683 S    
C39   H5    1.110127 S    
O5    C3    1.301364 A    
O1    C1    1.297463 A    
C9    C11   1.409947 A    
C46   O14   1.221318 D    
C26   N2    1.375390 A    
C40   H7    1.110404 S    
C27   C47   1.470640 S    
C31   C37   1.425189 A    
C32   C38   1.424904 A    
C38   C52   1.518520 S    
C41   O9    1.218643 D    
O7    Cu1   1.911545 S    
C3    C5    1.423295 S    
C1    C12   1.456023 S    
C4    C6    1.423221 S    
C21   C23   1.393386 A    
C44   H12   1.084403 S    
C50   H21   1.109281 S    
C28   C30   1.434937 A    
O3    Cu1   1.964582 S    
Cu2   N2    2.033767 S    
C9    C39   1.523937 S    
C31   C33   1.415618 A    
C51   H24   1.109267 S    
Cu1   Cu2   2.706872 S    
C25   N1    1.375784 A    
C45   O13   1.221326 D    
O2    C2    1.299190 A    
C52   H27   1.110028 S    
C36   C37   1.410253 A    
C39   H4    1.105957 S    
C27   C29   1.434581 A    
C32   C34   1.415570 A    
C49   H18   1.110043 S    
C43   H11   1.084593 S    
C28   C48   1.472771 S    
C46   H14   1.081515 S    
O8    Cu2   1.911545 S    
C47   O15   1.221213 D    
C29   C35   1.425792 A    
C40   H8    1.110436 S    
C10   C20   1.413490 A    
C39   H3    1.110526 S    
C2    C11   1.457051 S    
C19   C24   1.403427 A    
C43   O11   1.221544 D    
C42   O10   1.218771 D    
C21   C43   1.488608 S    
C35   C49   1.518603 S    
C36   C50   1.518472 S    
C33   C34   1.436486 A    
C13   C41   1.489218 S    
O6    C4    1.301460 A    
C35   C38   1.409958 A    
C7    C8    1.400780 S    
C50   H22   1.110026 S    
C37   C51   1.518529 S    
C6    C8    1.198570 T    
C10   C12   1.409541 A    
C51   H25   1.110013 S    
C48   O16   1.221228 D    
C11   C13   1.411058 A    
C12   C14   1.410406 A    
O1    Cu1   1.971608 S    
C25   C31   1.435041 A    
C9    C19   1.412970 A    
C52   H28   1.109265 S    
C49   H19   1.109291 S    
C30   C36   1.425634 A    
C5    C7    1.198570 T    
C25   C45   1.473127 S    
O6    Cu2   1.916945 S    
C20   C23   1.403522 A    
C14   C16   1.415423 A    
O4    C1    1.299993 A    
C22   C44   1.488461 S    
C15   C17   1.420044 A    
C16   C18   1.420220 A    
C42   H10   1.085419 S    
C18   C20   1.417255 A    
C10   C40   1.523880 S    
C40   H6    1.105570 S    
C28   N2    1.375907 A    
C23   H1    1.080831 S    
C24   H2    1.080856 S    
C13   C15   1.415712 A    
O4    Cu2   1.964584 S    
C41   H9    1.085554 S    
O2    Cu2   1.971606 S    
O7    C4    1.298459 A    
C26   C32   1.434543 A    
O8    C3    1.298585 A    
C47   H15   1.079676 S    
O5    Cu1   1.916945 S    
C14   C42   1.487086 S    
C48   H16   1.081477 S    
C17   C18   1.418590 A    
C44   O12   1.221438 D    
C50   H20   1.110711 S    
C29   C33   1.415445 A    
C30   C34   1.415552 A    
C22   C24   1.392809 A    
