data_mof_unit_20930.cif
_audit_creation_date              2012-12-10T18:36:09-0500
_audit_creation_method            fapswitch 2.2
_symmetry_space_group_name_H-M    P1
_symmetry_Int_Tables_number       1
_space_group_crystal_system       triclinic
_cell_length_a                    14.966424
_cell_length_b                    15.511381
_cell_length_c                    19.259213
_cell_angle_alpha                 89.780075
_cell_angle_beta                  104.402032
_cell_angle_gamma                 81.530725
_cell_volume                      4279.47159282

loop_
_atom_site_label
_atom_site_type_symbol
_atom_type_description
_atom_site_fract_x
_atom_site_fract_y
_atom_site_fract_z
_atom_type_partial_charge
C1    C     C_R   0.441365 0.662039 0.489079 0.860438
C2    C     C_R   0.558911 0.337845 0.511429 0.878129
C3    C     C_R   0.404837 0.755122 0.481697 -0.183634
C4    C     C_R   0.594715 0.245142 0.527985 -0.182770
C5    C     C_R   0.291884 0.878582 0.424542 -0.289843
C6    C     C_R   0.700864 0.128370 0.602491 -0.297829
C7    C     C_R   0.323345 0.789131 0.429258 0.487072
C8    C     C_R   0.682107 0.214784 0.575496 0.476873
C9    C     C_R   0.458562 0.811299 0.523363 -0.335488
C10   C     C_R   0.531739 0.187487 0.504197 -0.329579
C11   C     C_R   0.435558 0.901901 0.511454 0.095166
C12   C     C_R   0.546059 0.103517 0.535054 0.090332
C13   C     C_R   0.348470 0.935190 0.463571 0.101990
C14   C     C_R   0.633491 0.072861 0.582835 0.108009
C15   C     C_R   0.499477 0.959673 0.540764 0.090951
C16   C     C_R   0.476174 0.048992 0.518117 0.083740
C17   C     C_R   0.383732 0.081056 0.479202 -0.238990
C18   C     C_R   0.587591 0.931054 0.588716 -0.226268
C19   C     C_R   0.321272 0.024709 0.451784 -0.212210
C20   C     C_R   0.652505 0.987263 0.610361 -0.217788
C21   C     C_R   0.856221 0.586841 0.635607 -0.436733
C22   C     C_R   0.157699 0.365263 0.389713 -0.462957
C23   C     C_R   0.500725 0.499908 0.634261 0.903424
C24   C     C_R   0.498673 0.499707 0.365330 0.875004
C25   C     C_R   0.760581 0.587829 0.605973 0.573238
C26   C     C_R   0.248483 0.386832 0.408771 0.600904
C27   C     C_R   0.791359 0.529287 0.498744 0.459111
C28   C     C_R   0.205030 0.486923 0.493142 0.433243
C29   C     C_R   0.888825 0.518506 0.529389 -0.103110
C30   C     C_R   0.116249 0.459663 0.481032 -0.126501
C31   C     C_R   0.920103 0.551173 0.598202 0.044163
C32   C     C_R   0.091055 0.403783 0.424054 0.074335
C33   C     C_R   0.955915 0.478694 0.494011 0.108182
C34   C     C_R   0.051343 0.487123 0.521948 0.080342
C35   C     C_R   0.079870 0.517275 0.591717 -0.196366
C36   C     C_R   0.932248 0.425066 0.435342 -0.186612
C37   C     C_R   0.015094 0.548234 0.629371 -0.180797
C38   C     C_R   0.999733 0.385819 0.402577 -0.184077
C39   C     C_R   0.415011 0.503678 0.727579 -0.369443
C40   C     C_R   0.579626 0.486495 0.267821 -0.352769
C41   C     C_R   0.410697 0.492857 0.798246 0.495461
C42   C     C_R   0.580649 0.482908 0.196027 0.530470
C43   C     C_R   0.494108 0.479191 0.852834 -0.072251
C44   C     C_R   0.495973 0.482420 0.143947 -0.077729
C45   C     C_R   0.580492 0.473147 0.835687 -0.367290
C46   C     C_R   0.411584 0.490762 0.163936 -0.379269
C47   C     C_R   0.584872 0.480123 0.764377 0.467868
C48   C     C_R   0.409089 0.499440 0.236136 0.466216
C49   C     C_R   0.501222 0.496414 0.710019 -0.196094
C50   C     C_R   0.495324 0.496227 0.288480 -0.212766
C51   C     C_R   0.493196 0.475880 0.068043 0.293261
C52   C     C_R   0.491996 0.474723 0.927939 0.328042
H1    H     H_    0.350119 0.517615 0.686305 0.215662
H2    H     H_    0.645690 0.480425 0.307566 0.231506
H3    H     H_    0.039475 0.571221 0.682838 0.147212
H4    H     H_    0.979917 0.342373 0.359366 0.149312
H5    H     H_    0.881410 0.610391 0.688600 0.173439
H6    H     H_    0.138605 0.317851 0.349861 0.170042
H7    H     H_    0.152513 0.513563 0.619613 0.195885
H8    H     H_    0.863415 0.407233 0.417378 0.194036
H9    H     H_    0.644822 0.464754 0.877736 0.180399
H10   H     H_    0.348388 0.488475 0.122451 0.159939
H11   H     H_    0.252885 0.051195 0.418464 0.146053
H12   H     H_    0.718992 0.962795 0.647339 0.140693
H13   H     H_    0.470055 0.210800 0.462369 0.204428
H14   H     H_    0.521073 0.781934 0.561631 0.172073
H15   H     H_    0.227680 0.904200 0.385352 0.149673
H16   H     H_    0.766917 0.105581 0.640588 0.147686
H17   H     H_    0.357797 0.149709 0.468758 0.171946
H18   H     H_    0.608940 0.865671 0.610954 0.124050
N1    N     N_R   0.420525 0.520997 0.949666 -0.108400
N2    N     N_R   0.563993 0.428232 0.046311 -0.139712
N3    N     N_R   0.421044 0.521514 0.018565 -0.188584
N4    N     N_R   0.563577 0.427912 0.977297 -0.199842
N5    N     N_R   0.731690 0.552730 0.540620 -0.198016
N6    N     N_R   0.268310 0.447270 0.459380 -0.164547
O1    O     O_R   0.383120 0.605620 0.479520 -0.571821
O2    O     O_R   0.616880 0.394380 0.520480 -0.599728
O3    O     O_R   0.531890 0.639510 0.505590 -0.619239
O4    O     O_R   0.468110 0.360490 0.494410 -0.580014
O5    O     O_R   0.425590 0.483060 0.588820 -0.601432
O6    O     O_R   0.574410 0.516940 0.411180 -0.607784
O7    O     O_R   0.574360 0.516950 0.614890 -0.511394
O8    O     O_R   0.425640 0.483050 0.385110 -0.530883
Zn1   Zn    Zn3+2 0.400660 0.477370 0.482600 1.031473
Zn2   Zn    Zn3+2 0.599340 0.522630 0.517400 0.998190
O9    O     O_3   0.229636 0.554007 0.537412 -0.610202
C53   C     C_3   0.182713 0.634367 0.502619 0.115911
H19   H     H_    0.105537 0.637791 0.489668 0.129322
H20   H     H_    0.203158 0.644732 0.451930 0.200750
C54   C     C_3   0.208288 0.707952 0.552105 -0.788006
H21   H     H_    0.285197 0.705316 0.568516 0.259216
H22   H     H_    0.176033 0.771860 0.524034 0.208415
H23   H     H_    0.182413 0.701716 0.600897 0.244522
O10   O     O_3   0.756032 0.528939 0.425471 -0.626610
C55   C     C_3   0.731270 0.616582 0.397922 0.155814
H24   H     H_    0.698244 0.661424 0.432772 0.129535
H25   H     H_    0.677547 0.618200 0.346520 0.156026
C56   C     C_3   0.815323 0.651819 0.383421 -0.932680
H26   H     H_    0.851825 0.604729 0.352560 0.280579
H27   H     H_    0.791635 0.714798 0.352012 0.223388
H28   H     H_    0.864906 0.663224 0.434663 0.249718
O11   O     O_3   0.321871 0.344955 0.382794 -0.580569
C57   C     C_3   0.295552 0.317210 0.311619 0.155220
H29   H     H_    0.348790 0.331717 0.283965 0.195774
H30   H     H_    0.227937 0.352354 0.278902 0.124116
C58   C     C_3   0.296828 0.218733 0.311520 -0.950589
H31   H     H_    0.248364 0.199173 0.341700 0.251078
H32   H     H_    0.275439 0.198009 0.255461 0.229676
H33   H     H_    0.368419 0.184832 0.336662 0.265722
O12   O     O_3   0.694934 0.614672 0.644359 -0.535683
C59   C     C_3   0.709947 0.691384 0.682283 0.090593
H34   H     H_    0.641937 0.734828 0.671876 0.145638
H35   H     H_    0.758819 0.729394 0.664857 0.099522
C60   C     C_3   0.740748 0.670182 0.762903 -0.785419
H36   H     H_    0.803117 0.618979 0.776768 0.251323
H37   H     H_    0.757622 0.729863 0.791760 0.192197
H38   H     H_    0.683436 0.646701 0.781149 0.276851
O13   O     O_3   0.324789 0.500845 0.814325 -0.595743
C61   C     C_3   0.284709 0.424905 0.794123 0.095793
H39   H     H_    0.332910 0.365180 0.819677 0.135518
H40   H     H_    0.266721 0.419799 0.734765 0.135527
C62   C     C_3   0.195294 0.429332 0.818846 -0.807628
H41   H     H_    0.145532 0.488150 0.794234 0.249725
H42   H     H_    0.162425 0.370438 0.802493 0.202736
H43   H     H_    0.211106 0.432444 0.878190 0.259779
O14   O     O_3   0.665986 0.473313 0.178708 -0.605344
C63   C     C_3   0.676745 0.550623 0.144101 0.124513
H44   H     H_    0.610733 0.596969 0.122969 0.114885
H45   H     H_    0.705173 0.531649 0.097364 0.177794
C64   C     C_3   0.746498 0.598170 0.194700 -0.878809
H46   H     H_    0.811304 0.552446 0.219229 0.274183
H47   H     H_    0.764276 0.651763 0.164726 0.215432
H48   H     H_    0.715120 0.626803 0.237292 0.247558
O15   O     O_3   0.670341 0.478138 0.748588 -0.573658
C65   C     C_3   0.715716 0.391091 0.753867 0.121038
H49   H     H_    0.673088 0.350202 0.715549 0.155500
H50   H     H_    0.729612 0.362659 0.809394 0.117946
C66   C     C_3   0.808952 0.389434 0.735270 -0.710443
H51   H     H_    0.852858 0.430038 0.772502 0.226346
H52   H     H_    0.846197 0.321423 0.739907 0.204698
H53   H     H_    0.797520 0.415447 0.679474 0.269379
O16   O     O_3   0.326715 0.505526 0.259157 -0.609689
C67   C     C_3   0.243716 0.532277 0.205247 0.055358
H54   H     H_    0.226766 0.477484 0.169713 0.143362
H55   H     H_    0.249297 0.590247 0.173290 0.152715
C68   C     C_3   0.163372 0.557321 0.240284 -0.830994
H56   H     H_    0.177960 0.610797 0.277534 0.266900
H57   H     H_    0.098038 0.579629 0.198382 0.208728
H58   H     H_    0.153088 0.500509 0.270931 0.245719
O17   O     O_3   0.744417 0.271076 0.602956 -0.660734
C69   C     C_3   0.804476 0.277311 0.557405 0.123280
H59   H     H_    0.821317 0.344804 0.559956 0.164946
H60   H     H_    0.771896 0.267440 0.499737 0.121046
C70   C     C_3   0.895424 0.213529 0.583912 -0.396677
H61   H     H_    0.923518 0.219916 0.642472 0.232758
H62   H     H_    0.881297 0.145664 0.574513 0.214230
C71   C     C_3   0.968711 0.231091 0.545147 -0.934592
H63   H     H_    0.941451 0.227535 0.486224 0.263379
H64   H     H_    0.032109 0.181469 0.563260 0.266159
H65   H     H_    0.988539 0.296572 0.557697 0.273083
O18   O     O_3   0.279026 0.736984 0.377942 -0.668071
C72   C     C_3   0.329533 0.722927 0.324562 0.074780
H66   H     H_    0.334402 0.653133 0.312273 0.206646
H67   H     H_    0.403259 0.735934 0.341504 0.107806
C73   C     C_3   0.277940 0.777588 0.256234 -0.352967
H68   H     H_    0.208989 0.756503 0.234198 0.224390
H69   H     H_    0.266033 0.847456 0.269026 0.223320
C74   C     C_3   0.333974 0.768103 0.199656 -0.957101
H70   H     H_    0.400421 0.794585 0.219061 0.264327
H71   H     H_    0.292949 0.805046 0.149595 0.267836
H72   H     H_    0.350178 0.698549 0.187419 0.263082

loop_
_geom_bond_atom_site_label_1
_geom_bond_atom_site_label_2
_ccdc_geom_bond_type
C18   H18   S    
C15   C18   A    
C71   H64   S    
O9    C53   S    
C17   H17   S    
C70   H62   S    
C58   H32   S    
C74   H70   S    
C62   H42   S    
C27   O10   S    
O10   C55   S    
C68   H56   S    
C5    H15   S    
C64   H48   S    
C63   H44   S    
C57   H30   S    
O15   C65   S    
C39   C41   A    
C39   H1    S    
C21   C31   A    
C22   C32   A    
C46   H10   S    
C2    O2    A    
C72   H67   S    
C3    C7    A    
C67   C68   S    
O3    Zn2   S    
C66   H53   S    
C43   C52   S    
C23   C49   S    
C27   C29   A    
C15   C16   A    
C55   C56   S    
C29   C33   A    
C66   H51   S    
C11   C13   A    
C33   C36   A    
C1    O1    A    
C35   H7    S    
C34   C35   A    
C24   O6    A    
C9    H14   S    
C57   H29   S    
C71   H65   S    
C11   C15   A    
C12   C16   A    
C19   H11   S    
C16   C17   A    
C60   H37   S    
C55   H25   S    
C26   N6    A    
O17   C69   S    
C69   C70   S    
C32   C38   A    
C41   C43   A    
C5    C13   A    
C61   C62   S    
C4    C8    A    
C47   O15   S    
C53   H19   S    
O2    Zn2   S    
C6    H16   S    
O1    Zn1   S    
C70   C71   S    
C73   H69   S    
C74   H71   S    
C42   C44   A    
C65   C66   S    
C27   N5    A    
C10   C12   A    
C59   H35   S    
C59   H34   S    
C61   H40   S    
C45   C47   A    
C24   C50   S    
C7    O18   S    
C46   C48   A    
C30   C34   A    
C14   C20   A    
C62   H41   S    
C72   C73   S    
O8    Zn1   S    
C67   H55   S    
C54   H21   S    
C5    C7    A    
C13   C19   A    
C65   H49   S    
C62   H43   S    
C6    C8    A    
C44   C46   A    
C36   H8    S    
O6    Zn2   S    
C31   C37   A    
C48   O16   S    
C1    C3    S    
C20   H12   S    
C2    C4    S    
C21   H5    S    
O4    Zn1   S    
C3    C9    A    
C26   O11   S    
C54   H22   S    
C43   C45   A    
N5    Zn2   S    
C40   C42   A    
C56   H26   S    
C53   C54   S    
C58   H31   S    
C60   H38   S    
C55   H24   S    
C8    O17   S    
C28   O9    S    
C33   C34   A    
C41   O13   S    
C48   C50   A    
C9    C11   A    
C23   O7    A    
C42   O14   S    
C44   C51   S    
N2    N4    A    
C39   C49   A    
C53   H20   S    
C40   H2    S    
C73   H68   S    
C1    O3    A    
C58   H33   S    
C51   N2    A    
C4    C10   A    
C64   H46   S    
C28   N6    A    
C63   C64   S    
C68   H58   S    
O11   C57   S    
C36   C38   A    
C61   H39   S    
C35   C37   A    
C65   H50   S    
N1    N3    A    
O18   C72   S    
C10   H13   S    
C21   C25   A    
C23   O5    A    
O12   C59   S    
C68   H57   S    
C51   N3    A    
C69   H60   S    
C67   H54   S    
C64   H47   S    
C63   H45   S    
C22   H6    S    
O13   C61   S    
O14   C63   S    
C47   C49   A    
C52   N4    A    
O7    Zn2   S    
C28   C30   A    
C12   C14   A    
C6    C14   A    
C29   C31   A    
C52   N1    A    
C54   H23   S    
C30   C32   A    
C66   H52   S    
C60   H36   S    
C71   H63   S    
C40   C50   A    
C45   H9    S    
C17   C19   A    
C18   C20   A    
C57   C58   S    
C24   O8    A    
C72   H66   S    
C2    O4    A    
C25   O12   S    
C37   H3    S    
C56   H28   S    
C38   H4    S    
C69   H59   S    
C73   C74   S    
C22   C26   A    
C70   H61   S    
C74   H72   S    
C25   N5    A    
N6    Zn1   S    
C56   H27   S    
C59   C60   S    
O5    Zn1   S    
O16   C67   S    
