data_mof_unit_63132.cif
_audit_creation_date              2012-12-10T18:17:35-0500
_audit_creation_method            fapswitch 2.2
_symmetry_space_group_name_H-M    P1
_symmetry_Int_Tables_number       1
_space_group_crystal_system       triclinic
_cell_length_a                    14.660839
_cell_length_b                    15.897925
_cell_length_c                    17.28983
_cell_angle_alpha                 90.037409
_cell_angle_beta                  86.012284
_cell_angle_gamma                 90.264395
_cell_volume                      4020.06091813

loop_
_atom_site_label
_atom_site_type_symbol
_atom_type_description
_atom_site_fract_x
_atom_site_fract_y
_atom_site_fract_z
_atom_type_partial_charge
C1    C     C_R   0.500180 0.660209 0.499973 0.828304
C2    C     C_R   0.396082 0.503893 0.776729 -0.166016
C3    C     C_R   0.456603 0.562893 0.150457 -0.103717
C4    C     C_R   0.452325 0.552871 0.230270 -0.219888
C5    C     C_R   0.589357 0.465545 0.218362 0.402720
C6    C     C_R   0.593793 0.477913 0.138350 -0.117819
C7    C     C_R   0.526387 0.524279 0.104516 0.099706
C8    C     C_2   0.462723 0.486620 0.982140 0.141731
C9    C     C_2   0.526074 0.527633 0.020469 -0.277524
C10   C     C_R   0.517969 0.504381 0.265081 -0.138191
C11   C     C_3   0.416139 0.951025 0.456867 0.019274
C12   C     C_R   0.488179 0.499191 0.650469 0.792517
C13   C     C_3   0.587726 0.951637 0.457622 -0.422488
C14   C     C_3   0.587594 0.049091 0.457286 -0.373828
C15   C     C_1   0.499254 0.250216 0.499877 -0.143304
C16   C     C_3   0.498455 0.917313 0.499897 0.250570
C17   C     C_3   0.415750 0.048726 0.458104 -0.369141
C18   C     C_3   0.498587 0.082709 0.499768 0.255655
C19   C     C_3   0.491968 0.048918 0.584017 -0.365902
C20   C     C_3   0.492828 0.951488 0.584145 -0.354903
C21   C     C_1   0.498884 0.174750 0.499819 -0.074249
C22   C     C_1   0.499880 0.825233 0.499897 -0.060760
C23   C     C_R   0.499798 0.339787 0.499951 0.826018
C24   C     C_1   0.500462 0.749771 0.499926 -0.140620
C25   C     C_3   0.946203 0.415175 0.470050 -0.470770
C26   C     C_3   0.940689 0.510904 0.585459 0.236110
C27   C     C_3   0.047229 0.519425 0.582691 -0.011507
C28   C     C_3   0.907885 0.500206 0.501924 0.065847
C29   C     C_3   0.053294 0.412377 0.468751 0.312126
C30   C     C_3   0.092081 0.497920 0.499907 -0.004067
C31   C     C_3   0.058325 0.569357 0.447084 -0.446852
C32   C     C_3   0.951540 0.571161 0.449288 -0.328372
C33   C     C_1   0.195246 0.498386 0.498810 0.229783
C34   C     C_R   0.511775 0.499233 0.349625 0.780228
C35   C     C_1   0.804734 0.501031 0.501819 0.138757
C36   C     C_R   0.481307 0.495641 0.735159 -0.043719
C37   C     C_R   0.560004 0.482385 0.775064 -0.175714
C38   C     C_R   0.553749 0.478110 0.855428 -0.162301
C39   C     C_R   0.468850 0.487988 0.897102 0.119349
C40   C     C_R   0.389967 0.500107 0.857333 -0.116655
Cu1   Cu    Cu3+1 0.410070 0.500090 0.500100 1.025517
Cu2   Cu    Cu3+1 0.589930 0.499910 0.499900 0.988765
H1    H     H_    0.626340 0.474724 0.744257 0.157671
H2    H     H_    0.647269 0.447572 0.102086 0.163298
H3    H     H_    0.418439 0.072838 0.397550 0.164444
H4    H     H_    0.423600 0.929673 0.395425 0.136867
H5    H     H_    0.648198 0.928798 0.486886 0.188908
H6    H     H_    0.594439 0.928032 0.396871 0.173331
H7    H     H_    0.593610 0.072219 0.396383 0.178088
H8    H     H_    0.648165 0.072938 0.486122 0.183674
H9    H     H_    0.430455 0.927318 0.617264 0.201692
H10   H     H_    0.552551 0.929088 0.614662 0.170058
H11   H     H_    0.427972 0.071615 0.615534 0.189455
H12   H     H_    0.397882 0.583699 0.264999 0.174686
H13   H     H_    0.351332 0.072464 0.487996 0.210840
H14   H     H_    0.550342 0.073066 0.615575 0.173750
H15   H     H_    0.915519 0.363071 0.506127 0.181924
H16   H     H_    0.920217 0.453739 0.620015 0.122993
H17   H     H_    0.064162 0.586379 0.594604 0.191504
H18   H     H_    0.929535 0.563914 0.389325 0.185009
H19   H     H_    0.926695 0.633471 0.470895 0.209734
H20   H     H_    0.086953 0.562233 0.386332 0.214289
H21   H     H_    0.923131 0.405079 0.410839 0.211494
H22   H     H_    0.083711 0.631450 0.466504 0.190009
H23   H     H_    0.581612 0.561611 0.989303 0.147790
H24   H     H_    0.323971 0.508213 0.888555 0.167543
H25   H     H_    0.404705 0.599456 0.124269 0.163911
H26   H     H_    0.334347 0.513934 0.747089 0.182028
H27   H     H_    0.615239 0.466701 0.885023 0.140402
N1    N     N_1   0.275150 0.498610 0.498410 -0.133112
N2    N     N_1   0.724850 0.501380 0.501620 -0.150317
O1    O     O_R   0.424030 0.620640 0.500090 -0.565846
O2    O     O_R   0.575910 0.620490 0.499920 -0.570635
O3    O     O_R   0.415250 0.500090 0.613690 -0.570624
O4    O     O_R   0.567140 0.499950 0.613520 -0.586809
O5    O     O_R   0.424090 0.379510 0.500080 -0.548789
O6    O     O_R   0.575970 0.379360 0.499910 -0.579815
O7    O     O_R   0.432860 0.500050 0.386480 -0.566262
O8    O     O_R   0.584750 0.499910 0.386310 -0.568431
I1    I     I_    0.285532 0.901535 0.501994 -0.371164
I2    I     I_    0.094692 0.302410 0.530366 -0.275325
O9    O     O_3   0.900871 0.582465 0.621629 -0.715620
H28   H     H_    0.840226 0.565092 0.645645 0.326418
I3    I     I_    0.103232 0.460256 0.681188 -0.322028
O10   O     O_3   0.653614 0.413274 0.247451 -0.712361
H29   H     H_    0.627964 0.388556 0.296809 0.328849
I4    I     I_    0.108110 0.386184 0.351523 -0.305588
I5    I     I_    0.355773 0.413611 0.039914 -0.312606

loop_
_geom_bond_atom_site_label_1
_geom_bond_atom_site_label_2
_ccdc_geom_bond_type
C19   H14   S    
C12   O3    A    
C18   C21   S    
Cu1   Cu2   S    
C14   C18   S    
C19   C20   S    
C23   O5    A    
C14   H8    S    
O10   H29   S    
C25   C28   S    
C26   C27   S    
C29   C30   S    
C36   C37   A    
C17   H3    S    
C32   H19   S    
C20   H9    S    
C2    H26   S    
C38   C39   A    
C14   H7    S    
C18   C19   S    
C25   H21   S    
Cu1   O3    S    
C11   C17   S    
C28   C35   S    
C8    C9    D    
C8    C39   S    
C12   C36   S    
C17   H13   S    
C5    O10   S    
C19   H11   S    
C15   C23   S    
C38   H27   S    
C35   N2    T    
Cu2   O8    S    
C26   O9    S    
C6    H2    S    
C13   C14   S    
C27   C30   S    
C31   H20   S    
C25   H15   S    
C25   C29   S    
C1    O1    A    
C28   C32   S    
Cu1   O7    S    
C13   H5    S    
C3    C7    A    
C8    I5    S    
C37   H1    S    
C29   I2    S    
C37   C38   A    
C34   O8    A    
C11   C16   S    
C31   C32   S    
C30   C31   S    
C16   C20   S    
C17   C18   S    
Cu2   O4    S    
C10   C34   S    
C23   O6    A    
C26   H16   S    
C33   N1    T    
Cu2   O6    S    
Cu1   O1    S    
C22   C24   T    
C12   O4    A    
C32   H18   S    
C4    C10   A    
C3    C4    A    
C39   C40   A    
C2    C36   A    
C7    C9    S    
C27   I3    S    
Cu2   O2    S    
C16   C22   S    
C30   C33   S    
C4    H12   S    
C31   H22   S    
C3    H25   S    
C13   H6    S    
C6    C7    A    
C26   C28   S    
C1    O2    A    
C5    C10   A    
C20   H10   S    
C27   H17   S    
C34   O7    A    
Cu1   O5    S    
C5    C6    A    
Cu2   N2    S    
C9    H23   S    
C29   I4    S    
C11   I1    S    
C2    C40   A    
C15   C21   T    
C1    C24   S    
O9    H28   S    
C13   C16   S    
C11   H4    S    
C40   H24   S    
Cu1   N1    S    
