data_mof_unit_59581.cif
_audit_creation_date              2012-12-10T17:17:25-0500
_audit_creation_method            fapswitch 2.2
_symmetry_space_group_name_H-M    P1
_symmetry_Int_Tables_number       1
_space_group_crystal_system       triclinic
_cell_length_a                    10.191042
_cell_length_b                    10.841289
_cell_length_c                    12.215901
_cell_angle_alpha                 90.266716
_cell_angle_beta                  109.237514
_cell_angle_gamma                 95.524008
_cell_volume                      1267.42977593

loop_
_atom_site_label
_atom_site_type_symbol
_atom_type_description
_atom_site_fract_x
_atom_site_fract_y
_atom_site_fract_z
_atom_type_partial_charge
C1    C     C_R   0.054652 0.732322 0.498600 1.030790
C2    C     C_R   0.423058 0.493426 0.992317 0.081944
C3    C     C_R   0.326823 0.447064 0.885323 0.062544
C4    C     C_R   0.563130 0.466615 0.021953 -0.055129
C5    C     C_R   0.595993 0.370690 0.958557 0.123818
C6    C     C_R   0.493392 0.310849 0.863110 -0.283473
C7    C     C_R   0.357974 0.344820 0.828354 -0.036433
C8    C     C_R   0.672038 0.529113 0.113989 0.359646
C9    C     C_R   0.824467 0.374372 0.101922 -0.259266
C10   C     C_R   0.202216 0.504157 0.840514 -0.091088
C11   C     C_2   0.087225 0.864640 0.501871 -0.502471
C12   C     C_R   0.133065 0.507250 0.714901 0.945335
C13   C     C_2   0.030960 0.940035 0.557896 0.502501
C14   C     C_2   0.927623 0.135837 0.524777 -0.221293
C15   C     C_2   0.030065 0.067340 0.524892 -0.253264
C16   C     C_2   0.432252 0.511024 0.509576 -0.119946
C17   C     C_2   0.567502 0.489793 0.489491 -0.105336
C18   C     C_R   0.947956 0.267144 0.506634 0.934640
C19   C     C_R   0.866678 0.490088 0.285713 0.934242
C20   C     C_R   0.728980 0.329301 0.996486 -0.152639
C21   C     C_R   0.792324 0.469999 0.162962 -0.157154
C22   C     C_R   0.155081 0.572226 0.915638 -0.126998
C23   C     C_R   0.237502 0.592530 0.031427 -0.129152
C24   C     C_R   0.372023 0.555816 0.069259 -0.089986
H1    H     H_    0.919808 0.330548 0.138375 0.183322
H2    H     H_    0.837084 0.097971 0.546464 0.194846
H3    H     H_    0.141683 0.901342 0.444043 0.139988
H4    H     H_    0.565379 0.418610 0.426018 0.156418
H5    H     H_    0.434084 0.583266 0.571996 0.181329
H6    H     H_    0.684173 0.618808 0.605810 0.216416
H7    H     H_    0.316075 0.378933 0.396177 0.162546
H8    H     H_    0.516939 0.232460 0.819798 0.148198
H9    H     H_    0.754415 0.254692 0.950120 0.169286
H10   H     H_    0.056117 0.611262 0.884633 0.201961
H11   H     H_    0.433527 0.572863 0.159408 0.193772
H12   H     H_    0.199810 0.641679 0.090561 0.171521
H13   H     H_    0.116787 0.104843 0.497567 0.150617
N1    N     N_2   0.313640 0.446500 0.454900 -0.200781
N2    N     N_2   0.686360 0.553430 0.545150 -0.158419
O1    O     O_R   0.936910 0.692950 0.509080 -0.522489
O2    O     O_R   0.138320 0.658600 0.480130 -0.613713
O3    O     O_R   0.002900 0.525670 0.675280 -0.581605
O4    O     O_R   0.204310 0.491320 0.646330 -0.629771
O5    O     O_R   0.861680 0.341400 0.519870 -0.617487
O6    O     O_R   0.063090 0.307050 0.490920 -0.626869
O7    O     O_R   0.795690 0.508680 0.353670 -0.580349
O8    O     O_R   0.997100 0.474330 0.324720 -0.619655
Zn1   Zn    Zn3+2 0.865520 0.522940 0.519330 1.049953
Zn2   Zn    Zn3+2 0.134480 0.477060 0.480670 0.953400
S1    S     S_3+6 0.965509 0.893992 0.671911 0.036099
O9    O     O_2   0.813525 0.846792 0.620682 -0.328042
O10   O     O_2   0.045871 0.794030 0.739090 -0.329786
O11   O     O_3   0.981473 0.015501 0.762937 -0.500381
H14   H     H_    0.937150 0.983725 0.819655 0.385216
S2    S     S_3+6 0.679897 0.690440 0.149320 0.006976
O12   O     O_2   0.826145 0.749220 0.169494 -0.320714
O13   O     O_2   0.580834 0.753626 0.051596 -0.274847
O14   O     O_3   0.640661 0.710219 0.271293 -0.566051
H15   H     H_    0.669568 0.798906 0.294878 0.389047
C25   C     C_2   0.248411 0.256226 0.749277 0.483748
H16   H     H_    0.273782 0.196972 0.688913 0.051741
O15   O     O_2   0.131180 0.243332 0.756131 -0.547273

loop_
_geom_bond_atom_site_label_1
_geom_bond_atom_site_label_2
_ccdc_geom_bond_type
H6    N2    S    
S1    O10   D    
C23   C24   A    
C18   O6    A    
C6    C7    A    
C18   O5    A    
C14   C18   S    
C9    C20   A    
C2    C4    A    
C1    C11   S    
H7    N1    S    
O6    Zn2   S    
C4    C8    A    
N2    Zn1   S    
S2    O12   D    
S2    O13   D    
C2    C3    A    
O14   H15   S    
C19   O7    A    
C9    H1    S    
O8    Zn2   S    
N1    Zn2   S    
O3    Zn1   S    
O11   H14   S    
C14   H2    S    
C11   C13   D    
C9    C21   A    
C10   C12   S    
C25   H16   S    
C20   H9    S    
C8    S2    S    
O2    Zn2   S    
C19   C21   S    
C11   H3    S    
S1    O9    D    
C12   O4    A    
C3    C7    A    
C13   C15   S    
C2    C24   A    
C5    C6    A    
C22   H10   S    
C5    C20   A    
C19   O8    A    
S1    O11   S    
O4    Zn2   S    
C13   S1    S    
C24   H11   S    
O7    Zn1   S    
C7    C25   S    
C15   H13   S    
C25   O15   D    
C23   H12   S    
C17   N2    D    
S2    O14   S    
C1    O2    A    
C3    C10   A    
O1    Zn1   S    
C14   C15   D    
C4    C5    A    
C12   O3    A    
C1    O1    A    
C16   H5    S    
C22   C23   A    
C17   H4    S    
C10   C22   A    
O5    Zn1   S    
C16   N1    D    
C16   C17   S    
C6    H8    S    
C8    C21   A    
