data_mof_unit_13250.cif
_audit_creation_date              2012-12-10T17:04:29-0500
_audit_creation_method            fapswitch 2.2
_symmetry_space_group_name_H-M    P1
_symmetry_Int_Tables_number       1
_space_group_crystal_system       triclinic
_cell_length_a                    14.957807
_cell_length_b                    10.703656
_cell_length_c                    10.051936
_cell_angle_alpha                 91.43198
_cell_angle_beta                  90.77528
_cell_angle_gamma                 90.333324
_cell_volume                      1608.66693766

loop_
_atom_site_label
_atom_site_type_symbol
_atom_type_description
_atom_site_fract_x
_atom_site_fract_y
_atom_site_fract_z
_atom_type_partial_charge
C1    C     C_R   0.497973 0.262550 0.498091 0.948766
C2    C     C_R   0.188017 0.396667 0.571790 0.090875
C3    C     C_R   0.231782 0.487113 0.497324 -0.114224
C4    C     C_R   0.327154 0.495806 0.499171 0.916406
C5    C     C_R   0.185284 0.571765 0.420314 -0.240116
C6    C     C_2   0.527109 0.931435 0.391745 -0.171943
C7    C     C_2   0.532856 0.867320 0.505010 -0.191359
C8    C     C_2   0.529942 0.066391 0.392560 -0.108074
C9    C     C_2   0.492340 0.130185 0.492584 -0.238560
C10   C     C_2   0.533382 0.589915 0.930830 0.009745
C11   C     C_2   0.516218 0.597707 0.077655 -0.200251
C12   C     C_R   0.906471 0.571986 0.422056 0.077855
C13   C     C_R   0.506518 0.737620 0.501614 0.854553
C14   C     C_R   0.672915 0.496576 0.500900 0.928385
C15   C     C_R   0.814244 0.573069 0.423895 -0.236150
C16   C     C_R   0.768394 0.490158 0.502981 -0.105002
C17   C     C_R   0.813172 0.402294 0.580967 0.096566
C18   C     C_R   0.906799 0.399988 0.579251 0.074387
C19   C     C_R   0.953401 0.485582 0.499726 0.044978
C20   C     C_2   0.573618 0.919350 0.630678 0.487418
C21   C     C_2   0.589620 0.691819 0.880983 0.470885
C22   C     C_R   0.955095 0.314353 0.654572 -0.169071
C23   C     C_R   0.047476 0.312718 0.651745 -0.166329
C24   C     C_R   0.094565 0.397153 0.574160 0.091733
C25   C     C_R   0.046953 0.484894 0.497557 0.017284
C26   C     C_R   0.092696 0.571864 0.418609 0.060218
C27   C     C_R   0.044707 0.657571 0.341399 0.163741
C28   C     C_R   0.951966 0.656624 0.343636 -0.205912
H1    H     H_    0.777599 0.639792 0.364853 0.163821
H2    H     H_    0.915298 0.722690 0.284147 0.177760
H3    H     H_    0.509759 0.885925 0.297011 0.162510
H4    H     H_    0.547646 0.892327 0.725810 0.054586
H5    H     H_    0.589460 0.782438 0.931930 0.009966
H6    H     H_    0.559388 0.112727 0.308564 0.169803
H7    H     H_    0.458542 0.084749 0.573369 0.146857
H8    H     H_    0.458276 0.438359 0.894301 0.172894
H9    H     H_    0.525388 0.687232 0.129146 0.157683
H10   H     H_    0.501104 0.415571 0.099290 0.176780
H11   H     H_    0.922858 0.247670 0.717160 0.190832
H12   H     H_    0.080824 0.245204 0.712727 0.192340
H13   H     H_    0.222672 0.638719 0.364008 0.189458
I1    I     I_    0.738841 0.269178 0.693168 -0.244141
I2    I     I_    0.263790 0.254797 0.670663 -0.376032
I3    I     I_    0.105548 0.791894 0.218258 -0.334511
N1    N     N_2   0.500970 0.501330 0.852150 -0.182920
N2    N     N_2   0.500990 0.501360 0.147810 -0.181062
O1    O     O_R   0.499990 0.319060 0.613040 -0.588341
O2    O     O_2   0.641428 0.674617 0.790174 -0.522203
O3    O     O_R   0.500010 0.319100 0.386900 -0.629269
O4    O     O_R   0.367830 0.499950 0.613080 -0.596634
O5    O     O_R   0.367860 0.499990 0.386940 -0.604987
O6    O     O_R   0.499990 0.680900 0.613100 -0.610351
O7    O     O_R   0.500010 0.680940 0.386960 -0.618336
O8    O     O_R   0.632140 0.500010 0.613060 -0.531406
O9    O     O_R   0.632170 0.500050 0.386920 -0.623477
O10   O     O_2   0.637782 0.990162 0.628358 -0.516306
Zn1   Zn    Zn3+2 0.499980 0.499970 0.650990 1.034249
Zn2   Zn    Zn3+2 0.500020 0.500030 0.349010 0.973633

loop_
_geom_bond_atom_site_label_1
_geom_bond_atom_site_label_2
_ccdc_geom_bond_type
O6    Zn1   S    
C6    C8    S    
C23   C24   A    
C11   H9    S    
C6    C7    D    
C18   C22   A    
C5    C26   A    
O1    Zn1   S    
C13   O6    A    
C13   O7    A    
C12   C15   A    
C20   O10   D    
C2    I2    S    
O7    Zn2   S    
C21   O2    D    
C10   N1    D    
C28   H2    S    
C14   O9    A    
H8    N1    S    
O5    Zn2   S    
C8    H6    S    
N2    Zn2   S    
N1    Zn1   S    
C26   C27   A    
C16   C17   A    
C12   C28   A    
C22   H11   S    
C12   C19   A    
C14   O8    A    
C15   H1    S    
C2    C3    A    
C10   C21   S    
C2    C24   A    
C19   C25   A    
C14   C16   S    
H10   N2    S    
C21   H5    S    
C10   C11   S    
O3    Zn2   S    
C4    O5    A    
C23   H12   S    
C7    C13   S    
C1    C9    S    
C24   C25   A    
C17   C18   A    
C7    C20   S    
C20   H4    S    
O9    Zn2   S    
C27   C28   A    
C9    H7    S    
C5    H13   S    
C22   C23   A    
C18   C19   A    
C11   N2    D    
C6    H3    S    
C25   C26   A    
C17   I1    S    
O4    Zn1   S    
C1    O3    A    
C27   I3    S    
C1    O1    A    
C3    C4    S    
C15   C16   A    
C4    O4    A    
C8    C9    D    
C3    C5    A    
O8    Zn1   S    
