data_mof_unit_27645.cif
_audit_creation_date              2012-12-11T16:19:10-0500
_audit_creation_method            fapswitch 2.2
_symmetry_space_group_name_H-M    P1
_symmetry_Int_Tables_number       1
_space_group_crystal_system       triclinic
_cell_length_a                    6.935591
_cell_length_b                    31.351993
_cell_length_c                    34.985478
_cell_angle_alpha                 89.999987
_cell_angle_beta                  89.999858
_cell_angle_gamma                 89.999981
_cell_volume                      7607.40328639

loop_
_atom_site_label
_atom_site_type_symbol
_atom_type_description
_atom_site_fract_x
_atom_site_fract_y
_atom_site_fract_z
_atom_type_partial_charge
O1    O     O_R   0.417270 0.211480 0.210950 -0.536916
O2    O     O_R   0.582730 0.788520 0.789050 -0.540800
O3    O     O_R   0.582730 0.788520 0.710950 -0.536917
O4    O     O_R   0.417270 0.211480 0.289050 -0.540800
O5    O     O_R   0.917270 0.288520 0.289050 -0.536917
O6    O     O_R   0.082730 0.711480 0.710950 -0.540800
O7    O     O_R   0.082730 0.711480 0.789050 -0.536916
O8    O     O_R   0.917270 0.288520 0.210950 -0.540800
O9    O     O_R   0.746940 0.206370 0.288750 -0.539710
O10   O     O_R   0.253060 0.793630 0.711250 -0.543415
O11   O     O_R   0.253060 0.793630 0.788750 -0.539710
O12   O     O_R   0.746940 0.206370 0.211250 -0.543416
O13   O     O_R   0.246940 0.293630 0.211250 -0.539710
O14   O     O_R   0.753060 0.706370 0.788750 -0.543416
O15   O     O_R   0.753060 0.706370 0.711250 -0.539710
O16   O     O_R   0.246940 0.293630 0.288750 -0.543416
C1    C     C_R   0.577996 0.195927 0.302001 0.732540
C2    C     C_R   0.421945 0.804117 0.698054 0.731542
C3    C     C_R   0.422004 0.804073 0.802001 0.732539
C4    C     C_R   0.578055 0.195882 0.198054 0.731543
C5    C     C_R   0.077996 0.304073 0.197999 0.732540
C6    C     C_R   0.921945 0.695882 0.801945 0.731542
C7    C     C_R   0.922004 0.695927 0.697999 0.732540
C8    C     C_R   0.078054 0.304117 0.301945 0.731541
O17   O     O_3   0.583760 0.276950 0.250000 -0.369870
O18   O     O_3   0.416240 0.723050 0.750000 -0.369870
O19   O     O_3   0.083760 0.223050 0.250000 -0.369870
O20   O     O_3   0.916240 0.776950 0.750000 -0.369870
V1    V     V_3+5 0.858600 0.245000 0.250000 1.422232
V2    V     V_3+5 0.141400 0.755000 0.750000 1.422233
V3    V     V_3+5 0.358600 0.255000 0.250000 1.422233
V4    V     V_3+5 0.641400 0.745000 0.750000 1.422233
C9    C     C_R   0.958333 0.587743 0.538116 0.592124
C10   C     C_R   0.025852 0.412294 0.461540 0.595343
C11   C     C_R   0.041724 0.412257 0.038116 0.592124
C12   C     C_R   0.974093 0.587705 0.961540 0.595341
C13   C     C_R   0.458178 0.912258 0.961884 0.592123
C14   C     C_R   0.526002 0.087702 0.038460 0.595341
C15   C     C_R   0.541749 0.087743 0.461884 0.592122
C16   C     C_R   0.474068 0.912296 0.538460 0.595344
N1    N     N_R   0.961374 0.573316 0.575140 -0.570879
N2    N     N_R   0.028810 0.426816 0.424540 -0.570096
N3    N     N_R   0.038630 0.426683 0.075140 -0.570881
N4    N     N_R   0.971187 0.573183 0.924539 -0.570092
N5    N     N_R   0.461366 0.926683 0.924860 -0.570886
N6    N     N_R   0.528815 0.073182 0.075461 -0.570086
N7    N     N_R   0.538630 0.073317 0.424860 -0.570883
N8    N     N_R   0.471187 0.926817 0.575461 -0.570091
C17   C     C_R   0.972403 0.530538 0.583077 0.573326
C18   C     C_R   0.014267 0.469548 0.416602 0.576850
C19   C     C_R   0.027545 0.469461 0.083077 0.573328
C20   C     C_R   0.985785 0.530452 0.916601 0.576849
C21   C     C_R   0.472548 0.969459 0.916923 0.573332
C22   C     C_R   0.514120 0.030453 0.083400 0.576845
C23   C     C_R   0.527519 0.030539 0.416923 0.573330
C24   C     C_R   0.485811 0.969548 0.583399 0.576846
C25   C     C_R   0.983565 0.500428 0.553215 -0.032132
C26   C     C_R   0.998103 0.499571 0.446439 -0.032254
C27   C     C_R   0.016380 0.499571 0.053216 -0.032134
C28   C     C_R   0.001952 0.500429 0.946439 -0.032252
C29   C     C_R   0.483716 0.999569 0.946784 -0.032137
C30   C     C_R   0.497949 0.000430 0.053561 -0.032250
C31   C     C_R   0.516354 0.000429 0.446784 -0.032135
C32   C     C_R   0.501979 0.999570 0.553561 -0.032251
C33   C     C_R   0.983335 0.514819 0.515069 -0.016724
C34   C     C_R   0.997238 0.485160 0.484577 -0.016936
C35   C     C_R   0.016666 0.485180 0.015069 -0.016724
C36   C     C_R   0.002762 0.514840 0.984577 -0.016936
C37   C     C_R   0.483333 0.985180 0.984931 -0.016723
C38   C     C_R   0.497238 0.014839 0.015422 -0.016935
C39   C     C_R   0.516665 0.014820 0.484931 -0.016723
C40   C     C_R   0.502762 0.985160 0.515423 -0.016936
C41   C     C_R   0.969944 0.558816 0.507347 -0.040533
C42   C     C_R   0.010822 0.441167 0.492296 -0.040298
C43   C     C_R   0.030113 0.441184 0.007347 -0.040531
C44   C     C_R   0.989122 0.558832 0.992296 -0.040298
C45   C     C_R   0.469787 0.941185 0.992653 -0.040528
C46   C     C_R   0.510975 0.058830 0.007704 -0.040298
C47   C     C_R   0.530139 0.058815 0.492653 -0.040530
C48   C     C_R   0.489096 0.941168 0.507704 -0.040299
C49   C     C_R   0.996331 0.456418 0.560557 -0.132330
C50   C     C_R   0.983721 0.543554 0.439088 -0.131977
C51   C     C_R   0.003559 0.543580 0.060557 -0.132329
C52   C     C_R   0.016390 0.456447 0.939087 -0.131979
C53   C     C_R   0.496635 0.043576 0.939442 -0.132328
C54   C     C_R   0.483414 0.956449 0.060913 -0.131983
C55   C     C_R   0.503507 0.956421 0.439443 -0.132329
C56   C     C_R   0.516442 0.043552 0.560913 -0.131981
C57   C     C_R   0.009633 0.427161 0.530482 -0.128146
C58   C     C_R   0.969672 0.572799 0.469155 -0.128629
C59   C     C_R   0.990257 0.572837 0.030483 -0.128145
C60   C     C_R   0.030439 0.427202 0.969155 -0.128630
C61   C     C_R   0.509937 0.072833 0.969516 -0.128142
C62   C     C_R   0.469364 0.927205 0.030846 -0.128634
C63   C     C_R   0.490205 0.927164 0.469517 -0.128143
C64   C     C_R   0.530492 0.072797 0.530845 -0.128631
O21   O     O_2   0.944960 0.629947 0.531096 -0.496530
O22   O     O_2   0.037657 0.370066 0.468557 -0.496297
O23   O     O_2   0.055147 0.370054 0.031095 -0.496533
O24   O     O_2   0.962238 0.629931 0.968557 -0.496295
O25   O     O_2   0.444665 0.870056 0.968905 -0.496538
O26   O     O_2   0.537945 0.129927 0.031442 -0.496292
O27   O     O_2   0.555196 0.129945 0.468905 -0.496534
O28   O     O_2   0.462190 0.870070 0.531443 -0.496293
O29   O     O_2   0.974183 0.517181 0.619727 -0.511244
O30   O     O_2   0.016641 0.482991 0.379977 -0.510789
O31   O     O_2   0.025713 0.482817 0.119727 -0.511241
O32   O     O_2   0.983462 0.517009 0.879976 -0.510793
O33   O     O_2   0.474471 0.982813 0.880272 -0.511237
O34   O     O_2   0.516354 0.017010 0.120025 -0.510798
O35   O     O_2   0.525663 0.017184 0.380272 -0.511240
O36   O     O_2   0.483512 0.982990 0.620024 -0.510794
H1    H     H_    0.996638 0.444416 0.589584 0.177123
H2    H     H_    0.983751 0.555562 0.410063 0.177223
H3    H     H_    0.003209 0.555581 0.089584 0.177123
H4    H     H_    0.016403 0.444440 0.910062 0.177223
H5    H     H_    0.497062 0.055576 0.910414 0.177123
H6    H     H_    0.483324 0.944443 0.089939 0.177223
H7    H     H_    0.503136 0.944420 0.410415 0.177123
H8    H     H_    0.516476 0.055559 0.589938 0.177223
H9    H     H_    0.019706 0.393535 0.537283 0.179036
H10   H     H_    0.959395 0.606421 0.462352 0.179019
H11   H     H_    0.980140 0.606462 0.037284 0.179036
H12   H     H_    0.040761 0.393581 0.962352 0.179019
H13   H     H_    0.520131 0.106457 0.962715 0.179036
H14   H     H_    0.458965 0.893585 0.037649 0.179018
H15   H     H_    0.480067 0.893540 0.462716 0.179036
H16   H     H_    0.540833 0.106418 0.537648 0.179018
C65   C     C_R   0.881930 0.385991 0.372117 -0.097692
C66   C     C_R   0.781259 0.610610 0.625672 -0.087117
C67   C     C_R   0.118068 0.614008 0.872116 -0.097688
C68   C     C_R   0.218744 0.389390 0.125671 -0.087122
C69   C     C_R   0.381934 0.114008 0.127884 -0.097681
C70   C     C_R   0.281251 0.889388 0.874330 -0.087130
C71   C     C_R   0.618068 0.885992 0.627884 -0.097685
C72   C     C_R   0.718745 0.110611 0.374329 -0.087125
H17   H     H_    0.745369 0.400966 0.378631 0.180096
H18   H     H_    0.654069 0.592762 0.617609 0.168693
H19   H     H_    0.254629 0.599034 0.878630 0.180101
H20   H     H_    0.345934 0.407237 0.117609 0.168691
H21   H     H_    0.245373 0.099033 0.121370 0.180111
H22   H     H_    0.154061 0.907236 0.882392 0.168689
H23   H     H_    0.754629 0.900967 0.621370 0.180103
H24   H     H_    0.845935 0.092763 0.382392 0.168692
C73   C     C_R   0.891976 0.356029 0.342566 -0.186554
C74   C     C_R   0.769558 0.640512 0.655315 -0.173169
C75   C     C_R   0.108022 0.643970 0.842565 -0.186558
C76   C     C_R   0.230444 0.359488 0.155315 -0.173167
C77   C     C_R   0.391979 0.143970 0.157435 -0.186562
C78   C     C_R   0.269553 0.859487 0.844686 -0.173162
C79   C     C_R   0.608022 0.856030 0.657435 -0.186558
C80   C     C_R   0.730445 0.140513 0.344685 -0.173166
H25   H     H_    0.761731 0.348513 0.326874 0.148059
H26   H     H_    0.632458 0.645124 0.669543 0.153625
H27   H     H_    0.238268 0.651487 0.826874 0.148060
H28   H     H_    0.367544 0.354875 0.169542 0.153625
H29   H     H_    0.261731 0.151487 0.173126 0.148061
H30   H     H_    0.132454 0.854874 0.830458 0.153624
H31   H     H_    0.738269 0.848513 0.673126 0.148060
H32   H     H_    0.867544 0.145125 0.330458 0.153625
C81   C     C_R   0.067862 0.336287 0.333240 -0.134134
C82   C     C_R   0.933005 0.663932 0.666534 -0.142486
C83   C     C_R   0.932137 0.663713 0.833240 -0.134135
C84   C     C_R   0.066996 0.336068 0.166534 -0.142485
C85   C     C_R   0.567863 0.163712 0.166761 -0.134136
C86   C     C_R   0.433003 0.836068 0.833466 -0.142484
C87   C     C_R   0.432137 0.836287 0.666760 -0.134135
C88   C     C_R   0.566996 0.163932 0.333466 -0.142485
C89   C     C_R   0.233453 0.347320 0.354312 -0.176989
C90   C     C_R   0.108177 0.656688 0.647232 -0.176251
C91   C     C_R   0.766545 0.652679 0.854311 -0.176992
C92   C     C_R   0.891825 0.343312 0.147232 -0.176249
C93   C     C_R   0.733457 0.152678 0.145689 -0.176996
C94   C     C_R   0.608174 0.843312 0.852769 -0.176245
C95   C     C_R   0.266545 0.847321 0.645689 -0.176993
C96   C     C_R   0.391824 0.156688 0.352768 -0.176248
H33   H     H_    0.370739 0.332535 0.347766 0.146190
H34   H     H_    0.236425 0.674304 0.655201 0.149451
H35   H     H_    0.629259 0.667464 0.847765 0.146190
H36   H     H_    0.763576 0.325696 0.155201 0.149451
H37   H     H_    0.870743 0.167463 0.152236 0.146190
H38   H     H_    0.736422 0.825696 0.844799 0.149450
H39   H     H_    0.129259 0.832536 0.652235 0.146190
H40   H     H_    0.263576 0.174304 0.344799 0.149450
C97   C     C_R   0.224897 0.377103 0.384267 0.408428
C98   C     C_R   0.121510 0.627009 0.617329 0.405697
C99   C     C_R   0.775100 0.622896 0.884266 0.408435
C100  C     C_R   0.878494 0.372990 0.117328 0.405691
C101  C     C_R   0.724903 0.122894 0.115736 0.408446
C102  C     C_R   0.621502 0.872989 0.882673 0.405680
C103  C     C_R   0.275100 0.877104 0.615734 0.408438
C104  C     C_R   0.378494 0.127010 0.382672 0.405688
C105  C     C_R   0.046141 0.396630 0.393456 0.276412
C106  C     C_R   0.955383 0.603684 0.606234 0.272429
C107  C     C_R   0.953856 0.603369 0.893455 0.276401
C108  C     C_R   0.044621 0.396316 0.106233 0.272438
C109  C     C_R   0.546146 0.103367 0.106546 0.276382
C110  C     C_R   0.455375 0.896315 0.893768 0.272454
C111  C     C_R   0.453856 0.896632 0.606545 0.276396
C112  C     C_R   0.544621 0.103685 0.393767 0.272442
O37   O     O_3   0.393684 0.386046 0.403576 -0.643060
H41   H     H_    0.371686 0.409592 0.421884 0.301108
O38   O     O_3   0.298794 0.621927 0.599972 -0.642173
H42   H     H_    0.292384 0.598372 0.581206 0.299582
O39   O     O_3   0.606311 0.613952 0.903574 -0.643058
H43   H     H_    0.628304 0.590403 0.921878 0.301107
O40   O     O_3   0.701211 0.378072 0.099971 -0.642175
H44   H     H_    0.707627 0.401624 0.081201 0.299585
O41   O     O_3   0.893696 0.113947 0.096430 -0.643056
H45   H     H_    0.871713 0.090392 0.078132 0.301104
O42   O     O_3   0.798781 0.878069 0.900032 -0.642178
H46   H     H_    0.792354 0.901615 0.918807 0.299591
O43   O     O_3   0.106310 0.886049 0.596427 -0.643057
H47   H     H_    0.128300 0.909601 0.578125 0.301106
O44   O     O_3   0.201212 0.121929 0.400030 -0.642176
H48   H     H_    0.207632 0.098379 0.418802 0.299588

loop_
_geom_bond_atom_site_label_1
_geom_bond_atom_site_label_2
_ccdc_geom_bond_type
O17   V3    S    
O38   H42   S    
C56   C64   A    
C100  O40   S    
O18   V4    S    
O12   V1    S    
O19   V1    S    
O37   H41   S    
C37   C45   A    
C8    C81   S    
C10   N2    A    
O44   H48   S    
C91   H35   S    
C94   H38   S    
C80   H32   S    
C33   C41   A    
O15   V4    S    
C29   C37   A    
O39   H43   S    
O16   V3    S    
C4    C85   S    
C74   C82   A    
C64   H16   S    
C57   H9    S    
C20   C28   A    
C90   H34   S    
O8    V1    S    
C42   C57   A    
O2    V4    S    
C103  C111  A    
C41   C58   A    
C99   C107  A    
C26   C50   A    
C95   C103  A    
C72   H24   S    
C79   C87   A    
C66   C74   A    
C96   C104  A    
C38   C46   A    
C46   C61   A    
C101  C109  A    
C34   C42   A    
C45   C62   A    
O1    V3    S    
C79   H31   S    
C17   C25   A    
C30   C38   A    
O3    C2    A    
C16   N8    A    
C97   O37   S    
C10   C42   A    
C54   C62   A    
C27   C35   A    
C21   C29   A    
C26   C34   A    
C78   H30   S    
C68   H20   S    
O11   V2    S    
N4    C107  S    
C23   C31   A    
C104  C112  A    
C16   C48   A    
C67   C75   A    
C3    C86   S    
C56   H8    S    
C11   N3    A    
C89   C97   A    
C104  O44   S    
C65   C73   A    
O9    V1    S    
C14   O26   S    
C7    C82   S    
C81   C89   A    
C92   H36   S    
O15   C7    A    
N7    C23   A    
C93   H37   S    
C49   C57   A    
O16   C8    A    
C5    C84   S    
C59   H11   S    
C12   C44   A    
O12   C4    A    
C58   H10   S    
C90   C98   A    
O3    V4    S    
C53   C61   A    
C19   O31   S    
C11   O23   S    
N1    C17   A    
C80   C88   A    
C98   C106  A    
O41   H45   S    
C19   C27   A    
O5    V1    S    
C62   H14   S    
O17   V1    S    
C16   O28   S    
C86   C94   A    
C78   C86   A    
C14   N6    A    
N8    C111  S    
O19   V3    S    
O40   H44   S    
C76   C84   A    
C51   H3    S    
O20   V4    S    
C77   C85   A    
C50   H2    S    
C54   H6    S    
C97   C105  A    
C96   H40   S    
N6    C109  S    
C17   O29   S    
C22   C30   A    
N5    C110  S    
O43   H47   S    
C13   C45   A    
C93   C101  A    
C99   O39   S    
C39   C47   A    
C35   C36   A    
C55   C63   A    
N3    C108  S    
C22   O34   S    
C68   C76   A    
N2    C105  S    
C102  O42   S    
C55   H7    S    
N1    C106  S    
C27   C51   A    
C70   H22   S    
C30   C54   A    
O10   V2    S    
C52   C60   A    
O42   H46   S    
C82   C90   A    
O11   C3    A    
N6    C22   A    
C24   C32   A    
O8    C5    A    
C18   C26   A    
C69   C77   A    
C12   O24   S    
O9    C1    A    
C48   C63   A    
C53   H5    S    
C28   C36   A    
C31   C39   A    
C29   C53   A    
C43   C60   A    
C94   C102  A    
C88   C96   A    
O4    C1    A    
C9    C41   A    
O6    V2    S    
N2    C18   A    
O18   V2    S    
C89   H33   S    
C74   H26   S    
C25   C49   A    
N7    C112  S    
C12   N4    A    
C23   O35   S    
C35   C43   A    
C13   N5    A    
C51   C59   A    
C66   H18   S    
C71   C111  A    
C83   C91   A    
C102  C110  A    
C15   N7    A    
C21   O33   S    
N8    C24   A    
C84   C92   A    
O1    C4    A    
C69   C109  A    
C70   C110  A    
C31   C55   A    
O2    C3    A    
C95   H39   S    
O13   V3    S    
C67   C107  A    
C11   C43   A    
C25   C33   A    
C66   C106  A    
C1    C88   S    
O7    V2    S    
N4    C20   A    
C103  O43   S    
C65   C105  A    
C2    C87   S    
C15   O27   S    
C75   H27   S    
C36   C44   A    
O7    C6    A    
C14   C46   A    
C69   H21   S    
C50   C58   A    
C91   C99   A    
C9    N1    A    
O14   C6    A    
C60   H12   S    
C73   H25   S    
C39   C40   A    
C40   C48   A    
C75   C83   A    
O13   C5    A    
C13   O25   S    
C6    C83   S    
C28   C52   A    
N3    C19   A    
O5    C8    A    
C73   C81   A    
O10   C2    A    
C71   C79   A    
O6    C7    A    
O20   V2    S    
C71   H23   S    
C10   O22   S    
C24   O36   S    
C98   O38   S    
C87   C95   A    
C9    O21   S    
C32   C40   A    
C37   C38   A    
C61   H13   S    
C72   C112  A    
O4    V3    S    
C67   H19   S    
C44   C59   A    
N5    C21   A    
C63   H15   S    
C47   C64   A    
C65   H17   S    
C100  C108  A    
C52   H4    S    
C33   C34   A    
C49   H1    S    
C18   O30   S    
C20   O32   S    
C101  O41   S    
C76   H28   S    
C77   H29   S    
C72   C80   A    
C85   C93   A    
O14   V4    S    
C32   C56   A    
C68   C108  A    
C92   C100  A    
C15   C47   A    
C70   C78   A    
