data_mof_unit_58464.cif
_audit_creation_date              2012-10-26T17:12:45-0400
_audit_creation_method            fapswitch 2.2
_symmetry_space_group_name_H-M    P1
_symmetry_Int_Tables_number       1
_space_group_crystal_system       triclinic
_cell_length_a                    27.967619
_cell_length_b                    18.664053
_cell_length_c                    16.819654
_cell_angle_alpha                 90.330015
_cell_angle_beta                  63.118988
_cell_angle_gamma                 90.189439
_cell_volume                      7830.87741861

loop_
_atom_site_label
_atom_site_type_symbol
_atom_type_description
_atom_site_fract_x
_atom_site_fract_y
_atom_site_fract_z
_atom_type_partial_charge
C1    C     C_R   0.292895 0.723899 0.330619 0.557659
C2    C     C_R   0.588769 0.999836 0.539157 0.020692
C3    C     C_R   0.702940 0.690873 0.896881 0.020723
C4    C     C_R   0.114566 0.809305 0.036790 -0.113623
C5    C     C_R   0.886908 0.185972 0.956597 -0.118118
C6    C     C_R   0.893208 0.808129 0.950162 -0.114614
C7    C     C_R   0.127758 0.163464 0.038789 -0.113743
C8    C     C_R   0.614567 0.309305 0.036790 -0.113628
C9    C     C_R   0.386908 0.685969 0.956595 -0.118113
C10   C     C_R   0.393222 0.308110 0.950156 -0.114629
C11   C     C_R   0.627741 0.663495 0.038795 -0.113746
C12   C     C_R   0.140201 0.783542 0.085180 -0.131810
C13   C     C_R   0.910405 0.500051 0.464464 0.020846
C14   C     C_R   0.860568 0.208735 0.908748 -0.134282
C15   C     C_R   0.868899 0.781002 0.899714 -0.133884
C16   C     C_R   0.159747 0.171602 0.081529 -0.136142
C17   C     C_R   0.640201 0.283543 0.085180 -0.131811
C18   C     C_R   0.360566 0.708730 0.908746 -0.134288
C19   C     C_R   0.368916 0.280977 0.899704 -0.133877
C20   C     C_R   0.659726 0.671645 0.081541 -0.136140
C21   C     C_R   0.277523 0.780020 0.762713 -0.113769
C22   C     C_R   0.726045 0.218835 0.232404 -0.115763
C23   C     C_R   0.762041 0.688075 0.207022 -0.114105
C24   C     C_R   0.088770 0.499836 0.539153 0.020686
C25   C     C_R   0.280400 0.212573 0.756229 -0.114701
C26   C     C_R   0.777523 0.280020 0.762713 -0.113769
C27   C     C_R   0.226046 0.718833 0.232403 -0.115780
C28   C     C_R   0.262060 0.188045 0.207013 -0.114113
C29   C     C_R   0.780392 0.712579 0.756238 -0.114697
C30   C     C_R   0.305225 0.761527 0.809850 -0.132854
C31   C     C_R   0.697391 0.235055 0.185503 -0.134323
C32   C     C_R   0.733213 0.669425 0.161158 -0.139635
C33   C     C_R   0.311702 0.226592 0.799642 -0.135543
C34   C     C_R   0.805226 0.261527 0.809850 -0.132854
C35   C     C_R   0.582396 0.870530 0.550918 -0.120860
C36   C     C_R   0.197392 0.735052 0.185502 -0.134324
C37   C     C_R   0.233238 0.169383 0.161143 -0.139635
C38   C     C_R   0.811690 0.726604 0.799653 -0.135543
C39   C     C_R   0.927407 0.900993 0.065037 0.564290
C40   C     C_R   0.072907 0.098874 0.934889 0.548701
C41   C     C_R   0.073226 0.902100 0.933788 0.557624
C42   C     C_R   0.928791 0.100583 0.064341 0.546458
C43   C     C_R   0.427401 0.400999 0.065042 0.564360
C44   C     C_R   0.572904 0.598877 0.934891 0.548674
C45   C     C_R   0.573226 0.402100 0.933787 0.557593
C46   C     C_R   0.416733 0.129366 0.453267 -0.121475
C47   C     C_R   0.428792 0.600585 0.064340 0.546370
C48   C     C_R   0.040229 0.629753 0.530373 0.008088
C49   C     C_R   0.958716 0.370126 0.474039 0.007432
C50   C     C_R   0.958015 0.629907 0.478116 0.006933
C51   C     C_R   0.040726 0.369950 0.526906 0.009626
C52   C     C_R   0.540228 0.129753 0.530375 0.008091
C53   C     C_R   0.458716 0.870126 0.474040 0.007432
C54   C     C_R   0.458014 0.129907 0.478117 0.006932
C55   C     C_R   0.540725 0.869950 0.526908 0.009632
C56   C     C_R   0.018729 0.694743 0.519761 -0.133765
C57   C     C_R   0.417361 0.870871 0.449341 -0.124882
C58   C     C_R   0.980050 0.305131 0.485108 -0.135402
C59   C     C_R   0.979058 0.694839 0.491039 -0.135176
C60   C     C_R   0.019561 0.305028 0.514241 -0.132409
C61   C     C_R   0.518728 0.194743 0.519762 -0.133766
C62   C     C_R   0.480050 0.805130 0.485110 -0.135400
C63   C     C_R   0.479057 0.194839 0.491041 -0.135180
C64   C     C_R   0.519561 0.805028 0.514243 -0.132407
C65   C     C_R   0.977878 0.564850 0.491937 0.023925
C66   C     C_R   0.020818 0.435001 0.513075 0.023381
C67   C     C_R   0.020533 0.564780 0.514900 0.023656
C68   C     C_R   0.582062 0.129052 0.553888 -0.119094
C69   C     C_R   0.978222 0.435075 0.489936 0.023416
C70   C     C_R   0.477877 0.064850 0.491939 0.023926
C71   C     C_R   0.520818 0.935001 0.513078 0.023383
C72   C     C_R   0.520533 0.064780 0.514902 0.023658
C73   C     C_R   0.478221 0.935075 0.489938 0.023416
C74   C     C_R   0.456052 0.000003 0.480560 -0.007450
C75   C     C_R   0.542776 0.999857 0.524068 -0.007707
C76   C     C_R   0.956052 0.500003 0.480558 -0.007450
C77   C     C_R   0.042777 0.499857 0.524065 -0.007710
C78   C     C_R   0.387782 0.934265 0.456139 -0.004509
C79   C     C_R   0.082397 0.370531 0.550916 -0.120864
C80   C     C_R   0.611705 0.065656 0.546517 -0.004119
C81   C     C_R   0.611858 0.934043 0.545342 -0.003441
C82   C     C_R   0.387479 0.065857 0.457836 -0.003129
C83   C     C_R   0.887782 0.434265 0.456138 -0.004507
C84   C     C_R   0.111706 0.565655 0.546513 -0.004119
C85   C     C_R   0.111859 0.434043 0.545339 -0.003446
C86   C     C_R   0.887479 0.565858 0.457835 -0.003128
C87   C     C_R   0.336213 0.934401 0.457462 -0.029177
C88   C     C_R   0.663607 0.065577 0.543774 -0.024326
C89   C     C_R   0.663674 0.934415 0.543291 -0.031249
C90   C     C_R   0.916734 0.629366 0.453266 -0.121470
C91   C     C_R   0.336061 0.065504 0.458304 -0.024921
C92   C     C_R   0.836213 0.434401 0.457461 -0.029176
C93   C     C_R   0.163609 0.565577 0.543767 -0.024340
C94   C     C_R   0.163676 0.434415 0.543284 -0.031264
C95   C     C_R   0.836061 0.565504 0.458303 -0.024918
C96   C     C_R   0.311996 0.999884 0.457310 -0.176832
C97   C     C_R   0.687887 0.000087 0.543682 -0.175560
C98   C     C_R   0.811996 0.499884 0.457310 -0.176831
C99   C     C_R   0.187892 0.500087 0.543668 -0.175591
C100  C     C_3   0.158250 0.948864 0.717912 0.036882
C101  C     C_R   0.917362 0.370871 0.449340 -0.124880
C102  C     C_3   0.131958 0.998200 0.676717 -0.221935
C103  C     C_3   0.133017 0.966334 0.592192 -0.399500
C104  C     C_3   0.925618 0.239099 0.226357 0.035267
C105  C     C_3   0.976227 0.247356 0.137427 -0.284044
C106  C     C_3   0.010737 0.309868 0.140162 -0.488136
C107  C     C_3   0.827832 0.939504 0.274414 0.025352
C108  C     C_3   0.845749 0.002593 0.313112 -0.221837
C109  C     C_3   0.855571 0.981344 0.391947 -0.375155
C110  C     C_3   0.077381 0.246264 0.784207 0.031336
C111  C     C_3   0.034677 0.261555 0.880032 -0.288752
C112  C     C_R   0.709646 0.280370 0.666725 0.573046
C113  C     C_R   0.082063 0.629052 0.553886 -0.119093
C114  C     C_3   0.999240 0.324760 0.883815 -0.482860
C115  C     C_3   0.658251 0.448867 0.717915 0.036879
C116  C     C_3   0.631961 0.498205 0.676720 -0.221934
C117  C     C_3   0.633025 0.466345 0.592189 -0.399501
C118  C     C_3   0.425619 0.739135 0.226337 0.035300
C119  C     C_3   0.476217 0.747407 0.137393 -0.284051
C120  C     C_3   0.510728 0.809919 0.140122 -0.488121
C121  C     C_3   0.327566 0.439474 0.274463 0.025181
C122  C     C_3   0.345355 0.502741 0.313084 -0.221862
C123  C     C_3   0.355456 0.481658 0.391691 -0.374692
C124  C     C_R   0.223272 0.769999 0.949075 0.043490
C125  C     C_3   0.577378 0.746259 0.784188 0.031338
C126  C     C_3   0.534674 0.761559 0.880010 -0.288755
C127  C     C_3   0.499236 0.824758 0.883780 -0.482858
C128  C     C_R   0.778770 0.226898 0.045998 0.043165
C129  C     C_R   0.795788 0.735417 0.033549 0.044652
C130  C     C_R   0.235564 0.201858 0.941204 0.044040
C131  C     C_R   0.723273 0.270000 0.949075 0.043490
C132  C     C_R   0.278770 0.726896 0.045997 0.043161
C133  C     C_R   0.295807 0.235382 0.033536 0.044652
C134  C     C_R   0.735548 0.701887 0.941216 0.044040
C135  C     C_R   0.278682 0.752731 0.903180 0.013052
C136  C     C_R   0.707826 0.722988 0.668898 0.559680
C137  C     C_R   0.723187 0.243107 0.092011 0.011848
C138  C     C_R   0.746932 0.698021 0.076757 0.011393
C139  C     C_R   0.289347 0.225628 0.893161 0.011931
C140  C     C_R   0.778683 0.252733 0.903180 0.013050
C141  C     C_R   0.223187 0.743105 0.092011 0.011848
C142  C     C_R   0.246954 0.197979 0.076742 0.011390
C143  C     C_R   0.789331 0.725653 0.893172 0.011933
C144  C     C_R   0.306195 0.729624 0.951645 0.013077
C145  C     C_R   0.695259 0.265224 0.043264 0.011750
C146  C     C_R   0.714266 0.688674 0.033531 0.011865
C147  C     C_R   0.295511 0.269789 0.328755 0.566539
C148  C     C_R   0.318354 0.247420 0.940722 0.012182
C149  C     C_R   0.806196 0.229627 0.951646 0.013079
C150  C     C_R   0.195259 0.765222 0.043264 0.011749
C151  C     C_R   0.214286 0.188634 0.033518 0.011864
C152  C     C_R   0.818337 0.747450 0.940734 0.012183
C153  C     C_R   0.142432 0.818154 0.944114 -0.036372
C154  C     C_R   0.860670 0.182775 0.049764 -0.035682
C155  C     C_R   0.867373 0.805418 0.044318 -0.039079
C156  C     C_R   0.149215 0.167662 0.945353 -0.037763
C157  C     C_R   0.642432 0.318155 0.944113 -0.036371
C158  C     C_R   0.792894 0.223897 0.330620 0.557659
C159  C     C_R   0.360671 0.682775 0.049762 -0.035650
C160  C     C_R   0.367384 0.305399 0.044311 -0.039110
C161  C     C_R   0.649202 0.667683 0.945358 -0.037767
C162  C     C_R   0.119700 0.852828 0.893434 -0.021479
C163  C     C_R   0.886326 0.156580 0.099749 -0.026082
C164  C     C_R   0.884868 0.844846 0.099921 -0.023204
C165  C     C_R   0.118648 0.150731 0.898946 -0.025410
C166  C     C_R   0.619701 0.352829 0.893434 -0.021479
C167  C     C_R   0.386329 0.656584 0.099746 -0.026130
C168  C     C_R   0.384862 0.344850 0.099921 -0.023176
C169  C     C_R   0.209646 0.780370 0.666725 0.573054
C170  C     C_R   0.618640 0.650741 0.898948 -0.025410
C171  C     C_R   0.146312 0.847479 0.799810 0.211740
C172  C     C_R   0.867103 0.179470 0.188287 0.208784
C173  C     C_R   0.857063 0.836211 0.193186 0.211598
C174  C     C_R   0.135838 0.177690 0.812677 0.211119
C175  C     C_R   0.646313 0.347480 0.799809 0.211742
C176  C     C_R   0.367108 0.679483 0.188280 0.208673
C177  C     C_R   0.357032 0.336245 0.193188 0.211682
C178  C     C_R   0.635833 0.677694 0.812676 0.211124
C179  C     C_R   0.192568 0.805984 0.758643 -0.031495
C180  C     C_R   0.207828 0.222986 0.668898 0.559685
C181  C     C_R   0.813906 0.204529 0.235043 -0.033124
C182  C     C_R   0.819316 0.780731 0.230704 -0.027284
C183  C     C_R   0.189368 0.200851 0.762934 -0.031305
C184  C     C_R   0.692569 0.305985 0.758643 -0.031496
C185  C     C_R   0.313908 0.704534 0.235041 -0.033131
C186  C     C_R   0.319312 0.280731 0.230703 -0.027362
C187  C     C_R   0.689363 0.700856 0.762936 -0.031304
C188  C     C_R   0.222080 0.791487 0.806183 -0.038390
C189  C     C_R   0.782050 0.210604 0.188732 -0.038868
C190  C     C_R   0.800886 0.743165 0.175487 -0.037787
C191  C     C_R   0.795511 0.769791 0.328756 0.566644
C192  C     C_R   0.224447 0.201813 0.804090 -0.038999
C193  C     C_R   0.722080 0.291488 0.806183 -0.038391
C194  C     C_R   0.282051 0.710605 0.188730 -0.038872
C195  C     C_R   0.300900 0.243141 0.175478 -0.037791
C196  C     C_R   0.724438 0.701824 0.804096 -0.038999
C197  C     C_R   0.196496 0.631783 0.527884 0.551335
C198  C     C_R   0.803461 0.368228 0.472386 0.536967
C199  C     C_R   0.803358 0.631612 0.472802 0.542146
C200  C     C_R   0.196539 0.368320 0.527733 0.545246
C201  C     C_R   0.696495 0.131783 0.527887 0.551350
C202  C     C_R   0.410404 0.000051 0.464465 0.020847
C203  C     C_R   0.303461 0.868228 0.472387 0.536971
C204  C     C_R   0.303358 0.131612 0.472802 0.542137
C205  C     C_R   0.696538 0.868320 0.527735 0.545292
C206  C     C_R   0.195834 0.792987 0.899965 0.024146
C207  C     C_R   0.807281 0.207376 0.094784 0.023328
C208  C     C_R   0.821398 0.761596 0.084506 0.021197
C209  C     C_R   0.202953 0.190852 0.896874 0.020723
C210  C     C_R   0.695835 0.292988 0.899965 0.024146
C211  C     C_R   0.307281 0.707376 0.094783 0.023333
C212  C     C_R   0.321414 0.261568 0.084496 0.021197
Cu1   Cu    Cu3+1 0.209920 0.785290 0.495070 0.885056
Cu2   Cu    Cu3+1 0.504760 0.500000 0.075850 0.923475
Cu3   Cu    Cu3+1 0.995240 1.000000 0.924150 0.918758
Cu4   Cu    Cu3+1 0.004760 0.000000 0.075850 0.923195
Cu5   Cu    Cu3+1 0.790080 0.214710 0.504930 0.892872
Cu6   Cu    Cu3+1 0.790080 0.785290 0.504930 0.889549
Cu7   Cu    Cu3+1 0.209920 0.214710 0.495070 0.889982
Cu8   Cu    Cu3+1 0.709920 0.285290 0.495070 0.885067
Cu9   Cu    Cu3+1 0.290080 0.714710 0.504930 0.892801
Cu10  Cu    Cu3+1 0.290080 0.285290 0.504930 0.889647
Cu11  Cu    Cu3+1 0.709920 0.714710 0.495070 0.889998
Cu12  Cu    Cu3+1 0.495240 0.500000 0.924150 0.918771
H1    H     H_    0.534789 0.754249 0.524012 0.100956
H2    H     H_    0.727603 0.000263 0.539709 0.148977
H3    H     H_    0.318552 0.459657 0.446308 0.168850
H4    H     H_    0.367729 0.529775 0.417096 0.123104
H5    H     H_    0.558072 0.747410 0.739190 0.149302
H6    H     H_    0.608081 0.789682 0.761206 0.122318
H7    H     H_    0.509249 0.713490 0.907541 0.174573
H8    H     H_    0.554592 0.774044 0.922530 0.141319
H9    H     H_    0.524002 0.873619 0.856756 0.155193
H10   H     H_    0.469608 0.835166 0.954005 0.151048
H11   H     H_    0.477114 0.812650 0.844595 0.149335
H12   H     H_    0.772408 0.499809 0.460654 0.147684
H13   H     H_    0.227611 0.500262 0.539683 0.149032
H14   H     H_    0.590039 0.820620 0.574773 0.140929
H15   H     H_    0.409554 0.179314 0.428957 0.152829
H16   H     H_    0.410040 0.821223 0.423846 0.138991
H17   H     H_    0.589820 0.178755 0.578746 0.153686
H18   H     H_    0.090039 0.320620 0.574772 0.140940
H19   H     H_    0.909554 0.679314 0.428957 0.152835
H20   H     H_    0.910040 0.321223 0.423845 0.138988
H21   H     H_    0.463773 0.245623 0.481417 0.100730
H22   H     H_    0.089820 0.678754 0.578744 0.153691
H23   H     H_    0.072166 0.820287 0.073239 0.146470
H24   H     H_    0.928948 0.173983 0.918819 0.140747
H25   H     H_    0.932810 0.830046 0.912904 0.156005
H26   H     H_    0.085555 0.157374 0.081584 0.140290
H27   H     H_    0.572167 0.320286 0.073238 0.146442
H28   H     H_    0.428947 0.673979 0.918815 0.140750
H29   H     H_    0.432820 0.330038 0.912902 0.156002
H30   H     H_    0.585537 0.657402 0.081585 0.140291
H31   H     H_    0.115524 0.779878 0.156027 0.102979
H32   H     H_    0.465052 0.754427 0.473857 0.099053
H33   H     H_    0.884350 0.207977 0.837535 0.099953
H34   H     H_    0.889987 0.789259 0.828692 0.103822
H35   H     H_    0.140288 0.168325 0.153489 0.104597
H36   H     H_    0.615524 0.279879 0.156026 0.102973
H37   H     H_    0.384348 0.707970 0.837533 0.099953
H38   H     H_    0.390003 0.289235 0.828683 0.103824
H39   H     H_    0.640264 0.668375 0.153501 0.104603
H40   H     H_    0.301012 0.789353 0.692104 0.148909
H41   H     H_    0.702873 0.210265 0.303105 0.153177
H42   H     H_    0.752637 0.658204 0.266790 0.154365
H43   H     H_    0.533806 0.245451 0.530820 0.100930
H44   H     H_    0.301621 0.208919 0.684587 0.158062
H45   H     H_    0.801013 0.289352 0.692104 0.148909
H46   H     H_    0.202874 0.710263 0.303104 0.153170
H47   H     H_    0.252653 0.158184 0.266789 0.154367
H48   H     H_    0.801615 0.708914 0.684596 0.158058
H49   H     H_    0.347851 0.755903 0.770431 0.102047
H50   H     H_    0.654760 0.240688 0.225149 0.103733
H51   H     H_    0.701337 0.630502 0.191224 0.105278
H52   H     H_    0.353804 0.236311 0.758063 0.105503
H53   H     H_    0.847851 0.255902 0.770431 0.102048
H54   H     H_    0.034789 0.254249 0.524010 0.100957
H55   H     H_    0.154760 0.740684 0.225148 0.103735
H56   H     H_    0.201363 0.130458 0.191210 0.105279
H57   H     H_    0.853794 0.736317 0.758075 0.105502
H58   H     H_    0.200050 0.936945 0.667313 0.126600
H59   H     H_    0.159832 0.978822 0.774309 0.109029
H60   H     H_    0.089712 0.008499 0.725886 0.206487
H61   H     H_    0.153542 0.050328 0.660132 0.156033
H62   H     H_    0.112160 0.913751 0.606330 0.187944
H63   H     H_    0.174963 0.959466 0.540284 0.163232
H64   H     H_    0.112363 0.003199 0.566196 0.107089
H65   H     H_    0.963773 0.745623 0.481416 0.100719
H66   H     H_    0.937439 0.239048 0.281155 0.148955
H67   H     H_    0.898724 0.286274 0.238579 0.118527
H68   H     H_    0.000001 0.197318 0.122279 0.185697
H69   H     H_    0.964784 0.256733 0.083179 0.140523
H70   H     H_    0.987777 0.360742 0.154252 0.154956
H71   H     H_    0.046819 0.314437 0.074737 0.150038
H72   H     H_    0.024002 0.300984 0.192408 0.150535
H73   H     H_    0.788272 0.920050 0.325684 0.139304
H74   H     H_    0.822672 0.960364 0.216696 0.097420
H75   H     H_    0.883326 0.025137 0.260685 0.225948
H76   H     H_    0.965052 0.254427 0.473856 0.099049
H77   H     H_    0.814577 0.045101 0.334791 0.132314
H78   H     H_    0.887858 0.940576 0.371449 0.182723
H79   H     H_    0.818491 0.959705 0.446523 0.168833
H80   H     H_    0.868049 0.029309 0.417294 0.122742
H81   H     H_    0.058074 0.247424 0.739210 0.149306
H82   H     H_    0.108084 0.289687 0.761232 0.122316
H83   H     H_    0.009252 0.213486 0.907553 0.174575
H84   H     H_    0.054596 0.274030 0.922555 0.141321
H85   H     H_    0.024008 0.373621 0.856802 0.155195
H86   H     H_    0.969613 0.335159 0.954043 0.151047
H87   H     H_    0.033807 0.745451 0.530818 0.100928
H88   H     H_    0.977119 0.312663 0.844627 0.149337
H89   H     H_    0.700052 0.436949 0.667316 0.126597
H90   H     H_    0.659833 0.478823 0.774313 0.109030
H91   H     H_    0.589713 0.508500 0.725887 0.206490
H92   H     H_    0.653542 0.550335 0.660143 0.156043
H93   H     H_    0.612169 0.413761 0.606319 0.187940
H94   H     H_    0.674972 0.459480 0.540284 0.163229
H95   H     H_    0.612373 0.503212 0.566191 0.107094
H96   H     H_    0.437453 0.739089 0.281120 0.148957
H97   H     H_    0.398715 0.786301 0.238578 0.118530
H98   H     H_    0.272408 0.999809 0.460655 0.147687
H99   H     H_    0.499995 0.697371 0.122218 0.185676
H100  H     H_    0.464759 0.756793 0.083164 0.140524
H101  H     H_    0.487764 0.860791 0.154237 0.154954
H102  H     H_    0.546801 0.814499 0.074688 0.150037
H103  H     H_    0.524008 0.801027 0.192350 0.150541
H104  H     H_    0.288074 0.419886 0.325798 0.139413
H105  H     H_    0.322300 0.460199 0.216786 0.097289
H106  H     H_    0.382783 0.525520 0.260542 0.225909
H107  H     H_    0.314014 0.545029 0.334985 0.131836
H108  H     H_    0.387982 0.441222 0.370915 0.182589
O1    O     O_R   0.255040 0.869590 0.478480 -0.525128
O2    O     O_R   0.817950 0.203450 0.375560 -0.468153
O3    O     O_R   0.817950 0.796550 0.375560 -0.456819
O4    O     O_R   0.182050 0.203450 0.624440 -0.471756
O5    O     O_R   0.682050 0.296550 0.624440 -0.458443
O6    O     O_R   0.317950 0.703450 0.375560 -0.468132
O7    O     O_R   0.317950 0.296550 0.375560 -0.456862
O8    O     O_R   0.682050 0.703450 0.624440 -0.471766
O9    O     O_R   0.250530 0.763330 0.367210 -0.523282
O10   O     O_R   0.749470 0.236670 0.632790 -0.521389
O11   O     O_R   0.749470 0.763330 0.632790 -0.524904
O12   O     O_R   0.744960 0.130410 0.521520 -0.510285
O13   O     O_R   0.250530 0.236670 0.367210 -0.529174
O14   O     O_R   0.750530 0.263330 0.367210 -0.523284
O15   O     O_R   0.249470 0.736670 0.632790 -0.521385
O16   O     O_R   0.249470 0.263330 0.632790 -0.524907
O17   O     O_R   0.750530 0.736670 0.367210 -0.529177
O18   O     O_R   0.177260 0.690030 0.513710 -0.528093
O19   O     O_R   0.822740 0.309970 0.486290 -0.532909
O20   O     O_R   0.822740 0.690030 0.486290 -0.532912
O21   O     O_R   0.177260 0.309970 0.513710 -0.518396
O22   O     O_R   0.677260 0.190030 0.513710 -0.528097
O23   O     O_R   0.744960 0.869590 0.521520 -0.521884
O24   O     O_R   0.322740 0.809970 0.486290 -0.532906
O25   O     O_R   0.322740 0.190030 0.486290 -0.532914
O26   O     O_R   0.677260 0.809970 0.513710 -0.518383
O27   O     O_R   0.051640 0.926880 0.885090 -0.462301
O28   O     O_R   0.948360 0.073120 0.114910 -0.479888
O29   O     O_R   0.948360 0.926880 0.114910 -0.456658
O30   O     O_R   0.051640 0.073120 0.885090 -0.476949
O31   O     O_R   0.551640 0.426880 0.885090 -0.462314
O32   O     O_R   0.448360 0.573120 0.114910 -0.479736
O33   O     O_R   0.448360 0.426880 0.114910 -0.456538
O34   O     O_R   0.255040 0.130410 0.478480 -0.520248
O35   O     O_R   0.551640 0.573120 0.885090 -0.476961
O36   O     O_R   0.940620 0.926560 0.986760 -0.531748
O37   O     O_R   0.059380 0.073440 0.013240 -0.536250
O38   O     O_R   0.059380 0.926560 0.013240 -0.527640
O39   O     O_R   0.940620 0.073440 0.986760 -0.526463
O40   O     O_R   0.440620 0.426560 0.986760 -0.531770
O41   O     O_R   0.559380 0.573440 0.013240 -0.536237
O42   O     O_R   0.559380 0.426560 0.013240 -0.527670
O43   O     O_R   0.440620 0.573440 0.986760 -0.526466
O44   O     O_3   0.128059 0.884830 0.747793 -0.521453
O45   O     O_R   0.755040 0.369590 0.478480 -0.525128
O46   O     O_3   0.899628 0.172932 0.230203 -0.548416
O47   O     O_3   0.866391 0.883812 0.248354 -0.522859
O48   O     O_3   0.100440 0.177334 0.775737 -0.548632
O49   O     O_3   0.628061 0.384833 0.747792 -0.521452
O50   O     O_3   0.399637 0.672961 0.230190 -0.548415
O51   O     O_3   0.366266 0.383957 0.248352 -0.522832
O52   O     O_3   0.600437 0.677330 0.775730 -0.548635
O53   O     O_R   0.244960 0.630410 0.521520 -0.510310
O54   O     O_R   0.244960 0.369590 0.521520 -0.521869
O55   O     O_R   0.755040 0.630410 0.478480 -0.520247
O56   O     O_R   0.182050 0.796550 0.624440 -0.458439

loop_
_geom_bond_atom_site_label_1
_geom_bond_atom_site_label_2
_ccdc_geom_bond_type
C132  C144  A    
C8    H27   S    
Cu7   O13   S    
C126  C127  S    
C114  H85   S    
C40   O37   A    
C136  O11   A    
C112  O5    A    
C121  H105  S    
C112  C184  S    
C43   C168  S    
Cu11  O55   S    
C170  C178  A    
Cu9   O53   S    
C50   C59   A    
C102  H61   S    
C203  O24   A    
Cu2   O41   S    
C52   C61   A    
C123  H3    S    
C54   C63   A    
C58   C60   A    
C184  C193  A    
C28   C195  A    
C159  C211  A    
C108  C109  S    
C40   O30   A    
C61   C63   A    
C110  C111  S    
C61   H43   S    
C62   C64   A    
C131  C140  A    
C134  C143  A    
C50   C90   A    
C89   C205  S    
C162  C171  A    
C42   O28   A    
C70   C74   A    
C4    C12   A    
C24   C85   A    
C88   C97   A    
C124  C135  A    
C4    C153  A    
C49   C69   A    
C41   C162  S    
C173  O47   S    
Cu8   O5    S    
C8    C157  A    
C104  C105  S    
C134  C146  A    
C11   C20   A    
C37   C142  A    
C7    H26   S    
C44   O35   A    
C12   C150  A    
C42   O39   A    
C129  C152  A    
C47   O32   A    
C86   C90   A    
Cu4   O37   S    
C71   C73   A    
C179  C188  A    
C117  H95   S    
Cu8   O45   S    
C118  H96   S    
C25   C192  A    
C82   C91   A    
C51   C66   A    
C142  C151  A    
Cu3   Cu4   S    
C36   H55   S    
C200  O54   A    
C52   C72   A    
C56   H87   S    
C112  O10   A    
C26   H45   S    
C154  C163  A    
Cu1   O18   S    
C54   C70   A    
C107  O47   S    
C171  O44   S    
C131  C210  A    
C164  C173  A    
C17   H36   S    
C163  C172  A    
C103  H63   S    
Cu11  O17   S    
C147  O7    A    
Cu4   O28   S    
C173  C182  A    
C121  O51   S    
C200  O21   A    
Cu12  O35   S    
C20   C146  A    
C10   C160  A    
C79   C85   A    
C105  C106  S    
C118  H97   S    
C66   C77   A    
C109  H78   S    
C110  H81   S    
C156  C209  A    
C57   C78   A    
C8    C17   A    
C107  H74   S    
C125  O52   S    
C58   H76   S    
C201  O12   A    
C59   H65   S    
C33   H52   S    
C1    C185  S    
C127  H11   S    
C19   C148  A    
C56   C59   A    
C126  H7    S    
C80   C88   A    
C49   C101  A    
C116  H92   S    
Cu9   O24   S    
C123  H108  S    
C33   C139  A    
C14   C149  A    
C34   C140  A    
C159  C167  A    
C16   C151  A    
C84   C93   A    
C160  C168  A    
C48   C67   A    
C1    O9    A    
C97   H2    S    
C86   C95   A    
C37   H56   S    
C24   C77   A    
C98   H12   S    
C30   H49   S    
C2    C81   A    
C182  C190  A    
C39   C164  S    
C31   H50   S    
C55   C71   A    
C2    C75   A    
C5    C154  A    
Cu5   O10   S    
C78   C87   A    
C10   H29   S    
C38   C143  A    
C67   C77   A    
C106  H71   S    
Cu10  O16   S    
Cu6   Cu11  S    
C111  H83   S    
Cu4   O29   S    
C133  C142  A    
C114  H88   S    
C172  O46   S    
C39   O36   A    
C205  O23   A    
C125  H5    S    
C115  C116  S    
C11   H30   S    
C69   C76   A    
C53   C62   A    
C82   C202  A    
C115  H90   S    
C38   H57   S    
C46   C82   A    
C172  C181  A    
Cu12  O40   S    
C7    C156  A    
C29   C38   A    
C107  C108  S    
C13   C76   A    
C45   C166  S    
C68   H17   S    
Cu12  O43   S    
C91   C204  S    
C158  O14   A    
C120  H101  S    
C91   C96   A    
C109  H80   S    
Cu1   O56   S    
C87   C96   A    
C171  C179  A    
C132  C211  A    
Cu1   Cu9   S    
C44   O41   A    
C72   C75   A    
C92   C198  S    
C64   H1    S    
C141  C150  A    
C147  C186  S    
C63   H21   S    
C139  C148  A    
C127  H9    S    
C100  O44   S    
C129  C208  A    
C3    C161  A    
C118  O50   S    
C165  C174  A    
C45   O42   A    
C169  O56   A    
C93   C197  S    
C4    H23   S    
C32   C138  A    
C41   O38   A    
C96   H98   S    
C205  O26   A    
C27   C194  A    
C46   H15   S    
C40   C165  S    
Cu5   O12   S    
C119  H99   S    
C201  O22   A    
C31   C137  A    
C5    H24   S    
C130  C151  A    
Cu2   O33   S    
C21   C188  A    
C197  O18   A    
C108  H75   S    
C132  C141  A    
C199  O20   A    
C83   C101  A    
C114  H86   S    
C6    C155  A    
Cu5   O19   S    
C121  H104  S    
C3    C134  A    
C47   O43   A    
Cu10  O7    S    
Cu2   O42   S    
Cu7   Cu10  S    
C203  O1    A    
C193  C210  A    
C28   C37   A    
C138  C146  A    
Cu6   O11   S    
C169  O15   A    
Cu12  O31   S    
C131  C145  A    
C102  C103  S    
C158  C181  S    
C51   C79   A    
C180  O16   A    
Cu6   O23   S    
C120  H103  S    
C48   C113  A    
C130  C209  A    
C191  O3    A    
C51   C60   A    
C1    O6    A    
C140  C149  A    
C169  C179  S    
C23   C190  A    
C41   O27   A    
C25   C33   A    
Cu6   O20   S    
Cu1   O9    S    
C187  C196  A    
C73   C74   A    
C191  O17   A    
C185  C194  A    
C183  C192  A    
C122  H106  S    
C176  C185  A    
Cu5   Cu8   S    
C188  C206  A    
C166  C175  A    
C65   C76   A    
C137  C145  A    
C105  H69   S    
Cu4   O38   S    
C117  H94   S    
C176  O50   S    
C168  C177  A    
C11   C161  A    
C39   O29   A    
C101  H20   S    
C180  O4    A    
C181  C189  A    
C65   C67   A    
C93   C99   A    
C115  O49   S    
C81   C89   A    
C108  H77   S    
C104  H67   S    
C12   H31   S    
C60   H54   S    
C130  C139  A    
Cu7   O34   S    
C87   C203  S    
C15   C152  A    
C124  C206  A    
C110  H82   S    
C102  H60   S    
C9    H28   S    
C18   H37   S    
C155  C208  A    
C107  H73   S    
C53   C57   A    
C123  H4    S    
C74   C202  A    
Cu10  O25   S    
C122  H107  S    
C126  H8    S    
C36   C141  A    
C21   H40   S    
Cu5   O2    S    
C10   C19   A    
C46   C54   A    
C22   C189  A    
C5    C14   A    
C15   H34   S    
C178  C187  A    
C143  C152  A    
C34   H53   S    
C175  O49   S    
C125  C126  S    
C182  C191  S    
C199  O55   A    
C25   H44   S    
C197  O53   A    
C124  C150  A    
C6    H25   S    
C106  H72   S    
C174  C183  A    
C119  C120  S    
C147  O13   A    
C27   C36   A    
C21   C30   A    
C13   C83   A    
C3    C196  A    
C153  C162  A    
Cu9   O15   S    
C23   C32   A    
C18   C144  A    
C32   H51   S    
Cu7   O21   S    
C22   H41   S    
Cu10  O54   S    
C156  C165  A    
C189  C207  A    
C100  H59   S    
C111  C114  S    
C94   C200  S    
C192  C209  A    
C178  O52   S    
C177  C186  A    
C99   H13   S    
C128  C149  A    
C195  C212  A    
C30   C135  A    
Cu9   O6    S    
C136  O8    A    
C26   C193  A    
C175  C184  A    
C19   H38   S    
C68   C80   A    
C120  H102  S    
C109  H79   S    
C84   C113  A    
C43   O40   A    
C17   C145  A    
C198  O19   A    
C35   C81   A    
C95   C98   A    
C92   C98   A    
C62   H32   S    
C83   C92   A    
C198  O45   A    
Cu3   O30   S    
C20   H39   S    
C116  H91   S    
C66   C69   A    
C9    C159  A    
C113  H22   S    
C158  O2    A    
C116  C117  S    
C204  O34   A    
C79   H18   S    
C118  C119  S    
C194  C211  A    
C26   C34   A    
C129  C138  A    
C13   C86   A    
C128  C207  A    
C88   C201  S    
C52   C68   A    
C180  C183  S    
C6    C15   A    
Cu8   O22   S    
C157  C210  A    
C28   H47   S    
C90   H19   S    
C35   H14   S    
C106  H70   S    
C50   C65   A    
C104  H66   S    
C111  H84   S    
C160  C212  A    
C22   C31   A    
C35   C55   A    
Cu6   O3    S    
C186  C195  A    
C125  H6    S    
C16   H35   S    
C42   C163  S    
C43   O33   A    
C49   C58   A    
C45   O31   A    
C89   C97   A    
C128  C137  A    
C103  H62   S    
C47   C167  S    
C85   C94   A    
C9    C18   A    
Cu3   O39   S    
Cu11  O26   S    
C55   C64   A    
C100  C102  S    
Cu7   O4    S    
C121  C122  S    
Cu1   O1    S    
C133  C148  A    
Cu8   O14   S    
C174  O48   S    
Cu2   Cu12  S    
C161  C170  A    
C190  C208  A    
C135  C144  A    
C136  C187  S    
C177  O51   S    
C104  O46   S    
Cu11  O8    S    
C48   C56   A    
C7    C16   A    
C127  H10   S    
Cu3   O36   S    
C110  O48   S    
C29   H48   S    
C53   C73   A    
C78   C202  A    
C157  C166  A    
C155  C164  A    
C29   C196  A    
C23   H42   S    
C14   H33   S    
C24   C84   A    
C105  H68   S    
C71   C75   A    
C117  H93   S    
C94   C99   A    
Cu3   O27   S    
C115  H89   S    
C44   C170  S    
C57   H16   S    
C2    C80   A    
C153  C206  A    
C27   H46   S    
C103  H64   S    
C95   C199  S    
C119  H100  S    
C100  H58   S    
C204  O25   A    
C133  C212  A    
C70   C72   A    
C122  C123  S    
C154  C207  A    
Cu2   O32   S    
C167  C176  A    
