data_mof_unit_32288.cif
_audit_creation_date              2012-12-10T17:08:41-0500
_audit_creation_method            fapswitch 2.2
_symmetry_space_group_name_H-M    P1
_symmetry_Int_Tables_number       1
_space_group_crystal_system       triclinic
_cell_length_a                    27.769153
_cell_length_b                    11.064388
_cell_length_c                    9.826574
_cell_angle_alpha                 112.214729
_cell_angle_beta                  97.377865
_cell_angle_gamma                 91.230053
_cell_volume                      2763.88339591

loop_
_atom_site_label
_atom_site_type_symbol
_atom_type_description
_atom_site_fract_x
_atom_site_fract_y
_atom_site_fract_z
_atom_type_partial_charge
C1    C     C_R   0.496439 0.253206 0.438660 0.800683
C2    C     C_R   0.870052 0.385487 0.477636 -0.012174
C3    C     C_R   0.354874 0.492405 0.506373 -0.058182
C4    C     C_R   0.645117 0.507354 0.493563 -0.058052
C5    C     C_R   0.972973 0.389870 0.503319 0.056574
C6    C     C_R   0.026977 0.608599 0.496994 0.056598
C7    C     C_R   0.975165 0.602294 0.476009 0.044119
C8    C     C_R   0.024800 0.395807 0.523434 0.044082
C9    C     C_R   0.948466 0.494604 0.482621 0.067418
C10   C     C_R   0.051493 0.503732 0.517263 0.067355
C11   C     C_R   0.944473 0.281141 0.500558 -0.203042
C12   C     C_R   0.503561 0.746794 0.561340 0.800980
C13   C     C_R   0.055432 0.717932 0.501162 -0.203358
C14   C     C_R   0.894211 0.279979 0.489788 -0.139284
C15   C     C_R   0.105705 0.719405 0.512284 -0.139115
C16   C     C_R   0.407564 0.496248 0.501219 0.854437
C17   C     C_R   0.592434 0.503702 0.498766 0.854753
C18   C     C_R   0.050999 0.299681 0.556185 -0.273998
C19   C     C_R   0.949007 0.697773 0.441790 -0.274682
C20   C     C_2   0.493733 0.111597 0.399389 -0.186218
C21   C     C_2   0.506266 0.888403 0.600613 -0.186128
C22   C     C_2   0.504507 0.068269 0.509459 -0.123114
C23   C     C_R   0.103235 0.506832 0.530826 -0.063215
C24   C     C_2   0.495484 0.931733 0.490548 -0.123155
C25   C     C_2   0.504214 0.510606 0.081455 -0.035787
C26   C     C_2   0.495785 0.489394 0.918545 -0.035811
C27   C     C_R   0.178968 0.402641 0.542838 0.568533
C28   C     C_R   0.821034 0.595803 0.456091 0.568779
C29   C     C_R   0.180425 0.612172 0.526465 0.541160
C30   C     C_R   0.819523 0.387121 0.474604 0.541294
C31   C     C_R   0.288496 0.586963 0.641023 -0.080494
C32   C     C_R   0.711469 0.412066 0.359218 -0.080500
C33   C     C_R   0.338105 0.582134 0.632424 -0.244742
C34   C     C_R   0.896729 0.491655 0.469080 -0.063271
C35   C     C_R   0.661862 0.417145 0.367788 -0.244769
C36   C     C_R   0.320804 0.403839 0.388325 -0.034492
C37   C     C_R   0.679203 0.596161 0.611337 -0.034428
C38   C     C_R   0.270980 0.412538 0.397360 -0.180352
C39   C     C_R   0.729024 0.587263 0.602323 -0.180263
C40   C     C_R   0.254790 0.502652 0.523392 0.347581
C41   C     C_R   0.745191 0.496638 0.476588 0.347722
C42   C     C_2   0.334808 0.296597 0.257748 0.382669
C43   C     C_2   0.665218 0.703798 0.741593 0.382476
C44   C     C_2   0.521232 0.975429 0.759694 0.397739
C45   C     C_R   0.128393 0.403408 0.550831 -0.047056
C46   C     C_2   0.478776 0.024567 0.240304 0.397647
C47   C     C_2   0.124435 0.205743 0.625661 0.477559
C48   C     C_2   0.875589 0.790677 0.370229 0.477287
C49   C     C_R   0.871597 0.594702 0.448003 -0.046829
C50   C     C_R   0.101752 0.303678 0.573479 -0.002108
C51   C     C_R   0.898253 0.693731 0.424143 -0.001961
C52   C     C_R   0.129890 0.613558 0.523365 -0.012156
Cu1   Cu    Cu3+1 0.508480 0.521810 0.644910 1.004926
Cu2   Cu    Cu3+1 0.491520 0.478190 0.355090 1.004967
H1    H     H_    0.309225 0.256153 0.155419 0.086348
H2    H     H_    0.755614 0.653520 0.691510 0.144015
H3    H     H_    0.108396 0.105627 0.581017 0.028428
H4    H     H_    0.891709 0.890649 0.413350 0.028631
H5    H     H_    0.636445 0.348987 0.276538 0.169444
H6    H     H_    0.363505 0.650093 0.723898 0.169555
H7    H     H_    0.723774 0.342136 0.261406 0.154435
H8    H     H_    0.276176 0.656493 0.739071 0.154541
H9    H     H_    0.874308 0.195429 0.491681 0.188324
H10   H     H_    0.125591 0.804437 0.511493 0.188384
H11   H     H_    0.959612 0.193805 0.505093 0.134198
H12   H     H_    0.690843 0.744699 0.843793 0.086424
H13   H     H_    0.040207 0.805568 0.497797 0.134309
H14   H     H_    0.033000 0.222530 0.576905 0.124195
H15   H     H_    0.967078 0.774149 0.419833 0.124605
H16   H     H_    0.480495 0.861762 0.381072 0.213149
H17   H     H_    0.519489 0.138243 0.618940 0.213175
H18   H     H_    0.547004 0.943474 0.829645 0.132961
H19   H     H_    0.453013 0.056525 0.170334 0.133033
H20   H     H_    0.467359 0.416735 0.845224 0.172070
H21   H     H_    0.532641 0.583267 0.154776 0.172118
H22   H     H_    0.547946 0.623009 0.934880 0.221544
H23   H     H_    0.452054 0.376991 0.065120 0.221578
H24   H     H_    0.244405 0.346473 0.307955 0.144076
N1    N     N_R   0.203635 0.506532 0.532606 -0.470830
N2    N     N_R   0.796343 0.492468 0.467402 -0.470882
N3    N     N_2   0.478780 0.445430 0.137360 -0.276338
N4    N     N_2   0.521220 0.554570 0.862640 -0.276339
O1    O     O_R   0.504520 0.332330 0.577400 -0.582367
O2    O     O_2   0.796799 0.700550 0.457920 -0.489318
O3    O     O_2   0.793852 0.285821 0.483065 -0.525180
O4    O     O_2   0.206070 0.714022 0.519096 -0.525112
O5    O     O_2   0.373454 0.247193 0.264661 -0.554666
O6    O     O_2   0.626528 0.752973 0.734535 -0.554937
O7    O     O_2   0.502736 0.078410 0.816314 -0.557817
O8    O     O_2   0.497271 0.921581 0.183705 -0.557827
O9    O     O_2   0.158697 0.237976 0.726538 -0.487464
O10   O     O_2   0.841246 0.757677 0.269569 -0.487654
O11   O     O_R   0.495480 0.667670 0.422600 -0.582372
O12   O     O_R   0.490210 0.295500 0.332650 -0.554920
O13   O     O_R   0.509790 0.704500 0.667350 -0.554936
O14   O     O_R   0.437420 0.518430 0.622370 -0.588588
O15   O     O_R   0.562580 0.481570 0.377630 -0.588532
O16   O     O_R   0.423110 0.481600 0.377610 -0.541365
O17   O     O_R   0.576890 0.518400 0.622390 -0.541374
O18   O     O_2   0.203242 0.297719 0.540077 -0.489326

loop_
_geom_bond_atom_site_label_1
_geom_bond_atom_site_label_2
_ccdc_geom_bond_type
C23   C45   A    
Cu1   O13   S    
C36   C42   S    
C16   O16   A    
C41   N2    S    
C24   H16   S    
C39   C41   A    
Cu1   Cu2   S    
Cu1   O17   S    
C43   O6    D    
C3    C36   A    
C32   H7    S    
C5    C11   A    
C27   N1    A    
C11   C14   A    
C28   O2    S    
C3    C33   A    
C18   H14   S    
C31   C40   A    
C35   H5    S    
Cu2   O11   S    
C48   C51   S    
C1    O12   A    
C49   C51   A    
C15   H10   S    
C31   C33   A    
Cu2   O15   S    
C30   N2    A    
C27   C45   A    
C4    C35   A    
C26   N4    D    
Cu1   O14   S    
C25   N3    D    
C31   H8    S    
C2    C14   A    
C47   C50   S    
C27   O18   S    
C16   O14   A    
C32   C35   A    
H22   N4    S    
C38   H24   S    
C25   C26   S    
C12   C21   S    
C8    C18   A    
Cu1   N4    S    
C25   H21   S    
C37   C43   S    
C5    C9    A    
C42   H1    S    
C47   H3    S    
C21   C44   S    
C28   C49   A    
C39   H2    S    
C29   N1    A    
H23   N3    S    
C32   C41   A    
C40   N1    S    
C12   O13   A    
C15   C52   A    
C30   O3    S    
C17   O17   A    
C29   O4    S    
C4    C17   S    
C20   C22   D    
C33   H6    S    
C7    C19   A    
C13   C15   A    
C9    C34   A    
C22   C24   S    
C12   O11   A    
C19   H15   S    
C22   H17   S    
C18   C50   A    
C13   H13   S    
C7    C9    A    
C1    C20   S    
C47   O9    D    
C6    C10   A    
C5    C8    A    
C48   H4    S    
C6    C7    A    
C46   O8    D    
C10   C23   A    
C1    O1    A    
Cu1   O1    S    
C2    C30   A    
C36   C38   A    
C37   C39   A    
C6    C13   A    
C38   C40   A    
C2    C34   A    
C23   C52   A    
C45   C50   A    
C43   H12   S    
C14   H9    S    
C26   H20   S    
C44   H18   S    
Cu2   N3    S    
C28   N2    A    
Cu2   O12   S    
C44   O7    D    
C19   C51   A    
C4    C37   A    
C34   C49   A    
C8    C10   A    
C48   O10   D    
C21   C24   D    
Cu2   O16   S    
C42   O5    D    
C17   O15   A    
C46   H19   S    
C20   C46   S    
C3    C16   S    
C11   H11   S    
C29   C52   A    
