data_mof_unit_14889.cif
_audit_creation_date              2012-12-10T17:43:57-0500
_audit_creation_method            fapswitch 2.2
_symmetry_space_group_name_H-M    P1
_symmetry_Int_Tables_number       1
_space_group_crystal_system       triclinic
_cell_length_a                    15.845892
_cell_length_b                    15.096087
_cell_length_c                    13.801213
_cell_angle_alpha                 87.834073
_cell_angle_beta                  91.119731
_cell_angle_gamma                 89.672501
_cell_volume                      3298.34403315

loop_
_atom_site_label
_atom_site_type_symbol
_atom_type_description
_atom_site_fract_x
_atom_site_fract_y
_atom_site_fract_z
_atom_type_partial_charge
C1    C     C_R   0.496916 0.328993 0.501976 0.908114
C2    C     C_R   0.503084 0.671007 0.498024 0.908122
C3    C     C_R   0.501073 0.767768 0.491593 -0.237630
C4    C     C_R   0.498924 0.232233 0.508408 -0.237633
C5    C     C_R   0.574631 0.815344 0.468338 0.417824
C6    C     C_R   0.425365 0.184658 0.531659 0.417829
C7    C     C_R   0.571691 0.908795 0.463989 -0.103825
C8    C     C_R   0.428304 0.091207 0.536011 -0.103806
C9    C     C_R   0.499157 0.953309 0.496068 -0.143334
C10   C     C_R   0.500838 0.046692 0.503934 -0.143333
C11   C     C_R   0.424459 0.904785 0.517741 -0.092748
C12   C     C_R   0.575536 0.095216 0.482261 -0.092774
C13   C     C_R   0.640713 0.958783 0.429387 0.469160
C14   C     C_R   0.359280 0.041219 0.570610 0.469155
C15   C     C_R   0.645712 0.049777 0.444993 0.417509
C16   C     C_R   0.354279 0.950225 0.555001 0.417483
C17   C     C_R   0.556018 0.446555 0.797792 0.410170
C18   C     C_R   0.443982 0.553446 0.202209 0.410168
C19   C     C_R   0.443853 0.552018 0.789807 -0.004392
C20   C     C_R   0.556146 0.447981 0.210193 -0.004402
C21   C     C_R   0.441949 0.552832 0.892412 -0.085400
C22   C     C_R   0.558050 0.447168 0.107588 -0.085405
C23   C     C_R   0.339921 0.501078 0.499073 0.850470
C24   C     C_R   0.660080 0.498922 0.500927 0.850462
C25   C     C_R   0.500041 0.500007 0.948286 -0.008541
C26   C     C_R   0.499959 0.499995 0.051714 -0.008540
C27   C     C_R   0.558209 0.447100 0.900822 -0.087522
C28   C     C_R   0.441791 0.552901 0.099178 -0.087513
C29   C     C_R   0.383634 0.605563 0.940309 0.485141
C30   C     C_R   0.616363 0.394435 0.059690 0.485152
C31   C     C_R   0.382909 0.603824 0.042294 -0.237715
C32   C     C_R   0.617090 0.396175 0.957705 -0.237712
C33   C     C_3   0.975536 0.485055 0.591285 0.354361
C34   C     C_3   0.024464 0.514945 0.408714 0.354359
C35   C     C_3   0.029643 0.421401 0.533395 0.332899
C36   C     C_3   0.970357 0.578599 0.466604 0.332898
C37   C     C_1   0.250279 0.501335 0.497340 -0.084462
C38   C     C_1   0.749722 0.498665 0.502660 -0.084466
C39   C     C_3   0.028570 0.565609 0.557264 0.081878
C40   C     C_3   0.971430 0.434391 0.442735 0.081872
C41   C     C_3   0.083156 0.501382 0.498823 -0.161176
C42   C     C_3   0.916845 0.498618 0.501176 -0.161177
C43   C     C_1   0.174770 0.501383 0.497257 0.195528
C44   C     C_1   0.825230 0.498617 0.502743 0.195528
C45   C     C_R   0.424445 0.811891 0.505791 0.223195
C46   C     C_R   0.575552 0.188108 0.494219 0.223176
Cu1   Cu    Cu3+1 0.500010 0.499990 0.597420 1.011808
Cu2   Cu    Cu3+1 0.499990 0.500010 0.402580 1.011799
H1    H     H_    0.334623 0.642533 0.075496 0.203717
H2    H     H_    0.665374 0.357463 0.924505 0.203726
H3    H     H_    0.400303 0.592946 0.746190 0.198167
H4    H     H_    0.599696 0.407052 0.253809 0.198153
N1    N     N_R   0.499960 0.499930 0.743810 -0.224102
N2    N     N_R   0.500040 0.500070 0.256190 -0.224098
O1    O     O_R   0.500020 0.370250 0.582280 -0.560784
O2    O     O_R   0.499980 0.629750 0.417720 -0.560789
O3    O     O_R   0.500010 0.370270 0.417740 -0.576944
O4    O     O_R   0.499990 0.629730 0.582260 -0.576934
O5    O     O_R   0.379080 0.499980 0.582260 -0.607190
O6    O     O_R   0.620920 0.500020 0.417740 -0.607197
O7    O     O_R   0.379070 0.500000 0.417710 -0.523979
O8    O     O_R   0.620930 0.500000 0.582290 -0.523977
O9    O     O_3   0.069512 0.342728 0.569661 -0.573818
C47   C     C_3   0.008802 0.277679 0.592206 -0.144430
H5    H     H_    0.991324 0.241411 0.526483 0.222232
H6    H     H_    0.951258 0.304692 0.625715 0.188441
H7    H     H_    0.037482 0.228803 0.645302 0.172492
O10   O     O_3   0.930485 0.657272 0.430339 -0.573811
C48   C     C_3   0.991195 0.722321 0.407790 -0.144445
H8    H     H_    0.048730 0.695308 0.374261 0.188436
H9    H     H_    0.008689 0.758578 0.473515 0.222227
H10   H     H_    0.962508 0.771207 0.354710 0.172504
O11   O     O_3   0.322363 0.653329 0.887795 -0.567434
C49   C     C_3   0.342162 0.744183 0.889600 -0.320385
H11   H     H_    0.290233 0.782309 0.852493 0.191086
H12   H     H_    0.401448 0.758326 0.850107 0.154755
H13   H     H_    0.347066 0.768161 0.964746 0.167102
O12   O     O_3   0.677628 0.346658 0.112203 -0.567434
C50   C     C_3   0.657809 0.255808 0.110404 -0.320437
H14   H     H_    0.598541 0.241678 0.149935 0.154765
H15   H     H_    0.709749 0.217670 0.147476 0.191082
H16   H     H_    0.652862 0.231833 0.035261 0.167099
O13   O     O_3   0.941157 0.467174 0.683544 -0.548850
C51   C     C_3   0.005928 0.461490 0.754990 -0.189288
H17   H     H_    0.022093 0.528535 0.779383 0.211089
H18   H     H_    0.063630 0.426846 0.731065 0.171274
H19   H     H_    0.982096 0.423145 0.818797 0.177796
O14   O     O_3   0.058842 0.532825 0.316454 -0.548852
C52   C     C_3   0.994071 0.538507 0.245009 -0.189308
H20   H     H_    0.936370 0.573154 0.268933 0.171274
H21   H     H_    0.977905 0.471461 0.220621 0.211093
H22   H     H_    0.017904 0.576847 0.181200 0.177801
Br1   Br    Br    0.923985 0.342746 0.363319 -0.481588
Br2   Br    Br    0.076015 0.657252 0.636683 -0.481606
Br3   Br    Br    0.322595 0.741054 0.501805 -0.421730
Br4   Br    Br    0.677408 0.258934 0.498244 -0.421717
O15   O     O_3   0.652501 0.772490 0.467994 -0.545269
C53   C     C_3   0.662583 0.724466 0.382915 -0.175883
H23   H     H_    0.608385 0.728702 0.330198 0.127056
H24   H     H_    0.674298 0.654365 0.403622 0.157966
H25   H     H_    0.720152 0.747708 0.345627 0.208375
O16   O     O_3   0.347495 0.227513 0.531996 -0.545268
C54   C     C_3   0.337410 0.275537 0.617075 -0.175868
H26   H     H_    0.325696 0.345638 0.596367 0.157956
H27   H     H_    0.391605 0.271300 0.669795 0.127052
H28   H     H_    0.279838 0.252296 0.654359 0.208379
O17   O     O_3   0.702825 0.920321 0.375621 -0.509969
C55   C     C_3   0.672633 0.916453 0.278503 -0.347185
H29   H     H_    0.616594 0.873110 0.272385 0.154105
H30   H     H_    0.723228 0.888944 0.233829 0.194296
H31   H     H_    0.654874 0.982647 0.246503 0.132117
O18   O     O_3   0.297168 0.079684 0.624372 -0.509993
C56   C     C_3   0.327358 0.083557 0.721491 -0.347277
H32   H     H_    0.276768 0.111081 0.766159 0.194300
H33   H     H_    0.383405 0.126890 0.727607 0.154126
H34   H     H_    0.345104 0.017362 0.753499 0.132129
O19   O     O_3   0.721745 0.091833 0.427834 -0.504534
C57   C     C_3   0.725197 0.123442 0.330310 -0.166004
H35   H     H_    0.662007 0.137792 0.296024 0.090131
H36   H     H_    0.761279 0.076161 0.287337 0.175334
H37   H     H_    0.761140 0.186293 0.327751 0.234302
O20   O     O_3   0.278239 0.908175 0.572130 -0.504551
C58   C     C_3   0.274740 0.876602 0.669664 -0.165947
H38   H     H_    0.238652 0.923912 0.712597 0.175371
H39   H     H_    0.337914 0.862245 0.703987 0.090134
H40   H     H_    0.238779 0.813762 0.672232 0.234282
Br5   Br    Br    0.630188 0.365579 0.735409 -0.453694
Br6   Br    Br    0.369813 0.634422 0.264592 -0.453713

loop_
_geom_bond_atom_site_label_1
_geom_bond_atom_site_label_2
_ccdc_geom_bond_type
O11   C49   S    
C36   C42   S    
C51   H19   S    
C40   Br1   S    
C13   O17   S    
Cu1   O8    S    
O15   C53   S    
C58   H38   S    
C39   C41   S    
C4    C46   A    
C23   O5    A    
C33   C39   S    
C49   H12   S    
C34   C40   S    
C33   C42   S    
C19   C21   A    
C51   H18   S    
C8    C10   A    
C58   H39   S    
C29   O11   S    
C55   H29   S    
Cu2   O2    S    
C48   H9    S    
C16   O20   S    
C57   H35   S    
C18   Br6   S    
O13   C51   S    
O10   C48   S    
C49   H13   S    
C24   C38   S    
O17   C55   S    
C52   H21   S    
C9    C10   A    
Cu1   N1    S    
C56   H34   S    
C19   N1    A    
C40   C42   S    
C14   O18   S    
C24   O8    A    
C41   C43   S    
O16   C54   S    
C34   C41   S    
C42   C44   S    
C31   H1    S    
O18   C56   S    
Cu2   O6    S    
C36   C39   S    
C49   H11   S    
C17   C27   A    
C47   H7    S    
Cu2   O3    S    
C18   C28   A    
C51   H17   S    
C20   N2    A    
C5    C7    A    
O12   C50   S    
C17   Br5   S    
C58   H40   S    
C6    C8    A    
C25   C26   A    
C23   C37   S    
C21   C29   A    
C3    C45   A    
C15   O19   S    
C57   H37   S    
C47   H6    S    
C37   C43   T    
C48   H10   S    
Cu2   N2    S    
C39   Br2   S    
C38   C44   T    
C1    O3    A    
C9    C11   A    
C11   C16   A    
Cu1   Cu2   S    
C12   C15   A    
C7    C13   A    
C24   O6    A    
C36   O10   S    
C54   H27   S    
C34   O14   S    
C52   H22   S    
C33   O13   S    
C32   H2    S    
C10   C12   A    
C12   C46   A    
C5    O15   S    
C53   H24   S    
C13   C15   A    
C14   C16   A    
C50   H14   S    
C11   C45   A    
C4    C6    A    
C45   Br3   S    
C17   N1    A    
Cu1   O1    S    
C56   H32   S    
C7    C9    A    
C21   C25   A    
C8    C14   A    
C22   C30   A    
C27   C32   A    
C28   C31   A    
C20   C22   A    
C3    C5    A    
C50   H16   S    
C2    O4    A    
C25   C27   A    
C53   H25   S    
C26   C28   A    
C55   H31   S    
C1    C4    S    
C47   H5    S    
C2    C3    S    
C1    O1    A    
C20   H4    S    
C2    O2    A    
O19   C57   S    
Cu1   O4    S    
C30   C32   A    
Cu2   O7    S    
C33   C35   S    
C55   H30   S    
C35   C40   S    
C54   H28   S    
C34   C36   S    
C6    O16   S    
C50   H15   S    
C48   H8    S    
C35   C41   S    
C57   H36   S    
C18   N2    A    
Cu1   O5    S    
O9    C47   S    
C30   O12   S    
C19   H3    S    
C23   O7    A    
C46   Br4   S    
O14   C52   S    
C29   C31   A    
C53   H23   S    
C22   C26   A    
C54   H26   S    
O20   C58   S    
C35   O9    S    
C52   H20   S    
C56   H33   S    
