data_mof_unit_64597.cif
_audit_creation_date              2012-12-10T16:39:51-0500
_audit_creation_method            fapswitch 2.2
_symmetry_space_group_name_H-M    P1
_symmetry_Int_Tables_number       1
_space_group_crystal_system       triclinic
_cell_length_a                    10.860058
_cell_length_b                    10.945589
_cell_length_c                    16.050315
_cell_angle_alpha                 91.293526
_cell_angle_beta                  97.862588
_cell_angle_gamma                 98.700277
_cell_volume                      1866.38835017

loop_
_atom_site_label
_atom_site_type_symbol
_atom_type_description
_atom_site_fract_x
_atom_site_fract_y
_atom_site_fract_z
_atom_type_partial_charge
C1    C     C_R   0.838543 0.526100 0.519450 0.494549
C2    C     C_R   0.527410 0.834920 0.518759 0.543938
C3    C     C_R   0.471912 0.162810 0.482370 0.507933
C4    C     C_R   0.483504 0.515561 0.275927 0.516061
C5    C     C_R   0.515858 0.484104 0.723792 0.515898
C6    C     C_1   0.477921 0.519267 0.186423 0.079782
C7    C     C_2   0.472567 0.522496 0.021235 -0.128782
C8    C     C_2   0.543413 0.459271 0.978679 0.049601
C9    C     C_2   0.633130 0.379561 0.018599 0.612446
C10   C     C_3   0.940807 0.241944 0.447255 -0.254742
C11   C     C_2   0.374218 0.962140 0.401320 0.562176
C12   C     C_1   0.531684 0.469640 0.888486 -0.021767
C13   C     C_2   0.615372 0.021033 0.606976 0.582474
C14   C     C_1   0.474874 0.521163 0.111193 0.034335
C15   C     C_1   0.523380 0.477143 0.813259 0.044366
C16   C     C_2   0.023566 0.458883 0.475863 0.121208
C17   C     C_2   0.972653 0.534148 0.523753 -0.071476
C18   C     C_2   0.463651 0.027977 0.473384 -0.001394
C19   C     C_2   0.537755 0.966784 0.527660 0.025472
C20   C     C_R   0.160348 0.473886 0.482047 0.537385
H1    H     H_    0.409569 0.578461 0.987161 0.124604
H2    H     H_    0.030527 0.606509 0.565417 0.116106
H3    H     H_    0.713742 0.308559 0.123753 0.349823
H4    H     H_    0.861742 0.387249 0.392490 0.256494
H5    H     H_    0.892652 0.233599 0.504147 0.171561
H6    H     H_    0.036374 0.216555 0.462188 0.187879
H7    H     H_    0.886305 0.176087 0.397069 0.163554
H8    H     H_    0.339411 0.829724 0.307780 0.339643
H9    H     H_    0.622034 0.110515 0.719189 0.357072
N1    N     N_2   0.948105 0.366635 0.418242 -0.505176
O1    O     O_3   0.500000 0.500000 0.500000 -0.467727
O2    O     O_R   0.566290 0.591070 0.323460 -0.518624
O3    O     O_R   0.580640 0.419420 0.684420 -0.515235
O4    O     O_R   0.407770 0.434760 0.307690 -0.530959
O5    O     O_R   0.445300 0.554750 0.684430 -0.536359
O6    O     O_2   0.693060 0.325772 0.974384 -0.487156
O7    O     O_R   0.650112 0.365102 0.105560 -0.693645
O8    O     O_2   0.271017 0.993565 0.382157 -0.476232
O9    O     O_R   0.408292 0.866264 0.354681 -0.687418
O10   O     O_2   0.726472 0.009473 0.620910 -0.510206
O11   O     O_R   0.559758 0.078787 0.667527 -0.656626
O12   O     O_R   0.452040 0.769470 0.559450 -0.533003
O13   O     O_R   0.554760 0.223750 0.537250 -0.519263
O14   O     O_R   0.782610 0.596300 0.470630 -0.531071
O15   O     O_R   0.210590 0.410470 0.432660 -0.510376
O16   O     O_R   0.777820 0.443700 0.559450 -0.533265
O17   O     O_R   0.228980 0.549520 0.537250 -0.558227
O18   O     O_R   0.592170 0.786730 0.470640 -0.491880
O19   O     O_R   0.401030 0.220040 0.432660 -0.503438
Zn1   Zn    Zn3+2 0.408180 0.591840 0.569080 0.976620
Zn2   Zn    Zn3+2 0.608390 0.616500 0.442190 0.997394
Zn3   Zn    Zn3+2 0.381900 0.393170 0.419650 0.996621
Zn4   Zn    Zn3+2 0.601540 0.398480 0.569080 0.979055

loop_
_geom_bond_atom_site_label_1
_geom_bond_atom_site_label_2
_ccdc_geom_bond_type
C10   H7    S    
C11   O8    D    
O2    Zn2   S    
O14   Zn2   S    
C6    C14   T    
C10   N1    S    
C1    O14   A    
O4    Zn3   S    
C20   O15   A    
O15   Zn3   S    
C12   C15   T    
C16   C20   S    
O1    Zn3   S    
C8    C12   S    
O19   Zn3   S    
C2    O18   A    
C10   H6    S    
O5    Zn1   S    
C13   O11   S    
C3    O19   A    
C7    C8    D    
C11   C18   S    
C7    H1    S    
O1    Zn4   S    
C11   O9    S    
C3    O13   A    
C4    O2    A    
C2    O12   A    
C5    O5    A    
O16   Zn4   S    
C9    O7    S    
O12   Zn1   S    
O17   Zn1   S    
C4    O4    A    
C7    C14   S    
O3    Zn4   S    
H4    N1    S    
C1    O16   A    
C5    C15   S    
C20   O17   A    
C13   C19   S    
O1    Zn1   S    
C16   N1    S    
C9    O6    D    
C10   H5    S    
C3    C18   S    
C4    C6    S    
C18   C19   D    
C16   C17   D    
C13   O10   D    
H8    O9    S    
H9    O11   S    
C2    C19   S    
H3    O7    S    
C1    C17   S    
O13   Zn4   S    
O18   Zn2   S    
C17   H2    S    
O1    Zn2   S    
C8    C9    S    
C5    O3    A    
