data_mof_unit_30190.cif
_audit_creation_date              2012-12-10T16:59:17-0500
_audit_creation_method            fapswitch 2.2
_symmetry_space_group_name_H-M    P1
_symmetry_Int_Tables_number       1
_space_group_crystal_system       triclinic
_cell_length_a                    7.728293
_cell_length_b                    8.558839
_cell_length_c                    27.630902
_cell_angle_alpha                 90.618857
_cell_angle_beta                  86.814473
_cell_angle_gamma                 93.659543
_cell_volume                      1821.05874023

loop_
_atom_site_label
_atom_site_type_symbol
_atom_type_description
_atom_site_fract_x
_atom_site_fract_y
_atom_site_fract_z
_atom_type_partial_charge
C1    C     C_R   0.545908 0.794851 0.498725 0.974274
C2    C     C_R   0.454092 0.205149 0.501274 0.974289
C3    C     C_R   0.541519 0.470344 0.898086 -0.048269
C4    C     C_R   0.458821 0.529672 0.101917 -0.048290
C5    C     C_R   0.629233 0.592428 0.870846 -0.040965
C6    C     C_R   0.371008 0.407619 0.129151 -0.041143
C7    C     C_R   0.709438 0.720160 0.894332 -0.079665
C8    C     C_R   0.290806 0.279898 0.105660 -0.079481
C9    C     C_R   0.469856 0.336486 0.873999 -0.105081
C10   C     C_R   0.530503 0.663511 0.126010 -0.104978
C11   C     C_R   0.513599 0.490440 0.646559 -0.133065
C12   C     C_R   0.486421 0.509588 0.353442 -0.133092
C13   C     C_R   0.566157 0.638302 0.023525 0.036585
C14   C     C_R   0.434307 0.361683 0.976482 0.036531
C15   C     C_R   0.406520 0.379510 0.027341 0.049613
C16   C     C_R   0.593890 0.620497 0.972661 0.049696
C17   C     C_R   0.476860 0.516094 0.050735 0.087144
C18   C     C_R   0.523549 0.483909 0.949269 0.087174
C19   C     C_R   0.618332 0.777897 0.047875 -0.257046
C20   C     C_R   0.382236 0.222048 0.952139 -0.257075
C21   C     C_R   0.600353 0.792809 0.098203 -0.014992
C22   C     C_R   0.400172 0.207134 0.901810 -0.014999
C23   C     C_R   0.503806 0.498545 0.593993 0.914076
C24   C     C_R   0.496196 0.501461 0.406007 0.914049
C25   C     C_R   0.693733 0.733487 0.944278 -0.203011
C26   C     C_R   0.306595 0.266552 0.055716 -0.203081
C27   C     C_2   0.570186 0.958305 0.497997 -0.367561
C28   C     C_2   0.429814 0.041695 0.502003 -0.367570
C29   C     C_R   0.632406 0.585503 0.820383 0.547388
C30   C     C_R   0.367737 0.414564 0.179615 0.547726
C31   C     C_R   0.465712 0.340977 0.823036 0.618846
C32   C     C_R   0.534509 0.659051 0.176976 0.618463
C33   C     C_R   0.680328 0.446070 0.716184 -0.146971
C34   C     C_R   0.319885 0.554505 0.283815 -0.146943
C35   C     C_R   0.670561 0.456683 0.666347 -0.205498
C36   C     C_R   0.329620 0.543894 0.333654 -0.205436
C37   C     C_R   0.366679 0.513612 0.677323 -0.290009
C38   C     C_R   0.633207 0.485879 0.322678 -0.289951
C39   C     C_R   0.376993 0.503790 0.727268 0.700819
C40   C     C_R   0.622927 0.495719 0.272734 0.700667
C41   C     C_R   0.533893 0.469644 0.746645 0.166755
C42   C     C_R   0.466191 0.530398 0.253357 0.166937
H1    H     H_    0.244525 0.539955 0.662845 0.188461
H2    H     H_    0.755226 0.459089 0.337158 0.188534
H3    H     H_    0.013936 0.383639 0.463500 0.195251
H4    H     H_    0.986064 0.616360 0.536500 0.195223
H5    H     H_    0.783147 0.812234 0.874111 0.226879
H6    H     H_    0.217028 0.187851 0.125875 0.226953
H7    H     H_    0.214605 0.563198 0.356603 0.182491
H8    H     H_    0.785691 0.437824 0.643399 0.182487
H9    H     H_    0.198657 0.580671 0.268750 0.204173
H10   H     H_    0.801685 0.420324 0.731246 0.204442
H11   H     H_    0.666813 0.881339 0.028360 0.159323
H12   H     H_    0.333899 0.118581 0.971665 0.159462
H13   H     H_    0.763576 0.833605 0.959429 0.163899
H14   H     H_    0.236730 0.166461 0.040554 0.163969
H15   H     H_    0.702716 0.009459 0.494178 0.181578
H16   H     H_    0.297284 0.990541 0.505821 0.181577
N1    N     N_R   0.546204 0.464041 0.797864 -0.342193
N2    N     N_R   0.453923 0.536017 0.202140 -0.342204
N3    N     N_2   0.950320 0.457960 0.486880 -0.175632
N4    N     N_2   0.049680 0.542040 0.513120 -0.175646
O1    O     O_R   0.389250 0.738570 0.503220 -0.612695
O2    O     O_R   0.610750 0.261430 0.496780 -0.612687
O3    O     O_R   0.678390 0.711630 0.494810 -0.629440
O4    O     O_R   0.321610 0.288370 0.505190 -0.629437
O5    O     O_R   0.355440 0.513440 0.575450 -0.618538
O6    O     O_R   0.644560 0.486560 0.424550 -0.618529
O7    O     O_R   0.644590 0.486500 0.567040 -0.631776
O8    O     O_R   0.355410 0.513500 0.432960 -0.631760
O9    O     O_2   0.715749 0.701853 0.793885 -0.507930
O10   O     O_2   0.284307 0.298249 0.206109 -0.507737
O11   O     O_2   0.623322 0.772440 0.201341 -0.494147
O12   O     O_2   0.376850 0.227587 0.798685 -0.493933
Zn1   Zn    Zn3+2 0.306940 0.517990 0.505620 0.953749
Zn2   Zn    Zn3+2 0.693060 0.482010 0.494380 0.953758
F1    F     F_    0.235383 0.529123 0.756903 -0.642977
F2    F     F_    0.764397 0.469886 0.243098 -0.642938
C43   C     C_2   0.645017 0.949506 0.119359 0.993941
O13   O     O_2   0.779574 0.022949 0.105725 -0.621785
O14   O     O_R   0.529552 0.016176 0.153163 -0.745729
H17   H     H_    0.574527 0.123280 0.164681 0.369257
C44   C     C_2   0.355682 0.050391 0.880657 0.993759
O15   O     O_2   0.221415 0.976664 0.894377 -0.621893
O16   O     O_R   0.471024 0.983985 0.846763 -0.745650
H18   H     H_    0.426165 0.876839 0.835251 0.369232

loop_
_geom_bond_atom_site_label_1
_geom_bond_atom_site_label_2
_ccdc_geom_bond_type
C8    C26   A    
C23   O7    A    
C34   C42   A    
O14   H17   S    
C24   O8    A    
C39   C41   A    
O16   H18   S    
C33   H10   S    
C34   H9    S    
O3    Zn2   S    
H4    N4    S    
C39   F1    S    
C19   C21   A    
C9    C22   A    
C31   N1    A    
C3    C18   A    
C23   O5    A    
C11   C37   A    
C14   C18   A    
C29   N1    A    
C30   N2    A    
C1    O3    A    
C12   C36   A    
C19   H11   S    
C40   C42   A    
N3    Zn2   S    
C1    O1    A    
C2    O2    A    
C5    C29   A    
C10   C21   A    
C13   C19   A    
C14   C20   A    
C41   N1    S    
C4    C6    A    
C27   H15   S    
C42   N2    S    
C32   O11   S    
C5    C7    A    
C9    C31   A    
C15   C26   A    
C6    C8    A    
C3    C5    A    
H3    N3    S    
C7    H5    S    
C37   H1    S    
C8    H6    S    
C38   H2    S    
C3    C9    A    
C44   O15   D    
C21   C43   S    
C35   H8    S    
O2    Zn2   S    
C4    C17   A    
C20   H12   S    
C44   O16   S    
C20   C22   A    
C40   F2    S    
N4    Zn1   S    
O5    Zn1   S    
C32   N2    A    
C4    C10   A    
O8    Zn1   S    
C43   O14   S    
C16   C25   A    
C15   C17   A    
C6    C30   A    
C25   H13   S    
C2    O4    A    
C26   H14   S    
C30   O10   S    
C28   H16   S    
O6    Zn2   S    
C12   C24   S    
C7    C25   A    
C13   C17   A    
C33   C41   A    
C22   C44   S    
C11   C35   A    
C37   C39   A    
C38   C40   A    
O1    Zn1   S    
O4    Zn1   S    
C11   C23   S    
C33   C35   A    
C34   C36   A    
C12   C38   A    
N3    N4    D    
C31   O12   S    
C24   O6    A    
C43   O13   D    
C10   C32   A    
O7    Zn2   S    
C16   C18   A    
C13   C16   A    
C27   C28   D    
C1    C27   S    
C14   C15   A    
C2    C28   S    
C36   H7    S    
C29   O9    S    
