data_mof_unit_44842.cif
_audit_creation_date              2012-12-10T19:25:46-0500
_audit_creation_method            fapswitch 2.2
_symmetry_space_group_name_H-M    P1
_symmetry_Int_Tables_number       1
_space_group_crystal_system       triclinic
_cell_length_a                    9.783068
_cell_length_b                    10.471461
_cell_length_c                    16.627501
_cell_angle_alpha                 90.261859
_cell_angle_beta                  84.093635
_cell_angle_gamma                 89.444649
_cell_volume                      1694.22267058

loop_
_atom_site_label
_atom_site_type_symbol
_atom_type_description
_atom_site_fract_x
_atom_site_fract_y
_atom_site_fract_z
_atom_type_partial_charge
C1    C     C_R   0.499810 0.742182 0.498216 0.869540
C2    C     C_R   0.500175 0.257849 0.501914 0.863678
C3    C     C_3   0.403705 0.962577 0.454271 0.068199
C4    C     C_3   0.596341 0.037538 0.545887 0.067407
C5    C     C_3   0.527845 0.044822 0.424346 -0.244483
C6    C     C_3   0.472165 0.955290 0.575812 -0.239380
C7    C     C_3   0.500781 0.122968 0.502511 -0.011894
C8    C     C_3   0.499230 0.877130 0.497668 -0.012010
C9    C     C_3   0.375325 0.042940 0.532091 -0.224470
C10   C     C_3   0.624674 0.957154 0.468065 -0.225913
C11   C     C_3   0.950286 0.615624 0.498066 -0.126328
C12   C     C_3   0.049873 0.384539 0.502117 -0.129543
C13   C     C_3   0.060069 0.554838 0.435891 -0.126096
C14   C     C_3   0.940135 0.445293 0.564254 -0.129689
C15   C     C_3   0.035893 0.560152 0.561671 0.092119
C16   C     C_3   0.964630 0.439847 0.438357 0.096756
C17   C     C_R   0.479713 0.497797 0.653286 0.853109
C18   C     C_R   0.520239 0.494774 0.346887 0.839312
C19   C     C_R   0.466334 0.474103 0.739515 -0.013962
C20   C     C_R   0.534875 0.455657 0.262795 -0.022771
C21   C     C_R   0.573010 0.508741 0.784720 -0.228113
C22   C     C_R   0.442190 0.366706 0.237050 -0.213599
C23   C     C_R   0.571857 0.468386 0.863911 -0.173183
C24   C     C_R   0.460814 0.318396 0.158973 -0.166484
C25   C     C_R   0.464867 0.390995 0.898315 0.208561
C26   C     C_R   0.570851 0.360736 0.105494 0.202090
C27   C     C_R   0.354961 0.361376 0.854306 -0.201461
C28   C     C_R   0.666303 0.446008 0.132066 -0.174916
C29   C     C_R   0.356022 0.402068 0.774818 -0.211516
C30   C     C_R   0.648458 0.493402 0.210740 -0.185239
C31   C     C_2   0.460014 0.351585 0.982677 -0.234194
C32   C     C_2   0.575016 0.335984 0.018948 -0.253691
H1    H     H_    0.658493 0.564931 0.758311 0.155113
H2    H     H_    0.356535 0.333005 0.277701 0.160309
H3    H     H_    0.904231 0.712855 0.496820 0.128004
H4    H     H_    0.096029 0.287347 0.503378 0.128472
H5    H     H_    0.722023 0.560180 0.230689 0.137037
H6    H     H_    0.273829 0.372775 0.740080 0.146932
H7    H     H_    0.674819 0.334904 0.983592 0.141862
H8    H     H_    0.359848 0.353318 0.017649 0.147660
H9    H     H_    0.270077 0.304703 0.880922 0.122296
H10   H     H_    0.751026 0.480154 0.090922 0.113229
H11   H     H_    0.387289 0.251044 0.139660 0.133105
H12   H     H_    0.654235 0.498905 0.898040 0.128278
H13   H     H_    0.547738 0.086358 0.363005 0.141556
H14   H     H_    0.452103 0.913971 0.637190 0.138903
H15   H     H_    0.275891 0.083458 0.559159 0.124530
H16   H     H_    0.724085 0.916541 0.441011 0.125241
H17   H     H_    0.116429 0.600485 0.382604 0.147605
H18   H     H_    0.884219 0.400437 0.618049 0.147288
N1    N     N_3   0.136700 0.499970 0.500060 -0.085990
N2    N     N_3   0.863300 0.500030 0.499940 -0.085682
O1    O     O_R   0.383390 0.686040 0.500000 -0.612108
O2    O     O_R   0.616610 0.313960 0.500000 -0.618704
O3    O     O_R   0.616650 0.686050 0.499970 -0.624453
O4    O     O_R   0.383350 0.313950 0.500030 -0.627925
O5    O     O_R   0.369590 0.500020 0.615820 -0.606562
O6    O     O_R   0.630410 0.499980 0.384180 -0.603877
O7    O     O_R   0.602840 0.500020 0.615790 -0.615158
O8    O     O_R   0.397160 0.499980 0.384210 -0.616604
Zn1   Zn    Zn3+2 0.344250 0.499990 0.500020 0.944498
Zn2   Zn    Zn3+2 0.655750 0.500010 0.499980 0.946292
C33   C     C_R   0.079985 0.631766 0.632865 0.141796
C34   C     C_R   0.129463 0.756696 0.623342 -0.108388
C35   C     C_R   0.168105 0.824405 0.689902 -0.161296
C36   C     C_R   0.158751 0.767557 0.766085 -0.108837
C37   C     C_R   0.109393 0.643277 0.776015 -0.126018
C38   C     C_R   0.069493 0.575626 0.709759 -0.164179
H19   H     H_    0.136963 0.801925 0.564698 0.129200
H20   H     H_    0.204815 0.921148 0.682605 0.119158
H21   H     H_    0.189254 0.819968 0.817458 0.122556
H22   H     H_    0.102096 0.599276 0.835056 0.127083
H23   H     H_    0.031677 0.479366 0.718510 0.101774
C39   C     C_R   0.926095 0.364670 0.366990 0.136530
C40   C     C_R   0.961064 0.408812 0.287941 -0.176769
C41   C     C_R   0.935990 0.333402 0.221556 -0.129222
C42   C     C_R   0.874127 0.214427 0.233471 -0.082461
C43   C     C_R   0.839345 0.169794 0.311830 -0.162225
C44   C     C_R   0.866021 0.244094 0.378429 -0.112815
H24   H     H_    0.008896 0.500737 0.277278 0.108527
H25   H     H_    0.963938 0.367565 0.160810 0.116767
H26   H     H_    0.854032 0.156494 0.182001 0.118763
H27   H     H_    0.793868 0.076620 0.320771 0.117668
H28   H     H_    0.842963 0.206397 0.438673 0.141496
C45   C     C_R   0.300701 0.916367 0.399829 0.130365
C46   C     C_R   0.160811 0.948529 0.415516 -0.165255
C47   C     C_R   0.066529 0.904828 0.364250 -0.138213
C48   C     C_R   0.111188 0.830008 0.296658 -0.141017
C49   C     C_R   0.250326 0.797786 0.280589 -0.145559
C50   C     C_R   0.344877 0.840782 0.331942 -0.129248
H29   H     H_    0.124288 0.007088 0.467157 0.105352
H30   H     H_    0.958823 0.928819 0.377000 0.111580
H31   H     H_    0.037869 0.796132 0.257158 0.117833
H32   H     H_    0.284834 0.739046 0.228565 0.130599
H33   H     H_    0.452412 0.814993 0.318970 0.100880
C51   C     C_R   0.699716 0.083257 0.600285 0.125109
C52   C     C_R   0.655642 0.156115 0.669401 -0.127921
C53   C     C_R   0.750488 0.197505 0.721058 -0.137144
C54   C     C_R   0.889843 0.167026 0.703883 -0.145618
C55   C     C_R   0.934428 0.094986 0.635061 -0.137764
C56   C     C_R   0.839863 0.052618 0.583564 -0.164597
H34   H     H_    0.547913 0.180457 0.683314 0.113198
H35   H     H_    0.716048 0.253105 0.774407 0.144944
H36   H     H_    0.963308 0.199656 0.743675 0.115627
H37   H     H_    0.042235 0.071783 0.621679 0.109782
H38   H     H_    0.876379 0.996170 0.530974 0.104976

loop_
_geom_bond_atom_site_label_1
_geom_bond_atom_site_label_2
_ccdc_geom_bond_type
O6    Zn2   S    
C47   C48   A    
C25   C31   S    
C3    C45   S    
C1    C8    S    
C2    C7    S    
N1    Zn1   S    
C6    C9    S    
C52   C53   A    
C50   H33   S    
C20   C30   A    
C42   C43   A    
C26   C32   S    
C55   H37   S    
C16   C39   S    
C19   C21   A    
C24   C26   A    
C46   H29   S    
C44   H28   S    
C27   C29   A    
C53   H35   S    
O3    Zn2   S    
C31   H8    S    
C37   H22   S    
C32   H7    S    
C28   H10   S    
C49   H32   S    
C1    O1    A    
C11   N2    S    
C4    C51   S    
O1    Zn1   S    
C43   H27   S    
C18   O6    A    
C14   N2    S    
C12   C16   S    
C29   H6    S    
C15   N1    S    
C12   H4    S    
C40   H24   S    
C52   H34   S    
C54   H36   S    
C13   N1    S    
C47   H30   S    
C11   C15   S    
C4    C7    S    
C22   H2    S    
C39   C40   A    
C37   C38   A    
C41   C42   A    
C4    C6    S    
C3    C8    S    
C2    O2    A    
C5    C7    S    
C48   H31   S    
C43   C44   A    
C6    C8    S    
O2    Zn2   S    
C38   H23   S    
C45   C46   A    
C5    H13   S    
C23   H12   S    
C30   H5    S    
O8    Zn1   S    
C40   C41   A    
C36   H21   S    
C3    C9    S    
C27   H9    S    
C31   C32   D    
C51   C52   A    
O4    Zn1   S    
C34   H19   S    
C17   O7    A    
C13   H17   S    
C18   O8    A    
C12   C14   S    
C9    H15   S    
C39   C44   A    
C21   C23   A    
C10   H16   S    
C22   C24   A    
C4    C10   S    
C19   C29   A    
C12   N1    S    
C56   H38   S    
C7    C9    S    
C33   C38   A    
O7    Zn2   S    
C6    H14   S    
C46   C47   A    
C16   N2    S    
C20   C22   A    
C3    C5    S    
C41   H25   S    
C45   C50   A    
O5    Zn1   S    
C25   C27   A    
C26   C28   A    
C54   C55   A    
C34   C35   A    
C11   H3    S    
C1    O3    A    
C5    C10   S    
C35   C36   A    
N2    Zn2   S    
C11   C13   S    
C14   H18   S    
C42   H26   S    
C28   C30   A    
C55   C56   A    
C17   C19   S    
C36   C37   A    
C18   C20   S    
C23   C25   A    
C33   C34   A    
C21   H1    S    
C48   C49   A    
C8    C10   S    
C53   C54   A    
C13   C16   S    
C24   H11   S    
C15   C33   S    
C14   C15   S    
C2    O4    A    
C49   C50   A    
C51   C56   A    
C35   H20   S    
C17   O5    A    
