data_mof_unit_6030.cif
_audit_creation_date              2013-03-05T16:40:14-0500
_audit_creation_method            fapswitch 2.2
_symmetry_space_group_name_H-M    P1
_symmetry_Int_Tables_number       1
_space_group_crystal_system       triclinic
_cell_length_a                    19.282177
_cell_length_b                    18.552203
_cell_length_c                    8.892396
_cell_angle_alpha                 90.051239
_cell_angle_beta                  90.054719
_cell_angle_gamma                 90.001016
_cell_volume                      3181.04619336

loop_
_atom_site_label
_atom_site_type_symbol
_atom_site_description
_atom_site_fract_x
_atom_site_fract_y
_atom_site_fract_z
_atom_type_partial_charge
O1    O     O_R   0.398180 0.560840 0.499960 -0.586129
O2    O     O_R   0.601820 0.439160 0.500040 -0.580720
O3    O     O_R   0.601820 0.560840 0.500040 -0.581205
O4    O     O_R   0.398180 0.439160 0.499960 -0.586017
C1    C     C_R   0.366137 0.500001 0.499935 1.009881
C2    C     C_R   0.633961 0.500001 0.500058 1.004575
O5    O     O_R   0.500000 0.560800 0.285330 -0.603936
O6    O     O_R   0.500000 0.439200 0.714670 -0.603905
O7    O     O_R   0.500000 0.560800 0.714670 -0.585727
O8    O     O_R   0.500000 0.439200 0.285330 -0.585769
C3    C     C_R   0.500643 0.499987 0.218628 1.006230
C4    C     C_R   0.500665 0.500012 0.781374 1.006227
Zn1   Zn    Zn3+2 0.500000 0.581210 0.500000 1.111474
Zn2   Zn    Zn3+2 0.500000 0.418790 0.500000 1.111382
C5    C     C_1   0.501027 0.499980 0.065397 0.032032
C6    C     C_1   0.501036 0.500018 0.934607 0.031988
C7    C     C_R   0.745066 0.461010 0.388200 0.267199
C8    C     C_R   0.255217 0.519863 0.368033 0.255483
C9    C     C_R   0.255372 0.480169 0.631910 0.255392
C10   C     C_R   0.745123 0.538996 0.612121 0.268028
C11   C     C_R   0.817135 0.461260 0.390253 -0.107234
C12   C     C_R   0.183133 0.519927 0.370101 -0.100005
C13   C     C_R   0.183290 0.480065 0.629946 -0.099441
C14   C     C_R   0.817193 0.538740 0.610205 -0.107285
H1    H     H_    0.845754 0.432458 0.304242 0.195599
H2    H     H_    0.154400 0.534194 0.269605 0.194854
H3    H     H_    0.154685 0.465813 0.730505 0.194819
H4    H     H_    0.845858 0.567546 0.696259 0.195551
C15   C     C_R   0.852754 0.499997 0.500263 0.105058
C16   C     C_R   0.147633 0.499984 0.500046 0.104991
C17   C     C_R   0.708889 0.500003 0.500126 -0.244172
C18   C     C_R   0.291381 0.500007 0.499946 -0.244849
C19   C     C_R   0.963956 0.565350 0.477912 0.210753
C20   C     C_R   0.036477 0.434499 0.520596 0.213184
C21   C     C_R   0.036461 0.565489 0.479768 0.213231
C22   C     C_R   0.963975 0.434649 0.522629 0.210976
C23   C     C_R   0.072266 0.499990 0.500125 -0.221990
C24   C     C_R   0.928148 0.500002 0.500298 -0.221134
C25   C     C_R   0.531893 0.726822 0.385975 0.395562
C26   C     C_R   0.468826 0.273085 0.384855 0.394198
C27   C     C_R   0.468098 0.726883 0.614029 0.394804
C28   C     C_R   0.531144 0.273100 0.615106 0.394428
C29   C     C_R   0.530834 0.802657 0.383103 -0.292573
C30   C     C_R   0.470065 0.197240 0.381701 -0.292574
C31   C     C_R   0.469156 0.802723 0.617014 -0.293401
C32   C     C_R   0.529907 0.197257 0.617981 -0.292032
H5    H     H_    0.555157 0.831073 0.290761 0.180773
H6    H     H_    0.446415 0.168793 0.288385 0.180828
H7    H     H_    0.444804 0.831186 0.709361 0.179818
H8    H     H_    0.553512 0.168813 0.711248 0.181844
C33   C     C_R   0.500007 0.841583 0.500088 0.021000
C34   C     C_R   0.500005 0.158334 0.499767 0.019910
N1    N     N_R   0.500000 0.689440 0.500000 -0.206940
N2    N     N_R   0.500000 0.310560 0.500000 -0.206407
C35   C     C_R   0.436636 0.961602 0.497283 -0.052811
C36   C     C_R   0.563445 0.038267 0.501069 -0.051800
C37   C     C_R   0.563429 0.961604 0.502712 -0.051786
C38   C     C_R   0.436620 0.038254 0.498487 -0.052731
C39   C     C_R   0.500023 0.077051 0.499704 0.027078
C40   C     C_R   0.500024 0.922839 0.500085 0.026668
N3    N     N_R   0.709746 0.423069 0.269576 0.230712
O9    O     O_R   0.658419 0.453281 0.198552 -0.363452
O10   O     O_R   0.735293 0.363167 0.217251 -0.342746
N4    N     N_R   0.290573 0.538340 0.231019 0.226807
O11   O     O_R   0.263992 0.585925 0.140256 -0.310007
O12   O     O_R   0.343082 0.500232 0.185368 -0.343988
N5    N     N_R   0.290894 0.461829 0.768931 0.226510
O13   O     O_R   0.343216 0.500243 0.814715 -0.344210
O14   O     O_R   0.264557 0.414134 0.859663 -0.309757
N6    N     N_R   0.709862 0.576948 0.730666 0.230872
O15   O     O_R   0.735446 0.636848 0.783037 -0.343410
O16   O     O_R   0.658546 0.546762 0.801559 -0.363121
N7    N     N_R   0.926710 0.631630 0.455162 0.240105
O17   O     O_R   0.939798 0.687549 0.538940 -0.325317
O18   O     O_R   0.879645 0.636320 0.350646 -0.336485
N8    N     N_R   0.073745 0.368068 0.541229 0.239832
O19   O     O_R   0.060650 0.327111 0.656468 -0.314646
O20   O     O_R   0.120803 0.348258 0.444870 -0.354864
N9    N     N_R   0.073711 0.631916 0.459060 0.239718
O21   O     O_R   0.060454 0.672887 0.343874 -0.315072
O22   O     O_R   0.120911 0.651712 0.555302 -0.353531
N10   N     N_R   0.926747 0.368374 0.545469 0.239961
O23   O     O_R   0.939741 0.312437 0.461732 -0.325243
O24   O     O_R   0.879776 0.363714 0.649995 -0.337789
N11   N     N_R   0.567579 0.689743 0.268569 0.225655
O25   O     O_R   0.548968 0.700362 0.129749 -0.331034
O26   O     O_R   0.628479 0.662606 0.295426 -0.333760
N12   N     N_R   0.433388 0.310036 0.266907 0.228802
O27   O     O_R   0.451662 0.298541 0.128220 -0.329832
O28   O     O_R   0.372766 0.337862 0.293432 -0.324396
N13   N     N_R   0.432227 0.689846 0.731052 0.228884
O29   O     O_R   0.451119 0.699901 0.869915 -0.330058
O30   O     O_R   0.370982 0.663556 0.704119 -0.325169
N14   N     N_R   0.566310 0.310043 0.733639 0.225846
O31   O     O_R   0.548426 0.297698 0.872209 -0.330652
O32   O     O_R   0.626439 0.339028 0.707334 -0.333177
C41   C     C_R   0.369909 0.921604 0.492269 0.122601
C42   C     C_R   0.352330 0.880497 0.365072 -0.159012
C43   C     C_R   0.290383 0.841369 0.361930 -0.106930
C44   C     C_R   0.245567 0.843188 0.485322 -0.045611
C45   C     C_R   0.262603 0.884216 0.612012 -0.102932
C46   C     C_R   0.324574 0.923307 0.615756 -0.153364
H9    H     H_    0.386739 0.878615 0.268940 0.147989
H10   H     H_    0.277167 0.809549 0.263933 0.177453
H11   H     H_    0.197674 0.812770 0.482799 0.189821
H12   H     H_    0.227902 0.885505 0.707563 0.158862
H13   H     H_    0.337582 0.954347 0.715065 0.134285
C47   C     C_R   0.630221 0.078258 0.500165 0.120126
C48   C     C_R   0.649225 0.119522 0.374370 -0.159498
C49   C     C_R   0.711028 0.158924 0.375373 -0.096563
C50   C     C_R   0.754302 0.157200 0.501504 -0.046549
C51   C     C_R   0.735881 0.115975 0.626771 -0.101596
C52   C     C_R   0.674042 0.076621 0.626383 -0.154775
H14   H     H_    0.615990 0.121381 0.276180 0.149785
H15   H     H_    0.725310 0.190908 0.278491 0.188494
H16   H     H_    0.802068 0.187854 0.502220 0.189448
H17   H     H_    0.769380 0.114770 0.724461 0.160271
H18   H     H_    0.659909 0.045502 0.724685 0.134941
C53   C     C_R   0.630137 0.921562 0.507916 0.120651
C54   C     C_R   0.647492 0.880317 0.634929 -0.159978
C55   C     C_R   0.709251 0.840873 0.637962 -0.096212
C56   C     C_R   0.754131 0.842538 0.514682 -0.046316
C57   C     C_R   0.737355 0.883745 0.388233 -0.100897
C58   C     C_R   0.675556 0.923132 0.384572 -0.154568
H19   H     H_    0.613012 0.878508 0.730939 0.149602
H20   H     H_    0.722258 0.808905 0.735764 0.188929
H21   H     H_    0.801868 0.811857 0.517094 0.189210
H22   H     H_    0.772104 0.884911 0.292763 0.160971
H23   H     H_    0.662717 0.954242 0.285373 0.134996
C59   C     C_R   0.369824 0.078186 0.499193 0.122231
C60   C     C_R   0.350573 0.119283 0.625180 -0.159387
C61   C     C_R   0.288575 0.158348 0.624273 -0.106091
C62   C     C_R   0.245380 0.156480 0.498011 -0.045239
C63   C     C_R   0.264084 0.115461 0.372498 -0.104217
C64   C     C_R   0.326103 0.076422 0.372816 -0.153508
H24   H     H_    0.383722 0.121206 0.723507 0.148066
H25   H     H_    0.274063 0.190160 0.721357 0.177157
H26   H     H_    0.197451 0.186854 0.497397 0.189698
H27   H     H_    0.230645 0.114138 0.274713 0.158183
H28   H     H_    0.340419 0.045392 0.274402 0.134242

loop_
_geom_bond_atom_site_label_1
_geom_bond_atom_site_label_2
_geom_bond_distance
_ccdc_geom_bond_type
C45   C46   1.398139 A    
C20   C23   1.409332 A    
N7    O17   1.301223 A    
C59   C64   1.404577 A    
O3    C2    1.287662 A    
C8    N4    1.438414 S    
C41   C42   1.404838 A    
C57   C58   1.398194 A    
N11   O25   1.300405 A    
C36   C37   1.422352 A    
O5    C3    1.274223 A    
C44   H11   1.082452 S    
O1    C1    1.286730 A    
C21   C23   1.409336 A    
N8    O20   1.301357 A    
C51   H17   1.082280 S    
C31   C33   1.399012 A    
C42   H9    1.083151 S    
C32   C34   1.398703 A    
C47   C48   1.404962 A    
C28   C32   1.407517 A    
C56   H21   1.082466 S    
N3    O10   1.301439 A    
O7    Zn1   1.946455 S    
C14   C15   1.393781 A    
C36   C47   1.486070 S    
C7    N3    1.438499 S    
C49   C50   1.397705 A    
C3    C5    1.362612 S    
C4    C6    1.362616 S    
C22   N10   1.438406 S    
C61   C62   1.397736 A    
C15   C24   1.453751 S    
C9    N5    1.438292 S    
N6    O15   1.301456 A    
C13   H3    1.084027 S    
C26   C30   1.407557 A    
C41   C46   1.404538 A    
O3    Zn1   1.999358 S    
C37   C53   1.486095 S    
C1    C18   1.441457 S    
C30   C34   1.398829 A    
C43   H10   1.082351 S    
C62   H26   1.082441 S    
C8    C12   1.390080 A    
C35   C40   1.418355 A    
N7    O18   1.301337 A    
C10   N6    1.438515 S    
O2    C2    1.287680 A    
C9    C18   1.413121 A    
C51   C52   1.398154 A    
Zn1   N1    2.007903 S    
N11   O26   1.299665 A    
C64   H28   1.083068 S    
C5    C6    1.163042 T    
N5    O13   1.300056 A    
C13   C16   1.393857 A    
C10   C14   1.389795 A    
N8    O19   1.301207 A    
C60   H24   1.083159 S    
O8    Zn2   1.946456 S    
C63   H27   1.082277 S    
N9    O22   1.301363 A    
C54   H19   1.083148 S    
C37   C40   1.418575 A    
C25   C29   1.407298 A    
C38   C39   1.418717 A    
C53   C58   1.404553 A    
C11   C15   1.393778 A    
C7    C11   1.389759 A    
N9    O21   1.301210 A    
C16   C23   1.453239 S    
N5    O14   1.301485 A    
N4    O12   1.300027 A    
C47   C52   1.404596 A    
C9    C13   1.389986 A    
C34   C39   1.507984 S    
N13   O30   1.299653 A    
C43   C44   1.397708 A    
C31   H7    1.083345 S    
O6    C4    1.274216 A    
C35   C41   1.485900 S    
C46   H13   1.083060 S    
N14   O32   1.299547 A    
C27   N1    1.374439 A    
C55   C56   1.397671 A    
C50   H16   1.082464 S    
C48   H14   1.083158 S    
C19   N7    1.438379 S    
C27   N13   1.426905 S    
N12   O28   1.299555 A    
C42   C43   1.397980 A    
N14   O31   1.300404 A    
C26   N2    1.375000 A    
C62   C63   1.397911 A    
C7    C17   1.414415 A    
C8    C18   1.413206 A    
C25   N11   1.427153 S    
C60   C61   1.398014 A    
N13   O29   1.300390 A    
C54   C55   1.397993 A    
C45   H12   1.082253 S    
C11   H1    1.084027 S    
O6    Zn2   1.945791 S    
C12   C16   1.393899 A    
C50   C51   1.397937 A    
Zn2   N2    2.007903 S    
C28   N14   1.427540 S    
C14   H4    1.084029 S    
O4    C1    1.286797 A    
C53   C54   1.404977 A    
C63   C64   1.398098 A    
C32   H8    1.083308 S    
N10   O24   1.301326 A    
C19   C24   1.409544 A    
C36   C39   1.418937 A    
N4    O11   1.301521 A    
C26   N12   1.427186 S    
C22   C24   1.409554 A    
C59   C60   1.404818 A    
C61   H25   1.082344 S    
C55   H20   1.082359 S    
C48   C49   1.398032 A    
C28   N2    1.375286 A    
C29   C33   1.398884 A    
C57   H22   1.082256 S    
C25   N1    1.374668 A    
C38   C59   1.485857 S    
C21   N9    1.438455 S    
C44   C45   1.397926 A    
C19   C21   1.398138 A    
C58   H23   1.083060 S    
C2    C17   1.444769 S    
C20   C22   1.398145 A    
O4    Zn2   1.999358 S    
N3    O9    1.300755 A    
O2    Zn2   1.999344 S    
O7    C4    1.274753 A    
O8    C3    1.274746 A    
C52   H18   1.083068 S    
O5    Zn1   1.945791 S    
O1    Zn1   1.999344 S    
N12   O27   1.300362 A    
N10   O23   1.301224 A    
C12   H2    1.084022 S    
C35   C38   1.422094 A    
C27   C31   1.407373 A    
N6    O16   1.300743 A    
C33   C40   1.507469 S    
C56   C57   1.397951 A    
C29   H5    1.083363 S    
C49   H15   1.082358 S    
C30   H6    1.083295 S    
C20   N8    1.438454 S    
C10   C17   1.414444 A    
