data_mof_unit_5531.cif
_audit_creation_date              2012-12-10T17:45:30-0500
_audit_creation_method            fapswitch 2.2
_symmetry_space_group_name_H-M    P1
_symmetry_Int_Tables_number       1
_space_group_crystal_system       triclinic
_cell_length_a                    11.527607
_cell_length_b                    10.627467
_cell_length_c                    9.981108
_cell_angle_alpha                 93.247611
_cell_angle_beta                  90.066203
_cell_angle_gamma                 93.746559
_cell_volume                      1218.19090115

loop_
_atom_site_label
_atom_site_type_symbol
_atom_type_description
_atom_site_fract_x
_atom_site_fract_y
_atom_site_fract_z
_atom_type_partial_charge
C1    C     C_R   0.508421 0.261011 0.496138 0.898217
C2    C     C_R   0.665422 0.097490 0.812232 -0.347262
C3    C     C_R   0.598336 0.992333 0.857097 0.481037
C4    C     C_R   0.527233 0.918483 0.763182 0.456850
C5    C     C_R   0.523541 0.950869 0.626072 -0.165930
C6    C     C_R   0.565451 0.071895 0.597633 0.026210
C7    C     C_R   0.516125 0.127455 0.488891 -0.129965
C8    C     C_R   0.446477 0.056517 0.394139 -0.324159
C9    C     C_R   0.429855 0.927136 0.403524 0.502223
C10   C     C_R   0.474144 0.873391 0.516782 -0.181601
C11   C     C_R   0.329186 0.360390 0.139541 -0.103399
C12   C     C_R   0.282263 0.500675 0.499908 0.908367
C13   C     C_R   0.225954 0.315876 0.079907 -0.219110
C14   C     C_R   0.212949 0.322753 0.943915 -0.221079
C15   C     C_R   0.307241 0.363516 0.865039 0.050397
C16   C     C_R   0.408090 0.434296 0.926051 0.019923
C17   C     C_R   0.412678 0.433122 0.070509 0.099814
C18   C     C_R   0.587846 0.558584 0.074717 -0.111449
C19   C     C_R   0.591431 0.552720 0.931282 0.546758
C20   C     C_R   0.490983 0.739744 0.504797 0.910659
C21   C     C_R   0.717804 0.500739 0.500137 0.870657
C22   C     C_1   0.161715 0.500886 0.499801 -0.165363
C23   C     C_1   0.059439 0.500931 0.499983 0.002361
C24   C     C_1   0.940661 0.500912 0.500254 0.005850
C25   C     C_1   0.838372 0.500846 0.500323 -0.160262
C26   C     C_R   0.646419 0.138720 0.685224 -0.201912
H1    H     H_    0.401523 0.102132 0.316776 0.163777
H2    H     H_    0.134265 0.276874 0.898570 0.149558
H3    H     H_    0.691501 0.226057 0.657561 0.177021
H4    H     H_    0.727005 0.153346 0.876431 0.172541
H5    H     H_    0.342738 0.334435 0.239679 0.197149
H6    H     H_    0.159032 0.267624 0.137640 0.158258
N1    N     N_R   0.498930 0.498800 0.142780 -0.162337
N2    N     N_R   0.498900 0.498720 0.857170 -0.143345
O1    O     O_R   0.500000 0.316780 0.614690 -0.609661
O2    O     O_R   0.499990 0.316750 0.385360 -0.657012
O3    O     O_R   0.334450 0.500030 0.614670 -0.616670
O4    O     O_R   0.334440 0.500000 0.385330 -0.617954
O5    O     O_R   0.500010 0.683250 0.614640 -0.581447
O6    O     O_R   0.500000 0.683220 0.385310 -0.593338
O7    O     O_R   0.665560 0.500000 0.614670 -0.569824
O8    O     O_R   0.665550 0.499970 0.385330 -0.614372
Zn1   Zn    Zn3+2 0.500010 0.500020 0.653130 0.998541
Zn2   Zn    Zn3+2 0.499990 0.499980 0.346870 0.945439
C27   C     C_1   0.298019 0.294293 0.737286 0.256640
N3    N     N_1   0.281957 0.233993 0.637831 -0.241432
O9    O     O_3   0.697639 0.572572 0.868808 -0.606531
C28   C     C_3   0.721321 0.701562 0.848803 -0.232139
H7    H     H_    0.669931 0.729970 0.763608 0.196690
H8    H     H_    0.707511 0.762845 0.940079 0.183206
H9    H     H_    0.814210 0.716542 0.821411 0.167552
O10   O     O_3   0.599339 0.954375 0.988766 -0.631861
C29   C     C_3   0.641519 0.050210 0.083538 -0.371967
H10   H     H_    0.597018 0.139156 0.073746 0.180523
H11   H     H_    0.737464 0.066020 0.076222 0.179203
H12   H     H_    0.623198 0.018343 0.185636 0.195905
O11   O     O_3   0.454547 0.822820 0.811700 -0.581818
C30   C     C_3   0.340402 0.862989 0.819055 -0.279043
H13   H     H_    0.303928 0.873844 0.717505 0.171400
H14   H     H_    0.336573 0.952633 0.881914 0.149162
H15   H     H_    0.284387 0.789636 0.866937 0.181053
O12   O     O_3   0.354381 0.854822 0.316981 -0.615685
C31   C     C_3   0.396065 0.856390 0.184307 -0.175788
H16   H     H_    0.342719 0.785249 0.121285 0.186048
H17   H     H_    0.487470 0.829023 0.177851 0.198879
H18   H     H_    0.387102 0.949646 0.141841 0.159149
C32   C     C_1   0.681916 0.625706 0.149097 0.300984
N4    N     N_1   0.757739 0.680866 0.207473 -0.214286

loop_
_geom_bond_atom_site_label_1
_geom_bond_atom_site_label_2
_ccdc_geom_bond_type
C4    O11   S    
O3    Zn1   S    
C23   C24   S    
C31   H17   S    
C24   C25   T    
O4    Zn2   S    
O12   C31   S    
O1    Zn1   S    
C9    C10   A    
C13   H6    S    
O9    C28   S    
C14   C15   A    
O6    Zn2   S    
C2    H4    S    
C14   H2    S    
C30   H15   S    
C28   H8    S    
C2    C3    A    
C30   H13   S    
C31   H18   S    
C11   H5    S    
C7    C8    A    
C2    C26   A    
C1    C7    S    
C27   N3    T    
C3    O10   S    
O7    Zn1   S    
O11   C30   S    
C6    C26   A    
C17   N1    A    
C32   N4    T    
C21   O7    A    
C5    C10   A    
C28   H7    S    
C6    C7    A    
C29   H11   S    
C1    O2    A    
C12   O4    A    
C5    C6    A    
C20   O6    A    
C18   N1    A    
C19   O9    S    
O2    Zn2   S    
C16   C17   A    
C15   C16   A    
C15   C27   S    
C31   H16   S    
C30   H14   S    
C3    C4    A    
C12   C22   S    
C11   C13   A    
O10   C29   S    
C1    O1    A    
C26   H3    S    
C18   C19   A    
C29   H12   S    
C12   O3    A    
C20   O5    A    
C8    H1    S    
C21   C25   S    
C22   C23   T    
C8    C9    A    
O5    Zn1   S    
C21   O8    A    
C16   N2    A    
C18   C32   S    
C13   C14   A    
N1    Zn2   S    
C28   H9    S    
O8    Zn2   S    
N2    Zn1   S    
C9    O12   S    
C29   H10   S    
C10   C20   S    
C4    C5    A    
C19   N2    A    
C11   C17   A    
