data_mof_unit_15306.cif
_audit_creation_date              2012-12-11T14:46:24-0500
_audit_creation_method            fapswitch 2.2
_symmetry_space_group_name_H-M    P1
_symmetry_Int_Tables_number       1
_space_group_crystal_system       monoclinic
_cell_length_a                    17.415003
_cell_length_b                    17.57562
_cell_length_c                    6.937393
_cell_angle_alpha                 90.0
_cell_angle_beta                  91.866661
_cell_angle_gamma                 90.0
_cell_volume                      2122.26680516

loop_
_atom_site_label
_atom_site_type_symbol
_atom_type_description
_atom_site_fract_x
_atom_site_fract_y
_atom_site_fract_z
_atom_type_partial_charge
O1    O     O_R   0.796490 0.328940 0.373020 -0.543828
O2    O     O_R   0.203510 0.671060 0.626980 -0.543828
O3    O     O_R   0.203510 0.828940 0.626980 -0.543828
O4    O     O_R   0.796490 0.171060 0.373020 -0.543828
O5    O     O_R   0.805560 0.173330 0.702970 -0.515540
O6    O     O_R   0.194440 0.826670 0.297030 -0.515540
O7    O     O_R   0.194440 0.673330 0.297030 -0.515540
O8    O     O_R   0.805560 0.326670 0.702970 -0.515540
O9    O     O_R   0.658440 0.172360 0.870170 -0.529738
O10   O     O_R   0.341560 0.827640 0.129830 -0.529738
O11   O     O_R   0.341560 0.672360 0.129830 -0.529738
O12   O     O_R   0.658440 0.327640 0.870170 -0.529738
C1    C     C_R   0.823515 0.145254 0.538338 0.722756
C2    C     C_R   0.176485 0.854746 0.461662 0.722755
C3    C     C_R   0.176485 0.645254 0.461662 0.722755
C4    C     C_R   0.823515 0.354746 0.538338 0.722755
H1    H     H_    0.043803 0.052709 0.145007 0.121795
H2    H     H_    0.956197 0.947291 0.854993 0.121795
H3    H     H_    0.956197 0.552709 0.854992 0.121795
H4    H     H_    0.043803 0.447291 0.145008 0.121795
O13   O     O_3   0.679200 0.250000 0.537050 -0.371264
O14   O     O_3   0.320800 0.750000 0.462950 -0.371264
V1    V     V_3+5 0.736420 0.250000 0.813120 1.469618
V2    V     V_3+5 0.263580 0.750000 0.186880 1.469618
O15   O     O_R   0.649370 0.327980 0.199650 -0.537857
O16   O     O_R   0.350630 0.672020 0.800350 -0.537857
O17   O     O_R   0.350630 0.827980 0.800350 -0.537857
O18   O     O_R   0.649370 0.172020 0.199650 -0.537857
C5    C     C_R   0.630511 0.354241 0.028841 0.726633
C6    C     C_R   0.369489 0.645759 0.971159 0.726634
C7    C     C_R   0.369489 0.854241 0.971159 0.726634
C8    C     C_R   0.630511 0.145759 0.028841 0.726633
H5    H     H_    0.929669 0.111691 0.273078 0.141254
H6    H     H_    0.070331 0.888308 0.726922 0.141253
H7    H     H_    0.070331 0.611692 0.726922 0.141253
H8    H     H_    0.929669 0.388308 0.273078 0.141253
V3    V     V_3+5 0.718510 0.250000 0.312740 1.426029
V4    V     V_3+5 0.281490 0.750000 0.687260 1.426029
O19   O     O_3   0.775740 0.250000 0.038930 -0.359658
O20   O     O_3   0.224260 0.750000 0.961070 -0.359658
C9    C     C_1   0.574098 0.083350 0.015126 -0.211825
C10   C     C_1   0.425902 0.916650 0.984874 -0.211825
C11   C     C_1   0.425902 0.583350 0.984874 -0.211825
C12   C     C_1   0.574098 0.416650 0.015126 -0.211825
C13   C     C_1   0.527447 0.030958 0.005396 0.003998
C14   C     C_1   0.472553 0.969042 0.994604 0.003998
C15   C     C_1   0.472553 0.530957 0.994604 0.003998
C16   C     C_1   0.527447 0.469042 0.005396 0.003998
C17   C     C_R   0.881590 0.082798 0.546182 -0.102282
C18   C     C_R   0.118410 0.917202 0.453818 -0.102283
C19   C     C_R   0.118410 0.582798 0.453817 -0.102283
C20   C     C_R   0.881590 0.417202 0.546183 -0.102282
C21   C     C_R   0.049307 0.016881 0.271980 -0.250428
C22   C     C_R   0.950692 0.983119 0.728020 -0.250428
C23   C     C_R   0.950692 0.516881 0.728020 -0.250428
C24   C     C_R   0.049308 0.483119 0.271980 -0.250428
C25   C     C_R   0.110888 0.965457 0.289339 0.290795
C26   C     C_R   0.889112 0.034543 0.710661 0.290795
C27   C     C_R   0.889112 0.465457 0.710661 0.290795
C28   C     C_R   0.110888 0.534543 0.289339 0.290795
C29   C     C_R   0.065469 0.924846 0.601162 -0.296963
C30   C     C_R   0.934531 0.075154 0.398838 -0.296963
C31   C     C_R   0.934531 0.424846 0.398838 -0.296963
C32   C     C_R   0.065469 0.575154 0.601162 -0.296963
C33   C     C_R   0.004281 0.977065 0.583187 0.120709
C34   C     C_R   0.995719 0.022935 0.416813 0.120708
C35   C     C_R   0.995719 0.477065 0.416813 0.120708
C36   C     C_R   0.004281 0.522935 0.583187 0.120708
N1    N     N_2   0.835065 0.037227 0.860319 -0.506679
H9    H     H_    0.857693 0.022527 0.994534 0.249242
C37   C     C_3   0.763747 0.997935 0.815227 -0.521436
H10   H     H_    0.774722 0.936342 0.792344 0.183714
H11   H     H_    0.735068 0.022337 0.683913 0.188371
H12   H     H_    0.724484 0.004274 0.937052 0.184949
N2    N     N_2   0.164935 0.962773 0.139681 -0.506680
H13   H     H_    0.142307 0.977473 0.005466 0.249242
C38   C     C_3   0.236253 0.002064 0.184772 -0.521436
H14   H     H_    0.225278 0.063658 0.207656 0.183714
H15   H     H_    0.275516 0.995726 0.062948 0.184949
H16   H     H_    0.264932 0.977663 0.316087 0.188371
N3    N     N_2   0.164935 0.537227 0.139681 -0.506679
H17   H     H_    0.142307 0.522527 0.005466 0.249242
C39   C     C_3   0.236253 0.497935 0.184773 -0.521436
H18   H     H_    0.225278 0.436342 0.207656 0.183714
H19   H     H_    0.264932 0.522337 0.316087 0.188371
H20   H     H_    0.275516 0.504274 0.062948 0.184949
N4    N     N_2   0.835065 0.462773 0.860319 -0.506679
H21   H     H_    0.857693 0.477473 0.994534 0.249242
C40   C     C_3   0.763747 0.502065 0.815227 -0.521436
H22   H     H_    0.774722 0.563658 0.792344 0.183714
H23   H     H_    0.724484 0.495726 0.937052 0.184949
H24   H     H_    0.735068 0.477663 0.683913 0.188371

loop_
_geom_bond_atom_site_label_1
_geom_bond_atom_site_label_2
_ccdc_geom_bond_type
N4    H21   S    
C7    C10   S    
C23   C27   A    
O12   C5    A    
H4    C24   S    
C23   C36   A    
C22   C33   A    
C38   H14   S    
O12   V1    S    
C32   C36   A    
O17   V4    S    
O7    V2    S    
O14   V4    S    
O11   V2    S    
O8    V1    S    
C10   C14   T    
O4    C1    A    
N1    C37   S    
O9    C8    A    
O15   V3    S    
O10   C7    A    
C15   C16   S    
O3    V4    S    
H5    C30   S    
C8    C9    S    
H7    C32   S    
C3    C19   S    
C40   H23   S    
H8    C31   S    
O5    C1    A    
O1    V3    S    
O7    C3    A    
O8    C4    A    
N3    C39   S    
N3    H17   S    
C38   H15   S    
O15   C5    A    
C31   C35   A    
C30   C34   A    
O17   C7    A    
C35   C36   A    
O18   C8    A    
O11   C6    A    
C37   H11   S    
C21   C25   A    
O16   V4    S    
O10   V2    S    
C13   C14   S    
H6    C29   S    
C17   C26   A    
C24   C28   A    
N2    H13   S    
C21   C34   A    
C20   C27   A    
O6    C2    A    
C28   N3    S    
O2    V4    S    
C39   H18   S    
O5    V1    S    
O6    V2    S    
O1    C4    A    
C40   H24   S    
O2    C3    A    
N2    C38   S    
O3    C2    A    
C1    C17   S    
C39   H19   S    
O16   C6    A    
O13   V1    S    
C5    C12   S    
O14   V2    S    
C6    C11   S    
H1    C21   S    
C22   C26   A    
C38   H16   S    
H3    C23   S    
C17   C30   A    
C18   C25   A    
O9    V1    S    
C19   C32   A    
C4    C20   S    
C20   C31   A    
C37   H12   S    
C26   N1    S    
C24   C35   A    
C25   N2    S    
N4    C40   S    
C37   H10   S    
V3    O19   S    
V4    O20   S    
C2    C18   S    
O18   V3    S    
V1    O19   S    
V2    O20   S    
N1    H9    S    
C27   N4    S    
H2    C22   S    
C29   C33   A    
C39   H20   S    
O13   V3    S    
O4    V3    S    
C33   C34   A    
C18   C29   A    
C9    C13   T    
C19   C28   A    
C40   H22   S    
C11   C15   T    
C12   C16   T    
