data_mof_unit_33290.cif
_audit_creation_date              2012-10-26T18:27:57-0400
_audit_creation_method            fapswitch 2.2
_symmetry_space_group_name_H-M    P1
_symmetry_Int_Tables_number       1
_space_group_crystal_system       triclinic
_cell_length_a                    15.856376
_cell_length_b                    11.04469
_cell_length_c                    9.83218
_cell_angle_alpha                 111.629227
_cell_angle_beta                  97.014291
_cell_angle_gamma                 91.530085
_cell_volume                      1583.87013174

loop_
_atom_site_label
_atom_site_type_symbol
_atom_type_description
_atom_site_fract_x
_atom_site_fract_y
_atom_site_fract_z
_atom_type_partial_charge
C1    C     C_R   0.494123 0.253931 0.440089 0.553595
C2    C     C_2   0.503761 0.071025 0.516543 -0.143094
C3    C     C_2   0.510428 0.886988 0.596266 0.073535
C4    C     C_R   0.340468 0.499804 0.502342 0.545214
C5    C     C_2   0.500419 0.931818 0.486473 -0.102770
C6    C     C_2   0.518593 0.482361 0.068959 0.358760
C7    C     C_2   0.493474 0.484280 0.915654 -0.029913
C8    C     C_R   0.506298 0.746237 0.560153 0.558682
C9    C     C_R   0.659571 0.499661 0.497667 0.549634
C10   C     C_3   0.060136 0.516794 0.674906 0.399604
C11   C     C_3   0.041041 0.378288 0.393462 -0.223749
C12   C     C_3   0.958840 0.494201 0.654579 0.061372
C13   C     C_3   0.942635 0.381131 0.371463 0.168498
C14   C     C_1   0.748849 0.498184 0.493551 -0.022726
C15   C     C_3   0.084561 0.505955 0.518795 0.065541
C16   C     C_3   0.165442 0.699187 0.825971 0.035598
C17   C     C_3   0.224242 0.634934 0.911705 -0.258050
C18   C     C_3   0.306447 0.720854 0.988185 -0.484000
C19   C     C_3   0.660230 0.440768 0.057812 -0.001555
C20   C     C_3   0.658736 0.306186 0.071117 -0.248701
C21   C     C_3   0.707116 0.211473 0.957077 -0.489264
C22   C     C_3   0.901381 0.163678 0.219794 -0.005697
C23   C     C_3   0.917382 0.497691 0.502900 0.083099
C24   C     C_3   0.851630 0.040196 0.211510 -0.246452
C25   C     C_3   0.852187 0.928699 0.062772 -0.489189
C26   C     C_3   0.952873 0.625521 0.491043 -0.300487
C27   C     C_3   0.049744 0.622478 0.482691 -0.250361
C28   C     C_1   0.824536 0.497534 0.495422 -0.003262
C29   C     C_1   0.176357 0.502928 0.513261 -0.061290
C30   C     C_1   0.251431 0.500910 0.508084 -0.049340
C31   C     C_2   0.491242 0.114155 0.406281 -0.151055
Cu1   Cu    Cu3+1 0.514650 0.521810 0.644910 0.914516
Cu2   Cu    Cu3+1 0.485350 0.478190 0.355090 0.973155
H1    H     H_    0.935179 0.578631 0.741210 0.155444
H2    H     H_    0.059372 0.290820 0.416561 0.128114
H3    H     H_    0.922538 0.401068 0.269137 0.087472
H4    H     H_    0.082907 0.717188 0.559581 0.139384
H5    H     H_    0.061137 0.612096 0.369524 0.110964
H6    H     H_    0.941164 0.711573 0.588659 0.134755
H7    H     H_    0.939365 0.391100 0.787733 0.202473
H8    H     H_    0.954493 0.293980 0.614835 0.269910
H9    H     H_    0.162961 0.802532 0.900478 0.140290
H10   H     H_    0.193419 0.707412 0.732150 0.120533
H11   H     H_    0.190762 0.617292 0.996390 0.171498
H12   H     H_    0.919609 0.638115 0.391172 0.107287
H13   H     H_    0.242773 0.540725 0.834913 0.192615
H14   H     H_    0.341284 0.739379 0.905463 0.165565
H15   H     H_    0.348058 0.670605 0.046496 0.149951
H16   H     H_    0.292162 0.815512 0.070598 0.140537
H17   H     H_    0.476361 0.954988 0.801389 0.234069
H18   H     H_    0.582635 0.955764 0.797411 0.235079
H19   H     H_    0.725178 0.489889 0.103564 0.134056
H20   H     H_    0.651246 0.428583 0.939561 0.136115
H21   H     H_    0.688872 0.316604 0.183268 0.178623
H22   H     H_    0.592222 0.263462 0.053508 0.180999
H23   H     H_    0.489168 0.864685 0.371597 0.133688
H24   H     H_    0.710378 0.118432 0.975747 0.143344
H25   H     H_    0.772871 0.253717 0.966304 0.135468
H26   H     H_    0.673778 0.190334 0.843683 0.172155
H27   H     H_    0.083894 0.426294 0.826066 0.225769
H28   H     H_    0.091744 0.325814 0.649948 0.197596
H29   H     H_    0.967714 0.140499 0.199769 0.123709
H30   H     H_    0.870247 0.194954 0.131875 0.121092
H31   H     H_    0.880483 0.009308 0.301256 0.170766
H32   H     H_    0.784617 0.061501 0.227592 0.173618
H33   H     H_    0.823251 0.956923 0.971123 0.144096
H34   H     H_    0.516293 0.139441 0.630624 0.193758
H35   H     H_    0.814672 0.841199 0.059830 0.148351
H36   H     H_    0.918486 0.903162 0.046411 0.153305
H37   H     H_    0.478768 0.046611 0.291734 0.098652
H38   H     H_    0.439070 0.420783 0.845590 0.118975
H39   H     H_    0.587484 0.615517 0.931385 0.226370
H40   H     H_    0.402276 0.418090 0.081453 0.159207
H41   H     H_    0.063899 0.366918 0.286975 0.076159
N1    N     N_2   0.463320 0.445430 0.137380 -0.332112
N2    N     N_2   0.536720 0.554500 0.862620 -0.363862
N3    N     N_3   0.926426 0.377312 0.675962 -0.620684
N4    N     N_3   0.525031 0.975212 0.748307 -0.665755
N5    N     N_3   0.103085 0.421471 0.726325 -0.636510
O1    O     O_R   0.507820 0.332330 0.577400 -0.500246
O2    O     O_3   0.601503 0.522624 0.139620 -0.527326
O3    O     O_3   0.901256 0.261822 0.361296 -0.561694
O4    O     O_R   0.483070 0.295500 0.332660 -0.496340
O5    O     O_R   0.391820 0.518430 0.622420 -0.497829
O6    O     O_R   0.367070 0.481600 0.377680 -0.500064
O7    O     O_R   0.516930 0.704500 0.667340 -0.497400
O8    O     O_R   0.492180 0.667670 0.422600 -0.486253
O9    O     O_R   0.632930 0.518400 0.622320 -0.496485
O10   O     O_R   0.608180 0.481570 0.377580 -0.438109
O11   O     O_3   0.079345 0.645163 0.787818 -0.590987

loop_
_geom_bond_atom_site_label_1
_geom_bond_atom_site_label_2
_ccdc_geom_bond_type
H27   N5    S    
C16   O11   S    
C5    H23   S    
C19   C20   S    
H39   N2    S    
C18   H14   S    
C6    N1    D    
C12   C23   S    
C26   C27   S    
C22   O3    S    
H28   N5    S    
C21   H26   S    
C10   C15   S    
C9    O9    A    
C7    H38   S    
C26   H6    S    
C22   H29   S    
C27   H5    S    
Cu1   O9    S    
C1    C31   S    
C13   C23   S    
C23   C26   S    
Cu2   O6    S    
C26   H12   S    
C22   H30   S    
C11   C15   S    
C19   H19   S    
Cu2   N1    S    
C31   H37   S    
C16   C17   S    
C19   H20   S    
C24   H31   S    
C6    O2    S    
H40   N1    S    
C25   H35   S    
C20   H22   S    
H17   N4    S    
C15   C29   S    
Cu1   O5    S    
C24   C25   S    
C13   H3    S    
C20   H21   S    
C3    C8    S    
C9    O10   A    
C4    O6    A    
C13   O3    S    
C2    C31   D    
C9    C14   S    
C21   H24   S    
C29   C30   T    
Cu2   O10   S    
Cu1   O1    S    
C15   C27   S    
C4    O5    A    
Cu1   O7    S    
C12   N3    S    
C17   C18   S    
C23   C28   S    
C17   H13   S    
Cu2   O4    S    
C16   H10   S    
C7    N2    D    
C10   C12   S    
C24   H32   S    
C2    H34   S    
C22   C24   S    
C2    C5    S    
C25   H36   S    
C12   H1    S    
C16   H9    S    
C25   H33   S    
C3    C5    D    
C11   H41   S    
C18   H15   S    
Cu1   N2    S    
C10   N5    S    
C6    C7    S    
C1    O4    A    
C8    O8    A    
Cu1   Cu2   S    
C11   H2    S    
Cu2   O8    S    
C17   H11   S    
C21   H25   S    
H8    N3    S    
C11   C13   S    
C27   H4    S    
C8    O7    A    
H18   N4    S    
C20   C21   S    
C10   O11   S    
C1    O1    A    
H7    N3    S    
C14   C28   T    
C19   O2    S    
C3    N4    S    
C4    C30   S    
C18   H16   S    
