data_mof_unit_24421.cif
_audit_creation_date              2012-12-11T15:44:57-0500
_audit_creation_method            fapswitch 2.2
_symmetry_space_group_name_H-M    P1
_symmetry_Int_Tables_number       1
_space_group_crystal_system       triclinic
_cell_length_a                    6.922
_cell_length_b                    16.972302
_cell_length_c                    17.013996
_cell_angle_alpha                 100.289354
_cell_angle_beta                  89.309256
_cell_angle_gamma                 90.610987
_cell_volume                      1966.48155175

loop_
_atom_site_label
_atom_site_type_symbol
_atom_type_description
_atom_site_fract_x
_atom_site_fract_y
_atom_site_fract_z
_atom_type_partial_charge
O1    O     O_R   0.494370 0.415690 0.413450 -0.544597
O2    O     O_R   0.819420 0.429360 0.578420 -0.540289
O3    O     O_R   0.994280 0.584310 0.586550 -0.538160
C1    C     C_R   0.650749 0.415319 0.606255 0.783285
O4    O     O_R   0.823790 0.406230 0.413570 -0.511126
O5    O     O_R   0.998670 0.561000 0.420530 -0.540486
C2    C     C_R   0.654121 0.382417 0.385171 0.762882
O6    O     O_R   0.489970 0.439000 0.579470 -0.527444
O7    O     O_3   0.662300 0.550810 0.502470 -0.379708
V1    V     V_3+5 0.935380 0.490570 0.499540 1.507309
O8    O     O_R   0.328650 0.570640 0.421580 -0.533982
C3    C     C_R   0.162412 0.585809 0.394295 0.713200
O9    O     O_R   0.324290 0.593770 0.586430 -0.550121
C4    C     C_R   0.154194 0.616322 0.615399 0.719860
V2    V     V_3+5 0.435930 0.509430 0.500460 1.476918
O10   O     O_3   0.159140 0.449190 0.497530 -0.357895
C5    C     C_R   0.295192 0.736716 0.702268 -0.188885
H1    H     H_    0.423344 0.729859 0.664554 0.164866
C6    C     C_R   0.284235 0.802746 0.764145 0.323889
C7    C     C_R   0.120538 0.813138 0.816777 -0.217849
C8    C     C_R   0.968365 0.755181 0.803088 0.089245
C9    C     C_R   0.972623 0.695120 0.734062 0.342384
C10   C     C_R   0.139804 0.683626 0.684669 -0.222189
C11   C     C_R   0.167220 0.638482 0.332236 -0.219433
C12   C     C_R   0.101445 0.863737 0.168695 -0.110559
C13   C     C_R   0.941772 0.826827 0.286616 0.409714
C14   C     C_R   0.975053 0.882913 0.235186 -0.008011
C15   C     C_R   0.207155 0.791770 0.158457 0.079658
C16   C     C_R   0.207150 0.745119 0.220692 -0.040233
C17   C     C_R   0.062644 0.758911 0.281752 -0.043388
C18   C     C_R   0.046515 0.706570 0.338728 0.323686
C19   C     C_R   0.313312 0.626677 0.272069 0.099412
C20   C     C_R   0.346789 0.684928 0.223508 0.186267
C21   C     C_R   0.647236 0.365928 0.670327 -0.122027
C22   C     C_R   0.616543 0.137550 0.831677 -0.217501
C23   C     C_R   0.481718 0.162559 0.704984 0.290152
C24   C     C_R   0.492981 0.115355 0.765782 0.233201
C25   C     C_R   0.714722 0.212555 0.841067 0.256794
C26   C     C_R   0.690538 0.262764 0.783498 -0.018974
C27   C     C_R   0.579798 0.237146 0.713684 -0.076983
C28   C     C_R   0.567631 0.288063 0.655171 0.339923
C29   C     C_R   0.747815 0.392144 0.742165 0.025156
C30   C     C_R   0.771939 0.340149 0.796546 -0.072424
H2    H     H_    0.852719 0.361366 0.850451 0.178188
C31   C     C_R   0.793843 0.257364 0.300177 0.347470
C32   C     C_R   0.783658 0.194659 0.233374 -0.231458
H3    H     H_    0.902280 0.153064 0.220839 0.122065
C33   C     C_R   0.620970 0.184097 0.184019 -0.143434
C34   C     C_R   0.467748 0.237558 0.201721 -0.164641
H4    H     H_    0.340486 0.230622 0.164547 0.155035
C35   C     C_R   0.474469 0.300496 0.267157 0.276670
C36   C     C_R   0.640308 0.312640 0.317032 -0.158320
O11   O     O_R   0.774880 0.061150 0.920630 -0.542663
O12   O     O_R   0.440980 0.093710 0.086500 -0.550134
O13   O     O_R   0.266190 0.938890 0.079390 -0.541476
C37   C     C_R   0.609887 0.116534 0.115191 0.708562
O14   O     O_R   0.445420 0.070740 0.921670 -0.516047
O15   O     O_R   0.270660 0.915760 0.913380 -0.530065
C38   C     C_R   0.614258 0.086762 0.895151 0.781295
O16   O     O_R   0.770400 0.084270 0.086640 -0.544638
O17   O     O_3   0.602590 0.949210 0.997500 -0.372134
V3    V     V_3+5 0.329470 0.009420 0.000470 1.459308
O18   O     O_R   0.940650 0.906250 0.913470 -0.536184
C39   C     C_R   0.110067 0.882557 0.885198 0.728348
O19   O     O_R   0.936210 0.929220 0.078300 -0.541840
C40   C     C_R   0.102821 0.914283 0.105378 0.732963
V4    V     V_3+5 0.828930 0.990510 0.999490 1.431113
O20   O     O_3   0.105680 0.050790 0.002500 -0.368409
C41   C     C_3   0.290948 0.759505 0.076198 -0.736847
H5    H     H_    0.188506 0.768772 0.028981 0.177547
H6    H     H_    0.429164 0.790448 0.066823 0.213930
H7    H     H_    0.311895 0.693867 0.066619 0.214300
O21   O     O_3   0.486767 0.262401 0.581340 -0.617133
H8    H     H_    0.550942 0.211428 0.558200 0.321315
C42   C     C_3   0.827870 0.476119 0.762541 -0.703687
H9    H     H_    0.894275 0.488203 0.822654 0.196247
H10   H     H_    0.940690 0.486310 0.718507 0.226841
H11   H     H_    0.708277 0.519102 0.762612 0.228996
O22   O     O_3   0.367228 0.138179 0.639028 -0.626467
H12   H     H_    0.370243 0.078954 0.625175 0.304014
O23   O     O_3   0.379412 0.047674 0.763193 -0.655507
H13   H     H_    0.255328 0.055671 0.737404 0.300437
O24   O     O_3   0.827132 0.241014 0.907117 -0.644566
H14   H     H_    0.810245 0.207257 0.948344 0.289087
O25   O     O_3   0.949831 0.263855 0.350858 -0.636921
H15   H     H_    0.042024 0.220151 0.331483 0.286044
O26   O     O_3   0.436785 0.855995 0.769967 -0.636934
H16   H     H_    0.383156 0.910364 0.783097 0.334898
O27   O     O_3   0.317902 0.350356 0.279031 -0.647023
H17   H     H_    0.260828 0.344309 0.331243 0.329035
C43   C     C_3   0.802451 0.754669 0.862051 -0.638742
H18   H     H_    0.859053 0.760342 0.923639 0.167042
H19   H     H_    0.701898 0.804247 0.858476 0.248619
H20   H     H_    0.717142 0.698136 0.850987 0.221488
O28   O     O_3   0.811765 0.647493 0.716239 -0.655426
H21   H     H_    0.754355 0.664205 0.668742 0.297100
O29   O     O_3   0.914951 0.724128 0.401045 -0.594343
H22   H     H_    0.967505 0.707319 0.449231 0.285585
C44   C     C_3   0.437483 0.552264 0.259757 -0.683340
H23   H     H_    0.489072 0.536341 0.196977 0.199936
H24   H     H_    0.564343 0.561822 0.299786 0.214791
H25   H     H_    0.352454 0.499834 0.271433 0.229335
O30   O     O_3   0.795565 0.838748 0.343532 -0.597181
H26   H     H_    0.690475 0.869700 0.324817 0.299707
C45   C     C_3   0.547385 0.690334 0.187415 -0.738075
H27   H     H_    0.658902 0.678108 0.229970 0.227801
H28   H     H_    0.563594 0.646203 0.131233 0.196480
H29   H     H_    0.581094 0.751519 0.176536 0.211820
C46   C     C_3   0.875810 0.963482 0.252456 -0.752504
H30   H     H_    0.956697 0.009691 0.226610 0.191348
H31   H     H_    0.727315 0.957886 0.227965 0.201774
H32   H     H_    0.868859 0.986202 0.317818 0.224065

loop_
_geom_bond_atom_site_label_1
_geom_bond_atom_site_label_2
_ccdc_geom_bond_type
O15   V3    S    
O26   H16   S    
C42   H9    S    
C25   O24   S    
O21   H8    S    
O2    C1    A    
C15   C41   S    
C21   C29   A    
C1    O6    A    
O29   H22   S    
O11   C38   A    
O14   V3    S    
C31   C32   A    
C12   C15   A    
C45   H28   S    
C15   C16   A    
C29   C42   S    
C5    C10   A    
O24   H14   S    
C23   C24   A    
C22   C24   A    
C2    C36   S    
C6    O26   S    
C46   H31   S    
O5    C3    A    
C17   C18   A    
O14   C38   A    
V2    O10   S    
O13   V3    S    
C16   C20   A    
C22   C38   S    
C9    O28   S    
C41   H6    S    
O8    V2    S    
O28   H21   S    
O16   V4    S    
C34   C35   A    
O1    V2    S    
O7    V1    S    
C8    C9    A    
C24   O23   S    
O17   V3    S    
C21   C28   A    
O23   H13   S    
O18   V4    S    
O15   C39   A    
C45   H29   S    
O12   C37   A    
V4    O20   S    
C23   C27   A    
C22   C25   A    
C20   C45   S    
O22   H12   S    
C46   H32   S    
C43   H18   S    
O4    C2    A    
C26   C30   A    
O12   V3    S    
C31   C36   A    
O19   V4    S    
O25   H15   S    
C37   O16   A    
C4    C10   S    
C7    C39   S    
C41   H7    S    
C31   O25   S    
C30   H2    S    
C11   C19   A    
C16   C17   A    
C13   O30   S    
C43   H19   S    
O17   V4    S    
C44   H23   S    
C5    H1    S    
C13   C14   A    
C42   H10   S    
O3    C4    A    
C33   C34   A    
C44   H24   S    
C13   C17   A    
O6    V2    S    
O9    V2    S    
C34   H4    S    
C29   C30   A    
O2    V1    S    
C26   C27   A    
O13   C40   A    
C8    C43   S    
C33   C37   S    
C32   H3    S    
C27   C28   A    
O1    C2    A    
C12   C40   S    
C23   O22   S    
O5    V1    S    
O8    C3    A    
C12   C14   A    
C45   H27   S    
C3    C11   S    
C19   C44   S    
V3    O20   S    
C19   C20   A    
C6    C7    A    
O7    V2    S    
C11   C18   A    
C35   C36   A    
O3    V1    S    
V1    O10   S    
C46   H30   S    
C35   O27   S    
C43   H20   S    
C25   C26   A    
C5    C6    A    
C18   O29   S    
C1    C21   S    
C41   H5    S    
O11   V4    S    
C42   H11   S    
C28   O21   S    
O18   C39   A    
C32   C33   A    
O4    V1    S    
C44   H25   S    
C7    C8    A    
C14   C46   S    
O19   C40   A    
O30   H26   S    
C9    C10   A    
O27   H17   S    
O9    C4    A    
