data_mof_unit_38898.cif
_audit_creation_date              2012-12-10T17:49:33-0500
_audit_creation_method            fapswitch 2.2
_symmetry_space_group_name_H-M    P1
_symmetry_Int_Tables_number       1
_space_group_crystal_system       triclinic
_cell_length_a                    14.738554
_cell_length_b                    14.701891
_cell_length_c                    15.893545
_cell_angle_alpha                 75.254242
_cell_angle_beta                  102.215178
_cell_angle_gamma                 115.674281
_cell_volume                      2981.30510308

loop_
_atom_site_label
_atom_site_type_symbol
_atom_type_description
_atom_site_fract_x
_atom_site_fract_y
_atom_site_fract_z
_atom_type_partial_charge
C1    C     C_R   0.880025 0.311058 0.513029 0.841277
C2    C     C_3   0.982471 0.379377 0.074630 0.813279
C3    C     C_3   0.999626 0.492724 0.085032 -0.268332
C4    C     C_3   0.109424 0.570079 0.053336 0.479408
C5    C     C_3   0.104924 0.582160 0.950346 0.748495
C6    C     C_1   0.000612 0.495652 0.176852 0.102965
C7    C     C_1   0.999368 0.498891 0.824790 0.263249
C8    C     C_1   0.998917 0.499603 0.749040 -0.147038
C9    C     C_R   0.812033 0.199759 0.524945 -0.329672
C10   C     C_R   0.187180 0.798177 0.488108 -0.269477
C11   C     C_R   0.779905 0.019284 0.587839 0.453675
C12   C     C_R   0.999566 0.499826 0.659527 0.779788
C13   C     C_R   0.848615 0.122311 0.564539 0.201641
C14   C     C_R   0.707381 0.170963 0.501181 0.474994
C15   C     C_R   0.638206 0.072609 0.536298 -0.157279
C16   C     C_R   0.673913 0.993882 0.573971 -0.147715
C17   C     C_R   0.533418 0.050274 0.530831 -0.121178
C18   C     C_R   0.463343 0.947546 0.535806 -0.138522
C19   C     C_R   0.497851 0.868771 0.577960 0.376619
C20   C     C_R   0.602742 0.891482 0.596427 0.381591
C21   C     C_R   0.496642 0.126474 0.526716 0.489809
C22   C     C_R   0.392515 0.104157 0.507309 0.432187
C23   C     C_R   0.119855 0.688534 0.487611 0.855947
C24   C     C_R   0.322466 0.003261 0.498730 -0.203359
C25   C     C_R   0.359372 0.926591 0.506957 -0.155442
C26   C     C_R   0.216227 0.975238 0.487432 0.455215
C27   C     C_R   0.150357 0.870403 0.494444 0.184023
C28   C     C_R   0.290933 0.831227 0.483744 0.448367
C29   C     C_R   0.689807 0.616061 0.322945 0.242143
C30   C     C_R   0.785755 0.616630 0.361627 0.519790
C31   C     C_R   0.719632 0.524942 0.496803 0.539250
C32   C     C_R   0.629135 0.541321 0.466273 -0.046076
C33   C     C_R   0.610363 0.574010 0.375476 -0.118271
C34   C     C_R   0.000552 0.500218 0.340569 0.805708
C35   C     C_R   0.551310 0.512822 0.520797 0.000788
C36   C     C_R   0.450568 0.496267 0.481381 -0.084626
C37   C     C_R   0.430510 0.506406 0.388475 0.392825
C38   C     C_R   0.510678 0.555643 0.337550 -0.071289
C39   C     C_R   0.574020 0.509981 0.612381 0.411404
C40   C     C_R   0.493566 0.456673 0.666408 0.424624
C41   C     C_R   0.391917 0.432317 0.626607 -0.172661
C42   C     C_R   0.374122 0.469834 0.536128 -0.287263
C43   C     C_R   0.307445 0.378454 0.675204 0.355985
C44   C     C_R   0.212381 0.380583 0.636827 0.436963
C45   C     C_3   0.992612 0.387762 0.974184 0.480450
C46   C     C_R   0.282685 0.485726 0.506372 0.546558
C47   C     C_3   0.908634 0.522004 0.927756 0.531879
C48   C     C_3   0.905892 0.517991 0.028316 0.649101
C49   C     C_1   0.000789 0.498373 0.251646 -0.164857
C50   C     C_3   0.000819 0.497485 0.918187 -0.161033
Cu1   Cu    Cu3+1 0.081750 0.475690 0.522550 1.060130
Cu2   Cu    Cu3+1 0.918250 0.524310 0.477450 1.016819
H1    H     H_    0.493115 0.570071 0.266956 0.218542
N1    N     N_R   0.795410 0.560790 0.443550 -0.283125
N2    N     N_R   0.204590 0.439170 0.556520 -0.230935
O1    O     O_R   0.977910 0.338120 0.529720 -0.531095
O2    O     O_R   0.839850 0.379180 0.491640 -0.561980
O3    O     O_R   0.069060 0.479460 0.639610 -0.530340
O4    O     O_R   0.931000 0.520530 0.601530 -0.587385
O5    O     O_R   0.160150 0.620820 0.508360 -0.487561
O6    O     O_R   0.022090 0.661880 0.470280 -0.560780
O7    O     O_R   0.069000 0.479470 0.398470 -0.537018
O8    O     O_R   0.930940 0.520540 0.360390 -0.520285
O9    O     O_3   0.883633 0.302942 0.093172 -0.559713
C51   C     C_3   0.867772 0.273261 0.182984 -0.239433
H2    H     H_    0.937560 0.288666 0.230197 0.157826
H3    H     H_    0.821772 0.189345 0.196596 0.157279
H4    H     H_    0.823321 0.311377 0.196537 0.199756
O10   O     O_3   0.080413 0.373710 0.969722 -0.672145
H5    H     H_    0.077014 0.362156 0.910020 0.348013
O11   O     O_3   0.059131 0.350633 0.131700 -0.558434
C52   C     C_3   0.047277 0.248537 0.135665 -0.139480
H6    H     H_    0.112603 0.250624 0.109891 0.209480
H7    H     H_    0.976360 0.200609 0.099732 0.142200
H8    H     H_    0.048846 0.209641 0.205295 0.143335
O12   O     O_3   0.144581 0.667711 0.075289 -0.803966
H9    H     H_    0.161552 0.662064 0.139708 0.332574
O13   O     O_3   0.636819 0.814586 0.635584 -0.632297
H10   H     H_    0.579743 0.746235 0.639140 0.368236
O14   O     O_3   0.322682 0.771764 0.452170 -0.665185
H11   H     H_    0.388553 0.815999 0.429051 0.323203
O15   O     O_3   0.052063 0.841453 0.509654 -0.735113
H12   H     H_    0.034664 0.778494 0.555403 0.349129
O16   O     O_3   0.360895 0.183804 0.489875 -0.505636
C53   C     C_3   0.347505 0.200843 0.568917 -0.184223
H13   H     H_    0.316502 0.128722 0.617615 0.127743
H14   H     H_    0.292147 0.236821 0.553994 0.180276
H15   H     H_    0.419737 0.255562 0.597642 0.155352
O17   O     O_3   0.814651 0.942370 0.624389 -0.631167
H16   H     H_    0.889430 0.970115 0.628870 0.369289
O18   O     O_3   0.950933 0.144803 0.580023 -0.692601
H17   H     H_    0.978527 0.179580 0.523176 0.339370
O19   O     O_3   0.672616 0.238387 0.440548 -0.504211
C54   C     C_3   0.669861 0.222706 0.356014 -0.266272
H18   H     H_    0.616073 0.143511 0.347251 0.150707
H19   H     H_    0.746718 0.238439 0.342050 0.113693
H20   H     H_    0.642777 0.277171 0.307316 0.203440
O20   O     O_3   0.907886 0.310165 0.937381 -0.745444
H21   H     H_    0.914552 0.243778 0.960613 0.344264
O21   O     O_3   0.429426 0.769811 0.605927 -0.554117
C55   C     C_3   0.404977 0.763922 0.688841 -0.290276
H22   H     H_    0.366843 0.815793 0.685510 0.149924
H23   H     H_    0.473395 0.781451 0.738080 0.163208
H24   H     H_    0.351232 0.684263 0.711516 0.204511
O22   O     O_3   0.559804 0.220888 0.549731 -0.510186
C56   C     C_3   0.588282 0.206513 0.641321 -0.336476
H25   H     H_    0.522492 0.155932 0.678818 0.113741
H26   H     H_    0.620862 0.281965 0.661892 0.204969
H27   H     H_    0.647699 0.175424 0.659543 0.176381
O23   O     O_3   0.178702 0.049184 0.477991 -0.685542
H28   H     H_    0.104322 0.019757 0.461955 0.359855
O24   O     O_3   0.273716 0.555837 0.432367 -0.628764
H29   H     H_    0.342252 0.609066 0.421759 0.345593
O25   O     O_3   0.127493 0.330217 0.680826 -0.661014
H30   H     H_    0.146681 0.306734 0.743369 0.343605
O26   O     O_3   0.513792 0.450201 0.756552 -0.536690
C57   C     C_3   0.531586 0.360702 0.797227 -0.245380
H31   H     H_    0.526783 0.312031 0.751564 0.091864
H32   H     H_    0.477057 0.313253 0.845598 0.225747
H33   H     H_    0.607066 0.382508 0.836330 0.174561
O27   O     O_3   0.671311 0.653164 0.234767 -0.726343
H34   H     H_    0.728437 0.664657 0.204250 0.363416
O28   O     O_3   0.868005 0.665538 0.314363 -0.551944
C58   C     C_3   0.906171 0.772037 0.312643 -0.287615
H35   H     H_    0.917058 0.789767 0.378991 0.211190
H36   H     H_    0.855806 0.806354 0.267556 0.158838
H37   H     H_    0.981318 0.809214 0.287877 0.187418
O29   O     O_3   0.724247 0.462790 0.576687 -0.744411
H38   H     H_    0.758451 0.420040 0.572930 0.376047
O30   O     O_3   0.920604 0.620150 0.879090 -0.680176
H39   H     H_    0.857296 0.629067 0.878070 0.352966
O31   O     O_3   0.334585 0.465325 0.344870 -0.691244
H40   H     H_    0.292846 0.404058 0.384530 0.347480
O32   O     O_3   0.666997 0.584355 0.639383 -0.567916
C59   C     C_3   0.717144 0.549235 0.717730 -0.033004
H41   H     H_    0.705411 0.467896 0.724967 0.172166
H42   H     H_    0.695967 0.563374 0.774634 0.188628
H43   H     H_    0.799738 0.595288 0.716448 0.207685
O33   O     O_3   0.317790 0.329053 0.760902 -0.537889
C60   C     C_3   0.284346 0.222906 0.762507 -0.378478
H44   H     H_    0.342234 0.207626 0.740823 0.145697
H45   H     H_    0.210172 0.190067 0.722296 0.184453
H46   H     H_    0.274705 0.181659 0.831078 0.204614
O34   O     O_3   0.816839 0.452727 0.889325 -0.771860
H47   H     H_    0.796072 0.383181 0.925425 0.387638
O35   O     O_3   0.816632 0.434644 0.055013 -0.706052
H48   H     H_    0.757231 0.451321 0.027030 0.359197
O36   O     O_3   0.892053 0.603196 0.044034 -0.576567
C61   C     C_3   0.972737 0.699854 0.041466 -0.200887
H49   H     H_    0.019068 0.721395 0.988156 0.245513
H50   H     H_    0.016445 0.705958 0.107197 0.196521
H51   H     H_    0.939869 0.757916 0.027721 0.169432
O37   O     O_3   0.184751 0.563869 0.929137 -0.527836
C62   C     C_3   0.280485 0.647342 0.932023 -0.160046
H52   H     H_    0.339515 0.618734 0.934426 0.188736
H53   H     H_    0.298385 0.682305 0.990976 0.186716
H54   H     H_    0.285138 0.706131 0.871329 0.128851
O38   O     O_3   0.108546 0.679443 0.903338 -0.721096
H55   H     H_    0.166588 0.735431 0.928366 0.337575
O39   O     O_3   0.182946 0.529850 0.093703 -0.626321
H56   H     H_    0.190008 0.525022 0.158034 0.362656

loop_
_geom_bond_atom_site_label_1
_geom_bond_atom_site_label_2
_ccdc_geom_bond_type
C10   C27   A    
C59   H43   S    
O19   C54   S    
C46   O24   S    
C41   C42   A    
C36   C42   A    
C19   C20   A    
C60   H46   S    
C9    C14   A    
C3    C6    S    
O29   H38   S    
O25   H30   S    
O28   C58   S    
C4    O39   S    
C53   H13   S    
C25   C28   A    
C18   C25   A    
C26   C27   A    
C55   H22   S    
C36   C37   A    
C1    O1    A    
C24   C26   A    
Cu1   O1    S    
C45   O20   S    
C61   H50   S    
O14   H11   S    
C56   H25   S    
C15   C16   A    
C29   C33   A    
C3    C48   S    
C34   O7    A    
O26   C57   S    
C59   H42   S    
C18   C19   A    
C42   C46   A    
C9    C13   A    
O23   H28   S    
C34   O8    A    
C12   O4    A    
O16   C53   S    
C35   C36   A    
C2    O9    S    
O31   H40   S    
C51   H3    S    
C29   O27   S    
C46   N2    A    
C47   C48   S    
C43   O33   S    
C29   C30   A    
C26   O23   S    
C14   O19   S    
C62   H53   S    
C8    C12   S    
C12   O3    A    
C44   O25   S    
C55   H23   S    
C21   C22   A    
C13   O18   S    
C41   C43   A    
C54   H18   S    
Cu1   O7    S    
C31   O29   S    
C52   H8    S    
O24   H29   S    
Cu2   N1    S    
C47   C50   S    
C53   H14   S    
C2    C45   S    
C60   H44   S    
C23   O5    A    
C47   O30   S    
C45   O10   S    
Cu1   Cu2   S    
C32   C35   A    
C59   H41   S    
C1    C9    S    
O12   H9    S    
C62   H54   S    
C52   H7    S    
C57   H33   S    
O18   H17   S    
O13   H10   S    
C52   H6    S    
C54   H20   S    
C47   O34   S    
C17   C21   A    
C48   O35   S    
C22   O16   S    
C35   C39   A    
C43   C44   A    
C37   C38   A    
Cu2   O4    S    
C1    O2    A    
C30   N1    A    
C11   C16   A    
C11   O17   S    
C31   C32   A    
C16   C20   A    
C51   H4    S    
C17   C18   A    
O27   H34   S    
Cu1   O3    S    
C24   C25   A    
C54   H19   S    
C62   H52   S    
C58   H37   S    
C40   C41   A    
O15   H12   S    
C55   H24   S    
O38   H55   S    
C22   C24   A    
C5    C50   S    
C61   H51   S    
C3    C4    S    
C5    O38   S    
C39   C40   A    
C58   H36   S    
O35   H48   S    
C53   H15   S    
C10   C28   A    
C15   C17   A    
C34   C49   S    
C27   O15   S    
C7    C50   S    
C60   H45   S    
C4    C5    S    
Cu2   O8    S    
Cu2   O6    S    
O33   C60   S    
O32   C59   S    
C10   C23   S    
O22   C56   S    
C33   C38   A    
C37   O31   S    
C20   O13   S    
O34   H47   S    
C32   C33   A    
C57   H32   S    
C2    C3    S    
O37   C62   S    
O11   C52   S    
C61   H49   S    
O9    C51   S    
C19   O21   S    
C11   C13   A    
C44   N2    A    
C40   O26   S    
C38   H1    S    
C56   H26   S    
C45   C50   S    
C5    O37   S    
C48   O36   S    
O21   C55   S    
O30   H39   S    
Cu1   N2    S    
O36   C61   S    
C51   H2    S    
C31   N1    A    
O10   H5    S    
C28   O14   S    
O39   H56   S    
C4    O12   S    
C7    C8    T    
Cu2   O2    S    
C23   O6    A    
C30   O28   S    
O20   H21   S    
C14   C15   A    
Cu1   O5    S    
O17   H16   S    
C57   H31   S    
C56   H27   S    
C21   O22   S    
C6    C49   T    
C2    O11   S    
C58   H35   S    
C39   O32   S    
