data_mof_unit_15131.cif
_audit_creation_date              2012-12-10T17:52:03-0500
_audit_creation_method            fapswitch 2.2
_symmetry_space_group_name_H-M    P1
_symmetry_Int_Tables_number       1
_space_group_crystal_system       triclinic
_cell_length_a                    14.768128
_cell_length_b                    14.896578
_cell_length_c                    19.328037
_cell_angle_alpha                 75.138642
_cell_angle_beta                  102.163403
_cell_angle_gamma                 115.719587
_cell_volume                      3678.46260472

loop_
_atom_site_label
_atom_site_type_symbol
_atom_type_description
_atom_site_fract_x
_atom_site_fract_y
_atom_site_fract_z
_atom_type_partial_charge
C1    C     C_R   0.880065 0.312505 0.513310 0.815195
C2    C     C_R   0.119629 0.687429 0.489525 0.805954
C3    C     C_R   0.811043 0.205090 0.528378 -0.049869
C4    C     C_R   0.186806 0.794967 0.487851 -0.065897
C5    C     C_R   0.778123 0.030245 0.583131 -0.184544
C6    C     C_R   0.216755 0.972765 0.457825 -0.194771
C7    C     C_R   0.846538 0.130020 0.563785 -0.200472
C8    C     C_R   0.150681 0.871385 0.460249 -0.186696
C9    C     C_R   0.706941 0.179169 0.511806 -0.205662
C10   C     C_R   0.288527 0.820847 0.515210 -0.237202
C11   C     C_R   0.636330 0.080275 0.533668 0.080342
C12   C     C_R   0.357269 0.922481 0.512326 0.087761
C13   C     C_R   0.673580 0.004887 0.568491 0.150514
C14   C     C_R   0.319864 0.998917 0.482126 0.162892
C15   C     C_R   0.530087 0.053979 0.520345 0.064982
C16   C     C_R   0.462573 0.950161 0.535227 0.056195
C17   C     C_R   0.502794 0.877737 0.571936 -0.171232
C18   C     C_R   0.489091 0.127997 0.493362 -0.216244
C19   C     C_R   0.606278 0.905023 0.588493 -0.207272
C20   C     C_R   0.385816 0.100673 0.475437 -0.227597
C21   C     C_R   0.700991 0.634692 0.359377 -0.305293
C22   C     C_R   0.267499 0.313896 0.610190 -0.307208
C23   C     C_R   0.999862 0.500220 0.632221 0.790400
C24   C     C_R   0.000682 0.500506 0.367684 0.804542
C25   C     C_R   0.789725 0.621057 0.388068 0.051553
C26   C     C_R   0.194024 0.353109 0.596178 0.051961
C27   C     C_R   0.713907 0.511947 0.492876 0.118250
C28   C     C_R   0.287733 0.489423 0.508680 0.118107
C29   C     C_R   0.618259 0.515983 0.463022 -0.077724
C30   C     C_R   0.360161 0.446914 0.516041 -0.075314
C31   C     C_R   0.615254 0.582505 0.396364 0.158018
C32   C     C_R   0.350742 0.360547 0.570621 0.153891
C33   C     C_R   0.526434 0.459493 0.497119 0.083783
C34   C     C_R   0.443159 0.488235 0.473202 0.088709
C35   C     C_R   0.441894 0.549585 0.404276 -0.196292
C36   C     C_R   0.510735 0.369924 0.549359 -0.209117
C37   C     C_R   0.526103 0.595459 0.366590 -0.178934
C38   C     C_R   0.424144 0.320871 0.584717 -0.180691
C39   C     C_R   0.055508 0.456179 0.762442 -0.181136
C40   C     C_R   0.933206 0.529269 0.238282 -0.193998
C41   C     C_R   0.056697 0.457361 0.834423 -0.155592
C42   C     C_R   0.934401 0.530736 0.166186 -0.155009
C43   C     C_R   0.002672 0.503537 0.853335 0.049752
C44   C     C_R   0.004373 0.504455 0.146047 0.057724
C45   C     C_R   0.947754 0.548847 0.798824 -0.149574
C46   C     C_R   0.073528 0.477158 0.199417 -0.167847
C47   C     C_R   0.946935 0.547960 0.726798 -0.167640
C48   C     C_R   0.072579 0.476042 0.271573 -0.159622
C49   C     C_R   0.000329 0.501169 0.708064 -0.044570
C50   C     C_R   0.002179 0.501804 0.291632 -0.027919
C51   C     C_R   0.004663 0.505002 0.069812 0.412180
C52   C     C_R   0.003674 0.504432 0.929485 0.413199
Cu1   Cu    Cu3+1 0.081740 0.475680 0.518680 0.963920
Cu2   Cu    Cu3+1 0.918260 0.524320 0.481320 0.965115
H1    H     H_    0.097377 0.419479 0.749463 0.151235
H2    H     H_    0.878205 0.549789 0.252094 0.151002
H3    H     H_    0.521705 0.642571 0.314016 0.143509
H4    H     H_    0.415456 0.252149 0.624291 0.148187
H5    H     H_    0.127576 0.314135 0.624562 0.130515
H6    H     H_    0.854203 0.657783 0.357679 0.132693
H7    H     H_    0.698768 0.684267 0.307648 0.141580
H8    H     H_    0.258312 0.246211 0.650947 0.142109
H9    H     H_    0.374044 0.558214 0.376405 0.159556
H10   H     H_    0.561410 0.332302 0.560466 0.162172
H11   H     H_    0.099607 0.421645 0.875177 0.154166
H12   H     H_    0.880044 0.551989 0.126352 0.153969
H13   H     H_    0.906005 0.585763 0.811637 0.160637
H14   H     H_    0.128586 0.456801 0.185546 0.152877
H15   H     H_    0.905869 0.585307 0.685801 0.191543
H16   H     H_    0.126836 0.454771 0.311551 0.165576
H17   H     H_    0.633833 0.847058 0.616389 0.157187
H18   H     H_    0.357748 0.159816 0.454238 0.150140
H19   H     H_    0.312638 0.759952 0.536955 0.186662
H20   H     H_    0.682813 0.237688 0.480887 0.158985
H21   H     H_    0.071829 0.852994 0.439697 0.157549
H22   H     H_    0.926825 0.148546 0.577371 0.151705
H23   H     H_    0.806918 0.972993 0.610270 0.139848
H24   H     H_    0.187685 0.030926 0.435340 0.136380
H25   H     H_    0.456321 0.799212 0.590345 0.171806
H26   H     H_    0.534656 0.208278 0.486431 0.146052
N1    N     N_R   0.943680 0.539621 0.948752 -0.238993
N2    N     N_R   0.064860 0.470046 0.050534 -0.241557
N3    N     N_R   0.944100 0.539807 0.017563 -0.240845
N4    N     N_R   0.064312 0.469699 0.981722 -0.241358
N5    N     N_R   0.795420 0.560800 0.453240 -0.216860
N6    N     N_R   0.204580 0.439200 0.546760 -0.216005
O1    O     O_R   0.977910 0.338110 0.524620 -0.601588
O2    O     O_R   0.022090 0.661890 0.475380 -0.591091
O3    O     O_R   0.839850 0.379180 0.493080 -0.545928
O4    O     O_R   0.160150 0.620820 0.506920 -0.565213
O5    O     O_R   0.069040 0.479450 0.615630 -0.591875
O6    O     O_R   0.930960 0.520550 0.384370 -0.602397
O7    O     O_R   0.930990 0.520520 0.584090 -0.562166
O8    O     O_R   0.069010 0.479480 0.415910 -0.541142
C53   C     C_2   0.311607 0.595030 0.470295 0.848855
O9    O     O_2   0.386528 0.663229 0.492830 -0.628470
O10   O     O_R   0.254550 0.616556 0.405840 -0.762466
H27   H     H_    0.280649 0.691663 0.384300 0.322169
C54   C     C_2   0.730564 0.471434 0.570330 0.853709
O11   O     O_2   0.727294 0.515495 0.614498 -0.616539
O12   O     O_R   0.743484 0.380367 0.593301 -0.765192
H28   H     H_    0.751846 0.360070 0.647732 0.323309

loop_
_geom_bond_atom_site_label_1
_geom_bond_atom_site_label_2
_ccdc_geom_bond_type
C1    O1    A    
C15   C18   A    
Cu2   O2    S    
O12   H28   S    
C27   C29   A    
C19   H17   S    
C53   O9    D    
C4    C8    A    
O10   H27   S    
C39   C41   A    
Cu1   Cu2   S    
C46   H14   S    
C21   C31   A    
C27   C54   S    
C22   C32   A    
C28   C53   S    
C35   C37   A    
C3    C7    A    
C10   H19   S    
C43   C52   S    
C23   C49   S    
C6    C14   A    
C15   C16   A    
C29   C33   A    
C17   H25   S    
C33   C36   A    
C52   N4    A    
C34   C35   A    
C27   N5    A    
C47   H15   S    
Cu2   O7    S    
C38   H4    S    
C11   C15   A    
C39   H1    S    
C12   C16   A    
C16   C17   A    
C40   H2    S    
C45   H13   S    
C2    O2    A    
Cu1   N6    S    
C25   H6    S    
C32   C38   A    
C26   H5    S    
C21   H7    S    
C40   C42   A    
C41   C43   A    
C42   C44   A    
C24   O6    A    
N1    N3    A    
C44   C46   A    
C45   C47   A    
C24   C50   S    
C46   C48   A    
C30   C34   A    
C14   C20   A    
Cu2   O3    S    
C47   C49   A    
C5    C7    A    
C13   C19   A    
C6    C8    A    
C8    H21   S    
C23   O7    A    
C1    C3    S    
C2    C4    S    
Cu2   O6    S    
C3    C9    A    
C24   O8    A    
C22   H8    S    
C43   C45   A    
C54   O11   D    
C26   N6    A    
C25   N5    A    
C33   C34   A    
Cu1   O1    S    
C9    C11   A    
C51   N2    A    
C10   C12   A    
Cu1   O5    S    
C44   C51   S    
C18   H26   S    
C39   C49   A    
C12   C14   A    
N2    N4    A    
C28   N6    A    
C23   O5    A    
C9    H20   S    
C5    H23   S    
C36   C38   A    
C51   N3    A    
C21   C25   A    
C1    O3    A    
C54   O12   S    
Cu1   O8    S    
C5    C13   A    
C48   H16   S    
Cu2   N5    S    
C41   H11   S    
C53   O10   S    
C7    H22   S    
C28   C30   A    
C29   C31   A    
C30   C32   A    
C11   C13   A    
C40   C50   A    
C48   C50   A    
C17   C19   A    
C18   C20   A    
C52   N1    A    
C6    H24   S    
C31   C37   A    
C2    O4    A    
C22   C26   A    
Cu1   O4    S    
C42   H12   S    
C20   H18   S    
C35   H9    S    
C36   H10   S    
C4    C10   A    
C37   H3    S    
