data_mof_unit_53443.cif
_audit_creation_date              2012-12-10T17:10:59-0500
_audit_creation_method            fapswitch 2.2
_symmetry_space_group_name_H-M    P1
_symmetry_Int_Tables_number       1
_space_group_crystal_system       triclinic
_cell_length_a                    11.763724
_cell_length_b                    12.907458
_cell_length_c                    13.394888
_cell_angle_alpha                 92.619795
_cell_angle_beta                  76.443662
_cell_angle_gamma                 97.423831
_cell_volume                      1960.38788816

loop_
_atom_site_label
_atom_site_type_symbol
_atom_type_description
_atom_site_fract_x
_atom_site_fract_y
_atom_site_fract_z
_atom_type_partial_charge
C1    C     C_R   0.517539 0.699752 0.504217 0.807952
C2    C     C_R   0.451472 0.463408 0.972933 0.120430
C3    C     C_R   0.483841 0.451742 0.865106 0.091935
C4    C     C_R   0.540547 0.478033 0.029631 -0.096633
C5    C     C_R   0.656012 0.454600 0.981418 -0.023388
C6    C     C_R   0.679542 0.421182 0.878517 -0.117296
C7    C     C_R   0.595768 0.421192 0.821013 -0.213541
C8    C     C_R   0.520173 0.519065 0.131299 0.363508
C9    C     C_R   0.712208 0.479349 0.144108 -0.301559
C10   C     C_R   0.400357 0.465259 0.806482 -0.117385
C11   C     C_R   0.488099 0.190553 0.474012 -0.025281
C12   C     C_R   0.436819 0.486413 0.695161 0.783307
C13   C     C_R   0.517356 0.811387 0.517123 -0.050803
C14   C     C_R   0.424135 0.948374 0.620603 -0.191913
C15   C     C_R   0.447694 0.845905 0.608811 -0.238147
C16   C     C_R   0.571315 0.880759 0.436485 0.078061
C17   C     C_R   0.544027 0.985115 0.447335 0.137503
C18   C     C_R   0.468944 0.017572 0.540060 0.144652
C19   C     C_R   0.441153 0.119856 0.552311 -0.242869
C20   C     C_R   0.560690 0.159975 0.382167 -0.152893
C21   C     C_R   0.588023 0.058152 0.368341 -0.159883
C22   C     C_R   0.933153 0.588033 0.604244 -0.266153
C23   C     C_R   0.483266 0.300444 0.494355 0.783701
C24   C     C_R   0.818255 0.581000 0.593093 0.091667
C25   C     C_R   0.860346 0.459709 0.455388 0.116786
C26   C     C_R   0.979516 0.463917 0.462887 -0.109373
C27   C     C_R   0.017264 0.531920 0.537278 -0.002076
C28   C     C_R   0.138056 0.543598 0.542136 0.277828
C29   C     C_R   0.178258 0.412233 0.412080 0.035756
C30   C     C_R   0.061790 0.403690 0.399059 0.319306
C31   C     C_R   0.563276 0.506448 0.304192 0.875218
C32   C     C_R   0.744119 0.463669 0.038177 0.466539
C33   C     C_R   0.599696 0.503670 0.191642 -0.241196
C34   C     C_R   0.281068 0.462041 0.856829 -0.189015
C35   C     C_R   0.246386 0.448902 0.962618 -0.065895
C36   C     C_R   0.330553 0.451429 0.020615 -0.084741
Cu1   Cu    Cu3+1 0.386470 0.492430 0.492410 0.973958
Cu2   Cu    Cu3+1 0.613530 0.507570 0.507590 0.951420
H1    H     H_    0.776388 0.474677 0.189476 0.236604
H2    H     H_    0.599642 0.216325 0.322351 0.147566
H3    H     H_    0.368106 0.972775 0.691826 0.156846
H4    H     H_    0.645455 0.039113 0.296236 0.164303
H5    H     H_    0.407725 0.791830 0.670459 0.151784
H6    H     H_    0.240828 0.365514 0.364753 0.196749
H7    H     H_    0.953219 0.638885 0.665495 0.177689
H8    H     H_    0.755682 0.625193 0.644058 0.147115
H9    H     H_    0.762459 0.393999 0.841258 0.207168
H10   H     H_    0.826883 0.409338 0.399528 0.185319
H11   H     H_    0.214375 0.467265 0.814276 0.164120
H12   H     H_    0.300496 0.439865 0.102231 0.213541
H13   H     H_    0.154251 0.438522 0.000321 0.242741
H14   H     H_    0.618201 0.390370 0.743563 0.180525
H15   H     H_    0.387786 0.145934 0.624284 0.132940
N1    N     N_R   0.215880 0.481050 0.481000 -0.225140
N2    N     N_R   0.784100 0.518950 0.519000 -0.208732
O1    O     O_R   0.419710 0.645650 0.494620 -0.569742
O2    O     O_R   0.611450 0.658430 0.507430 -0.581410
O3    O     O_R   0.357340 0.490460 0.641450 -0.610410
O4    O     O_R   0.549080 0.503250 0.654260 -0.592001
O5    O     O_R   0.388550 0.341570 0.492570 -0.583054
O6    O     O_R   0.580290 0.354350 0.505380 -0.583856
O7    O     O_R   0.450920 0.496750 0.345740 -0.521937
O8    O     O_R   0.642660 0.509540 0.358550 -0.596656
C37   C     C_3   0.655941 0.843270 0.341137 -0.380977
C38   C     C_3   0.783796 0.879957 0.344293 -0.765286
H16   H     H_    0.800363 0.966473 0.348404 0.268080
H17   H     H_    0.804690 0.847155 0.412222 0.259112
H18   H     H_    0.843380 0.852252 0.273871 0.259503
H19   H     H_    0.646924 0.756929 0.333663 0.231962
H20   H     H_    0.636191 0.869850 0.270136 0.231562
C39   C     C_3   0.178310 0.630133 0.612206 -0.361917
C40   C     C_3   0.181057 0.738807 0.569135 -0.798513
H21   H     H_    0.095198 0.751390 0.554190 0.247480
H22   H     H_    0.202717 0.799571 0.625297 0.243507
H23   H     H_    0.248448 0.749654 0.495823 0.281620
H24   H     H_    0.121287 0.623377 0.690778 0.171840
H25   H     H_    0.263732 0.625727 0.627531 0.251611
S1    S     S_3+6 0.023619 0.317840 0.301914 -0.014083
O9    O     O_2   0.926971 0.234871 0.350013 -0.304580
O10   O     O_2   0.980842 0.378682 0.227932 -0.272206
O11   O     O_3   0.140818 0.260807 0.237736 -0.550919
H26   H     H_    0.115095 0.223524 0.179014 0.385395
S2    S     S_3+6 0.895175 0.460158 0.980762 -0.013666
O12   O     O_2   0.967922 0.514365 0.050589 -0.262684
O13   O     O_2   0.918950 0.348247 0.964352 -0.309531
O14   O     O_3   0.931925 0.521818 0.867584 -0.565662
H27   H     H_    0.003281 0.492592 0.828316 0.350749
S3    S     S_3+6 0.424323 0.617991 0.170630 0.008379
O15   O     O_2   0.479526 0.699885 0.233869 -0.329277
O16   O     O_2   0.405082 0.669284 0.078396 -0.263238
O17   O     O_3   0.293452 0.566972 0.242191 -0.539494
H28   H     H_    0.252286 0.627931 0.270282 0.379670

loop_
_geom_bond_atom_site_label_1
_geom_bond_atom_site_label_2
_ccdc_geom_bond_type
C14   C18   A    
C35   C36   A    
C4    C8    A    
Cu1   O7    S    
C24   N2    A    
C11   C19   A    
C26   C27   A    
C29   C30   A    
C1    O1    A    
C7    H14   S    
C18   C19   A    
C3    C7    A    
C5    C6    A    
C20   H2    S    
S1    O10   D    
C29   N1    A    
C9    H1    S    
C34   C35   A    
C9    C32   A    
Cu1   O1    S    
Cu2   N2    S    
C16   C17   A    
C38   H17   S    
C31   C33   S    
C37   H20   S    
Cu1   O3    S    
Cu2   O6    S    
C12   O3    A    
C19   H15   S    
C9    C33   A    
C12   O4    A    
C31   O7    A    
C40   H23   S    
O11   H26   S    
C23   O5    A    
C11   C20   A    
C6    H9    S    
C31   O8    A    
C40   H22   S    
O17   H28   S    
C28   N1    A    
S1    O9    D    
C4    C5    A    
C25   C26   A    
C17   C21   A    
C21   H4    S    
C8    S3    S    
C2    C4    A    
Cu1   Cu2   S    
C1    O2    A    
Cu2   O2    S    
S2    O12   D    
S3    O17   S    
C38   H18   S    
S2    O14   S    
C17   C18   A    
C10   C34   A    
C37   H19   S    
C20   C21   A    
C25   H10   S    
C10   C12   S    
C14   H3    S    
Cu1   N1    S    
S2    O13   D    
S3    O16   D    
C26   C30   A    
C22   C27   A    
C13   C15   A    
C29   H6    S    
C35   H13   S    
C22   C24   A    
C28   C39   S    
C1    C13   S    
C39   H25   S    
C36   H12   S    
Cu2   O8    S    
C2    C36   A    
C32   S2    S    
C34   H11   S    
O14   H27   S    
C25   N2    A    
C40   H21   S    
C6    C7    A    
C24   H8    S    
C37   C38   S    
C5    C32   A    
C2    C3    A    
C15   H5    S    
C39   C40   S    
C3    C10   A    
S1    O11   S    
C39   H24   S    
C11   C23   S    
C8    C33   A    
Cu1   O5    S    
Cu2   O4    S    
C30   S1    S    
C23   O6    A    
C22   H7    S    
S3    O15   D    
C38   H16   S    
C13   C16   A    
C27   C28   A    
C14   C15   A    
C16   C37   S    
