data_mof_unit_31707.cif
_audit_creation_date              2012-12-10T18:14:38-0500
_audit_creation_method            fapswitch 2.2
_symmetry_space_group_name_H-M    P1
_symmetry_Int_Tables_number       1
_space_group_crystal_system       triclinic
_cell_length_a                    10.720018
_cell_length_b                    9.459682
_cell_length_c                    27.773892
_cell_angle_alpha                 89.906203
_cell_angle_beta                  88.98611
_cell_angle_gamma                 89.868699
_cell_volume                      2816.04181635

loop_
_atom_site_label
_atom_site_type_symbol
_atom_type_description
_atom_site_fract_x
_atom_site_fract_y
_atom_site_fract_z
_atom_type_partial_charge
C1    C     C_R   0.260051 0.500080 0.501775 0.811872
C2    C     C_R   0.489547 0.375544 0.278253 -0.094522
C3    C     C_R   0.489364 0.504455 0.253503 0.361140
C4    C     C_R   0.497546 0.517890 0.101829 -0.046687
C5    C     C_R   0.383209 0.527504 0.127292 -0.024030
C6    C     C_R   0.273178 0.549775 0.102078 -0.224599
C7    C     C_R   0.609045 0.503859 0.127520 -0.015148
C8    C     C_R   0.494120 0.501211 0.354450 -0.001488
C9    C     C_R   0.500218 0.499416 0.645564 -0.035706
C10   C     C_R   0.391190 0.502682 0.974928 0.057869
C11   C     C_R   0.619179 0.527022 0.974447 0.006157
C12   C     C_R   0.498378 0.500187 0.407488 0.824045
C13   C     C_R   0.506671 0.511475 0.949301 0.065137
C14   C     C_R   0.285163 0.458639 0.949781 -0.112049
C15   C     C_R   0.287892 0.446350 0.900012 -0.107609
C16   C     C_R   0.397911 0.473139 0.873774 -0.027283
C17   C     C_R   0.509171 0.502599 0.898249 -0.041498
C18   C     C_R   0.622079 0.522367 0.871733 -0.096961
C19   C     C_R   0.615895 0.526411 0.820747 0.520997
C20   C     C_R   0.399299 0.468805 0.823434 0.554821
C21   C     C_R   0.507037 0.626457 0.721397 -0.089269
C22   C     C_R   0.505023 0.627281 0.671206 -0.188657
C23   C     C_R   0.739649 0.499865 0.502207 0.781939
C24   C     C_R   0.496663 0.370939 0.671098 -0.226512
C25   C     C_R   0.498424 0.370476 0.721282 -0.108711
C26   C     C_R   0.503977 0.498113 0.746550 0.358792
C27   C     C_R   0.386916 0.528438 0.025339 0.028344
C28   C     C_R   0.500441 0.521707 0.050781 0.052291
C29   C     C_R   0.616926 0.518304 0.025565 0.061209
C30   C     C_R   0.274400 0.558432 0.051816 -0.032108
C31   C     C_R   0.722915 0.495946 0.102416 -0.140051
C32   C     C_R   0.730781 0.546221 0.947674 -0.183180
C33   C     C_R   0.734622 0.541512 0.897263 -0.001738
C34   C     C_R   0.499658 0.499876 0.592533 0.804841
C35   C     C_R   0.727086 0.503253 0.052450 -0.200901
C36   C     C_3   0.072866 0.523733 0.450628 -0.164197
C37   C     C_3   0.070063 0.623709 0.535137 -0.148223
C38   C     C_3   0.928768 0.514526 0.451038 -0.412172
C39   C     C_3   0.925635 0.624868 0.534122 -0.433212
C40   C     C_3   0.070695 0.357297 0.522945 -0.410570
C41   C     C_3   0.121831 0.500153 0.502790 -0.000552
C42   C     C_3   0.877621 0.500014 0.503289 0.124409
C43   C     C_3   0.927740 0.360940 0.525766 -0.382483
C44   C     C_3   0.583133 0.082991 0.538475 -0.166263
C45   C     C_3   0.581944 0.916288 0.538880 -0.166976
C46   C     C_3   0.373945 0.083879 0.511717 -0.239756
C47   C     C_3   0.373764 0.916625 0.511331 -0.230610
C48   C     C_3   0.539725 0.083815 0.453015 -0.011503
C49   C     C_3   0.540991 0.915909 0.453197 -0.017145
C50   C     C_R   0.382378 0.521572 0.177857 0.552155
C51   C     C_R   0.603900 0.497870 0.178002 0.532781
C52   C     C_R   0.489437 0.631634 0.279071 -0.098111
C53   C     C_R   0.491513 0.630208 0.329218 -0.196083
C54   C     C_R   0.491247 0.373773 0.328471 -0.185240
Cu1   Cu    Cu3+1 0.499860 0.642410 0.500020 0.939328
Cu2   Cu    Cu3+1 0.499860 0.357590 0.500020 0.922419
H1    H     H_    0.488788 0.731554 0.259994 0.133216
H2    H     H_    0.809833 0.483552 0.121316 0.186708
H3    H     H_    0.817739 0.565149 0.965438 0.177054
H4    H     H_    0.492668 0.270782 0.652378 0.149843
H5    H     H_    0.496000 0.270964 0.740598 0.141241
H6    H     H_    0.818162 0.491514 0.035873 0.134493
H7    H     H_    0.099445 0.632696 0.439045 0.168951
H8    H     H_    0.102965 0.726031 0.519538 0.163011
H9    H     H_    0.890137 0.611269 0.433922 0.193407
H10   H     H_    0.894394 0.727236 0.518708 0.220250
H11   H     H_    0.896077 0.422935 0.429487 0.175355
H12   H     H_    0.883898 0.618270 0.571084 0.148625
H13   H     H_    0.100924 0.267741 0.499629 0.174245
H14   H     H_    0.108551 0.334714 0.559164 0.161191
H15   H     H_    0.892192 0.267043 0.506736 0.238295
H16   H     H_    0.895753 0.352438 0.564011 0.156471
H17   H     H_    0.552670 0.120961 0.574668 0.127715
H18   H     H_    0.548839 0.880325 0.575015 0.130244
H19   H     H_    0.679991 0.121654 0.533820 0.190998
H20   H     H_    0.678338 0.874979 0.535417 0.190985
H21   H     H_    0.338986 0.122720 0.547283 0.160249
H22   H     H_    0.337781 0.876707 0.546592 0.201242
H23   H     H_    0.467243 0.114915 0.426690 0.055378
H24   H     H_    0.470191 0.883691 0.426459 0.055875
H25   H     H_    0.306414 0.121989 0.484650 0.151429
H26   H     H_    0.306965 0.879933 0.483852 0.151282
H27   H     H_    0.186329 0.568339 0.121709 0.183316
H28   H     H_    0.510945 0.725475 0.740814 0.144535
H29   H     H_    0.202885 0.416370 0.882173 0.195641
H30   H     H_    0.199444 0.430007 0.968332 0.146415
H31   H     H_    0.491066 0.730171 0.348083 0.128759
N1    N     N_R   0.491702 0.506643 0.201962 -0.474198
N2    N     N_R   0.506542 0.497338 0.798155 -0.461309
N3    N     N_3   0.500250 0.143650 0.501060 -0.143353
N4    N     N_3   0.500250 0.856350 0.501060 -0.148013
O1    O     O_R   0.317570 0.620260 0.500030 -0.583224
O2    O     O_R   0.317570 0.379740 0.500030 -0.600288
O3    O     O_R   0.499900 0.620250 0.430280 -0.609589
O4    O     O_R   0.499900 0.379750 0.430280 -0.606446
O5    O     O_R   0.682190 0.620260 0.500010 -0.572364
O6    O     O_R   0.682190 0.379740 0.500010 -0.573742
O7    O     O_R   0.499860 0.620280 0.569750 -0.581689
O8    O     O_R   0.499860 0.379720 0.569750 -0.602619
O9    O     O_2   0.273452 0.530969 0.202771 -0.512239
O10   O     O_2   0.293628 0.439127 0.799763 -0.525705
O11   O     O_2   0.710072 0.484157 0.203012 -0.527860
O12   O     O_2   0.716495 0.562185 0.793663 -0.555129
H32   H     H_    0.490169 0.272794 0.346797 0.127270
C55   C     C_2   0.859990 0.545534 0.873518 0.437688
H33   H     H_    0.880429 0.481858 0.841955 0.125927
O13   O     O_2   0.943742 0.616836 0.890128 -0.516274
C56   C     C_2   0.128509 0.421924 0.414104 0.373641
H34   H     H_    0.111057 0.309330 0.417135 0.085396
O14   O     O_2   0.192610 0.465704 0.380543 -0.535997
C57   C     C_2   0.115357 0.615900 0.586395 0.356335
H35   H     H_    0.086024 0.530069 0.609907 0.091117
O15   O     O_2   0.184112 0.707008 0.602026 -0.556099
H36   H     H_    0.488782 0.276908 0.258534 0.133269
C58   C     C_2   0.658326 0.149210 0.432062 0.444889
H37   H     H_    0.656419 0.200202 0.397107 0.031192
O16   O     O_2   0.758083 0.139862 0.452143 -0.558834
C59   C     C_2   0.661543 0.851023 0.433489 0.453447
H38   H     H_    0.662175 0.800049 0.398547 0.027086
O17   O     O_2   0.759779 0.859865 0.454746 -0.553200
H39   H     H_    0.507635 0.727871 0.652565 0.152819
C60   C     C_2   0.160755 0.619623 0.030113 0.354648
H40   H     H_    0.070126 0.602653 0.047211 0.058783
O18   O     O_2   0.167860 0.696273 0.994751 -0.490500

loop_
_geom_bond_atom_site_label_1
_geom_bond_atom_site_label_2
_ccdc_geom_bond_type
C10   C27   A    
Cu2   O4    S    
Cu1   Cu2   S    
C43   H16   S    
C36   C56   S    
C11   C13   A    
C39   H12   S    
C57   H35   S    
C21   C26   A    
C23   O5    A    
C26   N2    S    
C55   O13   D    
C23   C42   S    
C40   H14   S    
C45   H20   S    
C48   H23   S    
C54   H32   S    
C28   C29   A    
C38   C42   S    
C4    C7    A    
C5    C6    A    
C9    C22   A    
C58   H37   S    
C56   H34   S    
C18   C19   A    
C47   H26   S    
C59   H38   S    
Cu1   N4    S    
C19   O12   S    
C40   C43   S    
C30   C60   S    
C16   C17   A    
C58   O16   D    
C21   H28   S    
C12   O4    A    
C36   H7    S    
C16   C20   A    
C15   H29   S    
Cu2   N3    S    
C48   N3    S    
C21   C22   A    
C27   C30   A    
C12   O3    A    
C36   C41   S    
Cu2   O6    S    
C49   N4    S    
Cu1   O3    S    
C4    C28   A    
C17   C18   A    
C39   C42   S    
Cu2   O2    S    
Cu2   O8    S    
C7    C31   A    
C40   H13   S    
C33   C55   S    
C24   C25   A    
C14   H30   S    
C57   O15   D    
C2    C54   A    
C8    C54   A    
C4    C5    A    
C20   O10   S    
C25   C26   A    
C45   H18   S    
C51   O11   S    
C8    C53   A    
C44   H19   S    
Cu1   O1    S    
C19   N2    A    
C46   H25   S    
C49   C59   S    
C38   H9    S    
C8    C12   S    
C34   O8    A    
C53   H31   S    
C25   H5    S    
C52   C53   A    
C48   C58   S    
C1    C41   S    
C48   C49   S    
C6    C30   A    
C11   C32   A    
C1    O1    A    
C10   C14   A    
C9    C34   S    
C39   H10   S    
C31   C35   A    
C5    C50   A    
C42   C43   S    
C60   O18   D    
C37   H8    S    
C44   N3    S    
C44   C45   S    
C31   H2    S    
C22   H39   S    
C20   N2    A    
C46   C47   S    
C40   C41   S    
C43   H15   S    
C6    H27   S    
C23   O6    A    
C3    N1    S    
C47   N4    S    
Cu1   O5    S    
C10   C13   A    
C51   N1    A    
C46   H21   S    
C3    C52   A    
C9    C24   A    
C46   N3    S    
C50   N1    A    
C55   H33   S    
C29   C35   A    
C50   O9    S    
C32   H3    S    
C49   H24   S    
C13   C17   A    
C32   C33   A    
C36   C38   S    
C2    C3    A    
C7    C51   A    
C37   C39   S    
C2    H36   S    
Cu1   O7    S    
C34   O7    A    
C56   O14   D    
C35   H6    S    
C37   C41   S    
C44   H17   S    
C45   N4    S    
C18   C33   A    
C59   O17   D    
C37   C57   S    
C52   H1    S    
C38   H11   S    
C11   C29   A    
C1    O2    A    
C27   C28   A    
C14   C15   A    
C24   H4    S    
C47   H22   S    
C60   H40   S    
C15   C16   A    
