data_mof_unit_57239.cif
_audit_creation_date              2012-12-10T17:19:52-0500
_audit_creation_method            fapswitch 2.2
_symmetry_space_group_name_H-M    P1
_symmetry_Int_Tables_number       1
_space_group_crystal_system       triclinic
_cell_length_a                    9.607745
_cell_length_b                    10.773323
_cell_length_c                    15.456937
_cell_angle_alpha                 87.320228
_cell_angle_beta                  74.166247
_cell_angle_gamma                 90.2387
_cell_volume                      1537.28025995

loop_
_atom_site_label
_atom_site_type_symbol
_atom_type_description
_atom_site_fract_x
_atom_site_fract_y
_atom_site_fract_z
_atom_type_partial_charge
C1    C     C_R   0.998298 0.262598 0.503460 0.796672
C2    C     C_R   0.685883 0.518416 0.911770 0.085445
C3    C     C_R   0.786239 0.481409 0.959122 0.133113
C4    C     C_R   0.541325 0.544996 0.960084 0.042266
C5    C     C_R   0.491007 0.514984 0.055111 0.020890
C6    C     C_R   0.598345 0.480318 0.101417 0.077171
C7    C     C_R   0.742546 0.465815 0.051984 -0.268675
C8    C     C_R   0.447466 0.604635 0.915619 -0.219767
C9    C     C_R   0.305283 0.627486 0.959817 -0.241197
C10   C     C_R   0.248824 0.588249 0.049274 0.173090
C11   C     C_R   0.338092 0.526716 0.097197 0.087727
C12   C     C_R   0.918431 0.499462 0.672135 0.783447
C13   C     C_R   0.102559 0.610668 0.091356 -0.215775
C14   C     C_R   0.043844 0.577126 0.181954 -0.217095
C15   C     C_R   0.267709 0.477417 0.184042 -0.269561
C16   C     C_R   0.087342 0.120235 0.644851 -0.186679
C17   C     C_R   0.133258 0.051145 0.710144 -0.143621
C18   C     C_R   0.134133 0.922086 0.709828 -0.131882
C19   C     C_R   0.089207 0.861321 0.644170 -0.173111
C20   C     C_R   0.044984 0.929497 0.576052 0.097357
C21   C     C_R   0.044106 0.060786 0.576398 0.101282
C22   C     C_R   0.994953 0.128383 0.509997 -0.103947
C23   C     C_R   0.998968 0.737063 0.502930 0.767276
C24   C     C_R   0.941311 0.067410 0.447867 -0.209293
C25   C     C_R   0.942146 0.939445 0.447509 -0.203334
C26   C     C_R   0.996476 0.870467 0.509341 -0.090735
C27   C     C_R   0.697400 0.666562 0.381330 -0.139583
C28   C     C_R   0.651097 0.750463 0.324638 -0.230353
C29   C     C_R   0.507173 0.752723 0.325856 -0.211176
C30   C     C_R   0.408886 0.670460 0.383300 -0.129186
C31   C     C_R   0.450980 0.583871 0.442893 0.198144
C32   C     C_R   0.600655 0.582876 0.442332 0.150628
C33   C     C_R   0.548847 0.420932 0.555735 0.335457
C34   C     C_R   0.081823 0.499572 0.327912 0.779824
C35   C     C_R   0.400983 0.420580 0.554442 -0.122495
C36   C     C_R   0.875702 0.498026 0.770899 -0.051346
C37   C     C_R   0.128164 0.513266 0.229350 -0.046316
C38   C     C_R   0.930906 0.459895 0.913071 -0.198004
C39   C     C_R   0.975578 0.468837 0.819534 -0.206126
C40   C     C_R   0.732809 0.523565 0.816894 -0.241899
Cu1   Cu    Cu3+1 0.140660 0.499990 0.500010 0.910388
Cu2   Cu    Cu3+1 0.859340 0.500010 0.499990 0.942892
H1    H     H_    0.822897 0.440175 0.086954 0.151375
H2    H     H_    0.035206 0.658640 0.055007 0.140145
H3    H     H_    0.901913 0.119429 0.397860 0.149818
H4    H     H_    0.083339 0.219916 0.650053 0.138363
H5    H     H_    0.166238 0.097929 0.762007 0.129289
H6    H     H_    0.167777 0.868671 0.761473 0.130957
H7    H     H_    0.086996 0.760945 0.648794 0.155189
H8    H     H_    0.903257 0.894005 0.397258 0.139576
H9    H     H_    0.810357 0.670710 0.373941 0.191503
H10   H     H_    0.727992 0.813450 0.278842 0.144372
H11   H     H_    0.316700 0.409254 0.218308 0.166597
H12   H     H_    0.471495 0.817348 0.280855 0.152421
H13   H     H_    0.302343 0.677381 0.376322 0.199135
H14   H     H_    0.324702 0.354970 0.597744 0.150333
H15   H     H_    0.934482 0.603731 0.215150 0.143167
H16   H     H_    0.238287 0.675235 0.923060 0.141356
H17   H     H_    0.009088 0.433992 0.949439 0.142591
H18   H     H_    0.087075 0.449376 0.785403 0.151161
H19   H     H_    0.659049 0.542990 0.776917 0.153539
H20   H     H_    0.482890 0.640736 0.846801 0.142864
N1    N     N_R   0.648320 0.501210 0.499140 -0.222001
N2    N     N_R   0.352470 0.501290 0.499110 -0.219731
O1    O     O_R   0.118810 0.319640 0.500010 -0.585741
O2    O     O_R   0.881240 0.319660 0.500000 -0.566375
O3    O     O_R   0.055570 0.499980 0.629840 -0.596431
O4    O     O_R   0.818000 0.500010 0.629830 -0.540171
O5    O     O_R   0.118760 0.680340 0.500000 -0.598549
O6    O     O_R   0.881190 0.680360 0.499990 -0.588006
O7    O     O_R   0.182000 0.499990 0.370170 -0.600869
O8    O     O_R   0.944430 0.500020 0.370160 -0.601714
N3    N     N_2   0.595739 0.334282 0.613546 -0.370088
H21   H     H_    0.614842 0.247710 0.587408 0.250210
C41   C     C_3   0.513105 0.328442 0.707283 -0.716333
H22   H     H_    0.578752 0.283540 0.748562 0.241016
H23   H     H_    0.412230 0.272427 0.716800 0.199720
H24   H     H_    0.485139 0.423168 0.731256 0.228129
C42   C     C_3   0.576227 0.464619 0.202446 -0.391393
C43   C     C_3   0.572594 0.325439 0.231325 -0.367266
C44   C     C_3   0.528536 0.303829 0.333223 -0.821736
H25   H     H_    0.607442 0.350226 0.362245 0.253859
H26   H     H_    0.418446 0.339733 0.362236 0.281212
H27   H     H_    0.527334 0.202671 0.350897 0.237685
H28   H     H_    0.496576 0.272986 0.203216 0.217213
H29   H     H_    0.681781 0.286132 0.204187 0.219256
H30   H     H_    0.668613 0.509336 0.220353 0.199036
H31   H     H_    0.483481 0.516657 0.241418 0.213402

loop_
_geom_bond_atom_site_label_1
_geom_bond_atom_site_label_2
_ccdc_geom_bond_type
C16   C21   A    
C34   C37   S    
Cu1   Cu2   S    
C23   O5    A    
C19   C20   A    
C4    C8    A    
C42   H30   S    
C44   H25   S    
Cu1   O3    S    
C12   O4    A    
C29   C30   A    
C24   H3    S    
C15   H11   S    
C28   C29   A    
C5    C11   A    
C3    C7    A    
C5    C6    A    
C16   C17   A    
C29   H12   S    
Cu2   O6    S    
C9    H16   S    
N3    H21   S    
C23   C26   S    
C25   H8    S    
C15   C37   A    
C43   H29   S    
C11   C15   A    
C3    C38   A    
C8    C9    A    
C1    O1    A    
C35   N2    A    
C7    H1    S    
C12   C36   S    
C9    C10   A    
Cu1   O7    S    
C27   C32   A    
C1    C22   S    
C21   C22   A    
Cu2   O4    S    
N3    C41   S    
C23   O6    A    
C42   H31   S    
C44   H26   S    
C27   H9    S    
C1    O2    A    
C38   C39   A    
C12   O3    A    
C36   C40   A    
C24   C25   A    
C16   H4    S    
C18   C19   A    
Cu1   O1    S    
C25   C26   A    
C40   H19   S    
C38   H17   S    
C2    C4    A    
C41   H22   S    
C43   H28   S    
C19   H7    S    
C31   C32   A    
C33   N1    A    
Cu2   O8    S    
C17   C18   A    
C41   H23   S    
C33   N3    S    
C22   C24   A    
C34   O8    A    
C44   H27   S    
Cu1   O5    S    
C14   H15   S    
C35   H14   S    
C31   N2    A    
C36   C39   A    
C17   H5    S    
C32   N1    A    
C43   C44   S    
C10   C13   A    
C18   H6    S    
C6    C7    A    
C30   H13   S    
C2    C3    A    
C14   C37   A    
C28   H10   S    
C6    C42   S    
C30   C31   A    
C20   C26   A    
C39   H18   S    
C34   O7    A    
C33   C35   A    
C41   H24   S    
C10   C11   A    
C42   C43   S    
C2    C40   A    
C4    C5    A    
C20   C21   A    
C27   C28   A    
Cu2   O2    S    
Cu1   N2    S    
C13   C14   A    
Cu2   N1    S    
C13   H2    S    
C8    H20   S    
