data_mof_unit_23074.cif
_audit_creation_date              2012-12-11T16:18:09-0500
_audit_creation_method            fapswitch 2.2
_symmetry_space_group_name_H-M    P1
_symmetry_Int_Tables_number       1
_space_group_crystal_system       triclinic
_cell_length_a                    14.043393
_cell_length_b                    14.050225
_cell_length_c                    30.07803
_cell_angle_alpha                 97.050284
_cell_angle_beta                  96.887204
_cell_angle_gamma                 61.258685
_cell_volume                      5151.60783975

loop_
_atom_site_label
_atom_site_type_symbol
_atom_type_description
_atom_site_fract_x
_atom_site_fract_y
_atom_site_fract_z
_atom_type_partial_charge
C1    C     C_R   0.386126 0.710482 0.442168 0.542331
C2    C     C_R   0.789342 0.268877 0.375172 0.224525
C3    C     C_R   0.800934 0.256012 0.328877 -0.155072
C4    C     C_R   0.398946 0.381092 0.426451 0.551787
C5    C     C_R   0.787098 0.342836 0.305956 -0.002220
C6    C     C_R   0.771091 0.441044 0.329392 0.272697
C7    C     C_R   0.755354 0.456097 0.375145 -0.155737
C8    C     C_R   0.782782 0.412069 0.150071 0.273372
C9    C     C_R   0.829920 0.399335 0.109276 0.258457
C10   C     C_R   0.899222 0.203109 0.107685 -0.190219
C11   C     C_R   0.861415 0.215288 0.149595 -0.190339
C12   C     C_R   0.414711 0.276480 0.221408 -0.111650
C13   C     C_R   0.807205 0.318433 0.171485 -0.011814
C14   C     C_1   0.794357 0.324917 0.218370 0.069520
C15   C     C_1   0.790033 0.331319 0.258226 0.062611
C16   C     C_R   0.709917 0.405561 0.442143 0.573954
C17   C     C_R   0.888570 0.293575 0.087904 -0.014188
C18   C     C_R   0.367631 0.766330 0.401198 -0.029809
C19   C     C_R   0.458735 0.754620 0.381318 -0.183814
C20   C     C_R   0.449408 0.780383 0.337417 -0.165611
C21   C     C_R   0.349272 0.817905 0.312753 -0.005135
C22   C     C_R   0.255546 0.837238 0.332776 0.301543
C23   C     C_R   0.425037 0.280620 0.268210 -0.106785
C24   C     C_R   0.263761 0.816034 0.377932 0.266146
C25   C     C_R   0.256201 0.830977 0.151763 -0.153708
C26   C     C_R   0.236639 0.858521 0.107494 -0.134672
C27   C     C_R   0.386358 0.901306 0.117501 -0.083211
C28   C     C_R   0.389302 0.711818 0.568133 0.543043
C29   C     C_R   0.404033 0.877089 0.162462 0.317268
C30   C     C_R   0.337198 0.843544 0.179501 0.050136
C31   C     C_1   0.343088 0.833545 0.226432 0.021109
C32   C     C_1   0.345687 0.827594 0.265911 0.023706
C33   C     C_R   0.298625 0.898293 0.090603 -0.021017
C34   C     C_R   0.333477 0.344331 0.292820 0.036673
C35   C     C_R   0.366946 0.363422 0.593532 -0.059573
C36   C     C_R   0.447202 0.284163 0.620530 -0.122107
C37   C     C_R   0.431452 0.281021 0.665071 0.266811
C38   C     C_R   0.338109 0.364563 0.684126 0.037207
C39   C     C_R   0.252719 0.442278 0.657313 0.202444
C40   C     C_R   0.401649 0.382771 0.552351 0.588135
C41   C     C_R   0.263666 0.434302 0.610350 0.147130
C42   C     C_R   0.238188 0.430154 0.841308 -0.084751
C43   C     C_R   0.226833 0.411830 0.884633 0.207623
C44   C     C_R   0.401198 0.245325 0.881361 0.272806
C45   C     C_R   0.312885 0.336528 0.199044 0.037871
C46   C     C_R   0.410872 0.266518 0.838478 -0.041784
C47   C     C_R   0.327099 0.355145 0.817715 -0.052575
C48   C     C_1   0.329259 0.363941 0.771080 0.103938
C49   C     C_1   0.331738 0.366338 0.731522 0.192193
C50   C     C_R   0.303335 0.311762 0.903168 0.004677
C51   C     C_1   0.760681 0.377139 0.612670 0.068686
C52   C     C_R   0.713176 0.407645 0.568470 0.572270
C53   C     C_R   0.722434 0.384699 0.727460 0.280802
C54   C     C_R   0.745813 0.366707 0.773269 -0.080770
C55   C     C_R   0.937263 0.254468 0.760957 -0.093973
C56   C     C_1   0.301076 0.323181 0.151042 -0.061561
C57   C     C_R   0.915130 0.271846 0.715296 -0.130448
C58   C     C_R   0.808390 0.337543 0.698357 0.032383
C59   C     C_R   0.852786 0.302398 0.790012 -0.003945
C60   C     C_1   0.877876 0.291269 0.837444 -0.021367
C61   C     C_1   0.787634 0.356764 0.651350 0.041349
C62   C     C_1   0.906100 0.281963 0.876775 0.023726
C63   C     C_1   0.373391 0.760298 0.613120 0.026544
C64   C     C_1   0.366341 0.363877 0.380683 0.011344
C65   C     C_R   0.324931 0.747576 0.723005 -0.044563
C66   C     C_R   0.315339 0.767277 0.769273 -0.146719
C67   C     C_1   0.347332 0.353646 0.340867 -0.046370
C68   C     C_R   0.346795 0.923140 0.768779 0.261553
C69   C     C_R   0.357323 0.901954 0.722313 -0.093521
C70   C     C_R   0.346522 0.814403 0.699535 0.010656
C71   C     C_R   0.326874 0.854228 0.792436 0.015024
C72   C     C_1   0.311224 0.876242 0.839786 0.027260
C73   C     C_1   0.360602 0.789700 0.652249 -0.000905
C74   C     C_1   0.292796 0.903625 0.878669 0.056439
C75   C     C_R   0.950179 0.273354 0.048172 0.556676
C76   C     C_R   0.231534 0.404873 0.270527 -0.109797
C77   C     C_R   0.275136 0.270173 0.065464 0.540369
C78   C     C_1   0.290463 0.304086 0.111247 -0.012460
C79   C     C_R   0.260766 0.953892 0.048775 0.543372
C80   C     C_R   0.952511 0.269030 0.922062 0.551429
C81   C     C_R   0.277950 0.268349 0.940439 0.588575
C82   C     C_R   0.261650 0.950691 0.922925 0.562018
C83   C     C_R   0.221147 0.400506 0.223599 -0.109846
C84   C     C_3   0.135250 0.793453 0.290462 -0.086086
C85   C     C_3   0.136425 0.931919 0.425312 -0.009487
C86   C     C_3   0.453438 0.996802 0.202111 -0.114840
C87   C     C_3   0.560466 0.180744 0.923837 -0.094334
C88   C     C_3   0.536117 0.100015 0.676196 -0.106363
C89   C     C_R   0.758817 0.372931 0.398230 -0.028116
C90   C     C_3   0.894759 0.520588 0.110679 -0.045811
C91   C     C_3   0.851749 0.540242 0.316237 -0.078676
Cr1   Cr    Cr6+3 0.581000 0.584320 0.508140 1.066413
Cr2   Cr    Cr6+3 0.339110 0.576430 0.496080 1.124299
Cr3   Cr    Cr6+3 0.579910 0.339270 0.495810 1.138257
Cr4   Cr    Cr6+3 0.082090 0.079210 0.982490 1.037348
Cr5   Cr    Cr6+3 0.082460 0.324610 0.994920 1.133039
Cr6   Cr    Cr6+3 0.323630 0.087860 0.996130 1.075679
H1    H     H_    0.160554 0.455429 0.289340 0.106840
H2    H     H_    0.521673 0.765432 0.321920 0.173233
H3    H     H_    0.176181 0.501706 0.825387 0.195519
H4    H     H_    0.526101 0.228612 0.608139 0.167401
H5    H     H_    0.481980 0.210314 0.820616 0.166497
H6    H     H_    0.485726 0.225439 0.202669 0.114161
H7    H     H_    0.681375 0.404351 0.796157 0.133744
H8    H     H_    0.020560 0.205153 0.773755 0.171939
H9    H     H_    0.981484 0.235161 0.693292 0.144853
H10   H     H_    0.316365 0.679585 0.705536 0.205017
H11   H     H_    0.298375 0.714963 0.786954 0.155657
H12   H     H_    0.879344 0.143328 0.165958 0.133531
H13   H     H_    0.373809 0.953272 0.703814 0.139363
H14   H     H_    0.504458 0.234602 0.285224 0.124699
H15   H     H_    0.732903 0.536255 0.391653 0.151473
H16   H     H_    0.129718 0.748697 0.317271 0.163593
H17   H     H_    0.198474 0.736255 0.267407 0.099656
H18   H     H_    0.055803 0.827629 0.270511 0.138957
H19   H     H_    0.113764 0.002728 0.405543 0.170967
H20   H     H_    0.199171 0.926219 0.452774 0.085829
H21   H     H_    0.062921 0.946572 0.441304 0.217976
H22   H     H_    0.375663 0.036486 0.219037 0.117385
H23   H     H_    0.944350 0.121316 0.092397 0.155491
H24   H     H_    0.445703 0.041317 0.172622 0.110662
H25   H     H_    0.516562 0.003050 0.226387 0.153563
H26   H     H_    0.019898 0.692144 0.909843 0.374276
H27   H     H_    0.106668 0.639085 0.748785 0.373950
H28   H     H_    0.182212 0.637687 0.586105 0.348815
H29   H     H_    0.522878 0.244068 0.951633 0.114888
H30   H     H_    0.598350 0.208461 0.901400 0.106201
H31   H     H_    0.626389 0.107244 0.939139 0.158386
H32   H     H_    0.580068 0.073999 0.644984 0.130269
H33   H     H_    0.460469 0.091708 0.670691 0.124297
H34   H     H_    0.818545 0.178877 0.310336 0.141399
H35   H     H_    0.590237 0.043540 0.701802 0.155888
H36   H     H_    0.502540 0.544895 0.768920 0.337622
H37   H     H_    0.461975 0.063556 0.758135 0.341880
H38   H     H_    0.977726 0.450191 0.115488 0.094319
H39   H     H_    0.868583 0.566785 0.143429 0.170754
H40   H     H_    0.900967 0.575377 0.088923 0.153396
H41   H     H_    0.558909 0.610171 0.216300 0.378093
H42   H     H_    0.926136 0.465123 0.305800 0.116666
H43   H     H_    0.861579 0.564435 0.352429 0.111684
H44   H     H_    0.842797 0.606700 0.296871 0.176991
H45   H     H_    0.169016 0.854736 0.087399 0.150623
H46   H     H_    0.847215 0.019960 0.350904 0.348291
H47   H     H_    0.204275 0.805542 0.165057 0.122658
H48   H     H_    0.539113 0.718453 0.398524 0.160069
H49   H     H_    0.436563 0.929614 0.104789 0.145705
H50   H     H_    0.141719 0.445867 0.206492 0.105136
O1    O     O_R   0.688580 0.499770 0.460490 -0.526440
O2    O     O_R   0.346150 0.177650 0.050510 -0.519100
O3    O     O_R   0.314200 0.996600 0.036060 -0.507335
O4    O     O_R   0.480400 0.672610 0.462660 -0.519000
O5    O     O_R   0.168690 0.969990 0.933130 -0.501514
O6    O     O_R   0.991920 0.175870 0.937430 -0.502443
O7    O     O_R   0.974010 0.342590 0.941330 -0.447771
O8    O     O_R   0.182630 0.317940 0.955040 -0.431160
O9    O     O_R   0.347320 0.174720 0.953250 -0.453109
O10   O     O_R   0.315290 0.993890 0.945900 -0.466327
O11   O     O_3   0.162730 0.163890 0.991180 -0.276288
O12   O     O_R   0.348600 0.476260 0.536540 -0.450566
O13   O     O_R   0.315310 0.685650 0.451800 -0.457917
O14   O     O_R   0.346220 0.474990 0.446280 -0.484125
O15   O     O_R   0.492270 0.312460 0.441630 -0.468052
O16   O     O_R   0.669740 0.350480 0.455640 -0.423931
O17   O     O_R   0.691150 0.501150 0.557860 -0.475907
O18   O     O_R   0.482790 0.673890 0.552920 -0.484239
O19   O     O_R   0.317880 0.687030 0.549170 -0.508558
O20   O     O_3   0.155372 0.880007 0.308714 -0.536495
O21   O     O_3   0.171338 0.834691 0.397332 -0.530890
O22   O     O_3   0.486564 0.885708 0.189777 -0.526017
O23   O     O_R   0.494840 0.313840 0.539010 -0.517142
O24   O     O_2   0.021975 0.497063 0.907761 -0.243790
O25   O     O_2   0.151861 0.525405 0.962876 -0.287087
O26   O     O_3   0.081965 0.637535 0.892718 -0.530441
O27   O     O_2   0.080312 0.647390 0.656542 -0.217565
O28   O     O_2   0.059031 0.507841 0.689260 -0.240179
O29   O     O_3   0.175469 0.589565 0.734531 -0.567846
O30   O     O_2   0.168494 0.437755 0.526798 -0.269881
O31   O     O_2   0.048764 0.507455 0.588356 -0.170978
O32   O     O_3   0.126575 0.627627 0.565596 -0.438398
O33   O     O_3   0.483992 0.152882 0.899550 -0.489804
O34   O     O_R   0.672120 0.351750 0.545910 -0.485616
O35   O     O_3   0.514182 0.206752 0.692312 -0.535622
O36   O     O_2   0.575868 0.578793 0.699826 -0.294595
O37   O     O_2   0.557441 0.421768 0.664839 -0.275942
O38   O     O_3   0.499332 0.489045 0.746176 -0.526425
O39   O     O_2   0.253659 0.113102 0.817881 -0.275385
O40   O     O_2   0.449231 0.997397 0.832557 -0.244858
O41   O     O_3   0.382031 0.102690 0.760093 -0.546333
O42   O     O_3   0.817312 0.489279 0.089717 -0.505706
O43   O     O_2   0.760239 0.578486 0.209505 -0.302015
O44   O     O_2   0.643538 0.624942 0.139592 -0.217112
O45   O     O_3   0.500010 0.500010 0.500010 -0.287714
O46   O     O_3   0.596423 0.538505 0.199283 -0.511529
O47   O     O_3   0.758032 0.526692 0.306569 -0.524668
O48   O     O_2   0.867591 0.154335 0.448310 -0.270592
O49   O     O_2   0.708117 0.153350 0.405686 -0.270344
O50   O     O_3   0.896406 0.038494 0.372197 -0.515880
O51   O     O_R   0.167510 0.972920 0.030390 -0.513425
O52   O     O_R   0.990840 0.178580 0.027590 -0.516010
O53   O     O_R   0.972840 0.345510 0.038590 -0.477281
O54   O     O_R   0.181550 0.320660 0.045200 -0.496372
S1    S     S_3+6 0.118035 0.518291 0.913741 0.022668
S2    S     S_3+6 0.137058 0.549563 0.683647 0.043419
S3    S     S_3+6 0.148719 0.500979 0.571853 0.102094
S4    S     S_3+6 0.586365 0.470726 0.708120 0.001596
S5    S     S_3+6 0.357896 0.036237 0.796467 0.000948
S6    S     S_3+6 0.695150 0.543423 0.174590 0.043305
S7    S     S_3+6 0.814121 0.152970 0.402024 0.009953

loop_
_geom_bond_atom_site_label_1
_geom_bond_atom_site_label_2
_ccdc_geom_bond_type
Cr5   O11   S    
C8    C13   A    
O46   S6    S    
O31   S3    D    
C11   H12   S    
C86   O22   S    
C40   O12   A    
C19   C20   A    
C51   C61   T    
C88   H33   S    
C44   O33   S    
C87   H30   S    
C80   O6    A    
C39   C41   A    
C38   C49   S    
C77   C78   S    
C27   C33   A    
C46   H5    S    
C12   C23   A    
O41   S5    S    
C1    C18   S    
C19   H48   S    
C81   O9    A    
C55   H8    S    
C3    H34   S    
C22   C24   A    
C62   C80   S    
C36   C37   A    
C24   O21   S    
C74   C82   S    
C55   C59   A    
C69   C70   A    
C68   C71   A    
C30   C31   S    
Cr2   O45   S    
Cr5   O8    S    
Cr1   O1    S    
C10   C17   A    
C76   H1    S    
C65   C70   A    
C7    C89   A    
C56   C78   T    
C7    H15   S    
C60   C62   T    
C18   C19   A    
Cr6   O9    S    
Cr2   O12   S    
Cr4   O11   S    
C87   O33   S    
C43   S1    S    
Cr1   O18   S    
Cr5   O7    S    
O48   S7    D    
C35   C36   A    
C45   C56   S    
C8    C9    A    
C86   H25   S    
C47   C48   S    
C53   S4    S    
Cr6   O3    S    
C86   H22   S    
C83   H50   S    
Cr3   O34   S    
C13   C14   S    
C29   C30   A    
Cr3   O15   S    
H36   O38   S    
Cr1   O17   S    
C58   C61   S    
C57   H9    S    
C59   C60   S    
C79   O51   A    
C21   C22   A    
O29   S2    S    
C39   S2    S    
C45   C83   A    
C88   H32   S    
C86   H24   S    
C9    O42   S    
C76   C83   A    
C40   O23   A    
C87   H31   S    
H26   O26   S    
C44   C46   A    
C54   C59   A    
C1    O13   A    
C16   O16   A    
C38   C39   A    
H46   O50   S    
C21   C32   S    
O39   S5    D    
C51   C52   S    
C64   C67   T    
O38   S4    S    
Cr5   O54   S    
C52   O34   A    
C12   H6    S    
C72   C74   T    
C77   O2    A    
C82   O10   A    
C68   C69   A    
C63   C73   T    
C25   C26   A    
C53   C54   A    
C70   C73   S    
C75   O53   A    
O37   S4    D    
O26   S1    S    
Cr4   O6    S    
Cr6   O10   S    
O49   S7    D    
C2    C89   A    
O25   S1    D    
Cr2   O13   S    
C66   C71   A    
H28   O32   S    
C37   C38   A    
C42   H3    S    
C90   H39   S    
C69   H13   S    
C26   C33   A    
C88   O35   S    
C31   C32   T    
Cr2   O14   S    
C8    S6    S    
Cr1   O4    S    
O30   S3    D    
O44   S6    D    
C20   C21   A    
C41   S3    S    
C85   H20   S    
C91   O47   S    
C28   O18   A    
C52   O17   A    
C79   O3    A    
C91   H42   S    
C22   O20   S    
C9    C17   A    
C48   C49   T    
Cr2   O19   S    
C84   H18   S    
C75   O52   A    
C55   C57   A    
C68   S5    S    
O36   S4    D    
C18   C24   A    
C25   H47   S    
C2    S7    S    
C42   C43   A    
C88   H35   S    
C27   H49   S    
C6    O47   S    
C90   H40   S    
C17   C75   S    
H41   O46   S    
C44   C50   A    
C25   C30   A    
Cr5   O53   S    
C46   C47   A    
C23   C34   A    
C84   H17   S    
C14   C15   T    
C85   O21   S    
C85   H19   S    
C33   C79   S    
C66   H11   S    
C12   C45   A    
C3    C5    A    
H37   O41   S    
C77   O54   A    
C34   C67   S    
C53   C58   A    
C43   C50   A    
C80   O7    A    
C6    C7    A    
H27   O29   S    
C28   O19   A    
C23   H14   S    
C4    C64   S    
C81   O8    A    
C16   O1    A    
Cr6   O11   S    
O24   S1    D    
C35   C40   S    
O28   S2    D    
C71   C72   S    
C84   H16   S    
Cr3   O23   S    
C90   H38   S    
C11   C13   A    
C57   C58   A    
C5    C6    A    
C20   H2    S    
C27   C29   A    
Cr4   O51   S    
C37   O35   S    
O40   S5    D    
O27   S2    D    
C1    O4    A    
C4    O15   A    
C42   C47   A    
C54   H7    S    
C85   H21   S    
C35   C41   A    
Cr3   O45   S    
C5    C15   S    
C10   H23   S    
C10   C11   A    
C91   H43   S    
C28   C63   S    
O43   S6    D    
C16   C89   S    
O32   S3    S    
Cr4   O52   S    
C65   C66   A    
C84   O20   S    
Cr6   O2    S    
C4    O14   A    
C36   H4    S    
O50   S7    S    
C2    C3    A    
Cr4   O5    S    
C29   O22   S    
C26   H45   S    
Cr3   O16   S    
C65   H10   S    
C87   H29   S    
C82   O5    A    
Cr1   O45   S    
C50   C81   S    
C34   C76   A    
C91   H44   S    
C90   O42   S    
