data_mof_unit_23525.cif
_audit_creation_date              2012-12-10T20:03:12-0500
_audit_creation_method            fapswitch 2.2
_symmetry_space_group_name_H-M    P1
_symmetry_Int_Tables_number       1
_space_group_crystal_system       triclinic
_cell_length_a                    8.585734
_cell_length_b                    18.962623
_cell_length_c                    18.567705
_cell_angle_alpha                 91.967301
_cell_angle_beta                  99.205938
_cell_angle_gamma                 91.409336
_cell_volume                      2980.8886993

loop_
_atom_site_label
_atom_site_type_symbol
_atom_type_description
_atom_site_fract_x
_atom_site_fract_y
_atom_site_fract_z
_atom_type_partial_charge
C1    C     C_R   0.496955 0.365232 0.498868 0.851513
C2    C     C_R   0.422729 0.448327 0.262049 0.573017
C3    C     C_R   0.569437 0.550141 0.812521 -0.312657
C4    C     C_R   0.428332 0.451060 0.187114 -0.311885
C5    C     C_R   0.490187 0.495708 0.841273 0.042486
C6    C     C_R   0.509686 0.505037 0.158775 0.042156
C7    C     C_R   0.417437 0.441954 0.792273 -0.258904
C8    C     C_R   0.584261 0.558110 0.208112 -0.259711
C9    C     C_R   0.422908 0.445383 0.716680 -0.063606
C10   C     C_R   0.578719 0.554333 0.283677 -0.063959
C11   C     C_R   0.514971 0.436054 0.962628 -0.169094
C12   C     C_R   0.497020 0.634701 0.500772 0.850784
C13   C     C_R   0.485566 0.564789 0.037530 -0.169232
C14   C     C_R   0.527306 0.439390 0.039122 -0.164492
C15   C     C_R   0.473108 0.561449 0.961027 -0.164804
C16   C     C_R   0.200902 0.500024 0.480785 0.977278
C17   C     C_R   0.799101 0.499979 0.519216 0.983312
C18   C     C_R   0.512124 0.503754 0.077846 0.140630
C19   C     C_R   0.488327 0.497081 0.922282 0.140830
C20   C     C_2   0.035434 0.499947 0.470547 -0.374467
C21   C     C_2   0.964585 0.500069 0.529457 -0.381619
C22   C     C_R   0.529435 0.751811 0.450865 -0.202115
C23   C     C_R   0.351888 0.964766 0.549622 -0.165269
C24   C     C_R   0.346313 0.263835 0.533049 -0.199686
C25   C     C_R   0.487089 0.821755 0.444798 -0.158552
C26   C     C_R   0.303195 0.192707 0.526751 -0.176336
C27   C     C_R   0.379924 0.849600 0.487171 0.103387
C28   C     C_R   0.376234 0.147184 0.482466 0.101716
C29   C     C_R   0.316402 0.806833 0.535996 -0.179028
C30   C     C_R   0.492389 0.173469 0.444258 -0.147237
C31   C     C_R   0.359816 0.737025 0.542430 -0.109475
C32   C     C_R   0.535600 0.244797 0.450668 -0.113581
C33   C     C_R   0.466878 0.709503 0.500102 -0.017395
C34   C     C_R   0.324499 0.031192 0.416129 -0.173752
C35   C     C_R   0.462225 0.289995 0.494900 -0.026017
C36   C     C_R   0.350864 0.037810 0.548372 -0.177213
C37   C     C_R   0.324549 0.958006 0.417326 -0.185984
C38   C     C_R   0.343787 0.071288 0.481874 0.100329
C39   C     C_R   0.345243 0.924643 0.484326 0.103444
C40   C     C_R   0.575095 0.552534 0.737562 0.570841
H1    H     H_    0.972458 0.499742 0.414819 0.199707
H2    H     H_    0.450584 0.609621 0.931966 0.152801
H3    H     H_    0.610710 0.730676 0.417202 0.140921
H4    H     H_    0.287305 0.298700 0.566743 0.143018
H5    H     H_    0.540146 0.854367 0.407947 0.135385
H6    H     H_    0.213628 0.173093 0.556616 0.136755
H7    H     H_    0.232535 0.827280 0.568632 0.141261
H8    H     H_    0.552780 0.138495 0.411314 0.139821
H9    H     H_    0.305838 0.703941 0.578597 0.173457
H10   H     H_    0.627180 0.264514 0.422063 0.168087
H11   H     H_    0.369357 0.940076 0.601930 0.146100
H12   H     H_    0.027566 0.500276 0.585184 0.198960
H13   H     H_    0.316610 0.056573 0.364334 0.149146
H14   H     H_    0.367150 0.068125 0.599685 0.138765
H15   H     H_    0.316128 0.927612 0.366309 0.137496
H16   H     H_    0.628059 0.591453 0.849415 0.194426
H17   H     H_    0.368552 0.410219 0.149933 0.194468
H18   H     H_    0.814742 0.662238 0.632662 0.365642
H19   H     H_    0.185935 0.336919 0.366944 0.370142
H20   H     H_    0.354422 0.398331 0.811910 0.152737
H21   H     H_    0.648766 0.601415 0.188755 0.152934
H22   H     H_    0.363935 0.404211 0.679726 0.148857
H23   H     H_    0.639006 0.594986 0.320910 0.150382
H24   H     H_    0.530224 0.385965 0.935230 0.141165
H25   H     H_    0.470281 0.614860 0.064960 0.140943
H26   H     H_    0.549519 0.391211 0.068214 0.153477
N1    N     N_R   0.500020 0.499980 0.689440 -0.147890
N2    N     N_R   0.499980 0.500020 0.310560 -0.147479
O1    O     O_R   0.500010 0.398180 0.560840 -0.647699
O2    O     O_2   0.775773 0.663432 0.777182 -0.312821
O3    O     O_3   0.784900 0.614830 0.647769 -0.540066
O4    O     O_2   0.218670 0.338829 0.222089 -0.314024
O5    O     O_2   0.451066 0.318771 0.311468 -0.326084
O6    O     O_3   0.216642 0.384678 0.353109 -0.538524
O7    O     O_R   0.499990 0.601820 0.439160 -0.646918
O8    O     O_R   0.499930 0.398180 0.439210 -0.536379
O9    O     O_R   0.500070 0.601820 0.560790 -0.541409
O10   O     O_R   0.271780 0.500000 0.546590 -0.635670
O11   O     O_R   0.728220 0.500000 0.453410 -0.631305
O12   O     O_R   0.271710 0.499990 0.424960 -0.562299
O13   O     O_R   0.728290 0.500010 0.575040 -0.561710
O14   O     O_2   0.547092 0.681549 0.685000 -0.322772
S1    S     S_3+6 0.671031 0.629860 0.711674 0.035562
S2    S     S_3+6 0.326587 0.370966 0.287394 0.035905
Zn1   Zn    Zn3+2 0.500050 0.500000 0.581210 1.007279
Zn2   Zn    Zn3+2 0.499950 0.500000 0.418790 1.011796

loop_
_geom_bond_atom_site_label_1
_geom_bond_atom_site_label_2
_ccdc_geom_bond_type
C25   H5    S    
C27   C29   A    
C34   C37   A    
N2    Zn2   S    
C14   C18   A    
C2    S2    S    
C10   H23   S    
C20   H1    S    
C13   H25   S    
C15   C19   A    
C11   C19   A    
C13   C18   A    
C29   H7    S    
C30   H8    S    
C24   C26   A    
C2    N2    A    
C11   C14   A    
H18   O3    S    
C17   O11   A    
O12   Zn2   S    
C27   C39   S    
C22   C25   A    
C4    H17   S    
C31   C33   A    
O5    S2    D    
C17   O13   A    
C8    H21   S    
O9    Zn1   S    
C40   S1    S    
C31   H9    S    
O3    S1    S    
C6    C18   S    
N1    Zn1   S    
C24   C35   A    
C9    H22   S    
C32   C35   A    
C4    C6    A    
C11   H24   S    
C5    C7    A    
C6    C8    A    
C40   N1    A    
C1    O1    A    
C16   O12   A    
C2    C4    A    
C9    N1    A    
C3    H16   S    
O7    Zn2   S    
C23   H11   S    
C22   H3    S    
C28   C38   S    
C16   C20   S    
C12   O9    A    
C14   H26   S    
O2    S1    D    
H19   O6    S    
C32   H10   S    
O4    S2    D    
O10   Zn1   S    
C8    C10   A    
C3    C40   A    
O14   S1    D    
C13   C15   A    
C24   H4    S    
O8    Zn2   S    
C7    H20   S    
O1    Zn1   S    
C1    C35   S    
C7    C9    A    
C22   C33   A    
C34   C38   A    
C1    O8    A    
C15   H2    S    
O6    S2    S    
C3    C5    A    
C5    C19   S    
C10   N2    A    
C25   C27   A    
C26   C28   A    
C28   C30   A    
C29   C31   A    
C30   C32   A    
C23   C39   A    
C36   C38   A    
C16   O10   A    
C21   H12   S    
C17   C21   S    
C36   H14   S    
C26   H6    S    
C37   H15   S    
C20   C21   D    
C34   H13   S    
C37   C39   A    
C23   C36   A    
C12   O7    A    
C12   C33   S    
O11   Zn2   S    
O13   Zn1   S    
