data_mof_unit_16430.cif
_audit_creation_date              2012-10-26T20:03:42-0400
_audit_creation_method            fapswitch 2.2
_symmetry_space_group_name_H-M    P1
_symmetry_Int_Tables_number       1
_space_group_crystal_system       triclinic
_cell_length_a                    12.444628
_cell_length_b                    13.087395
_cell_length_c                    15.805416
_cell_angle_alpha                 75.035251
_cell_angle_beta                  101.431984
_cell_angle_gamma                 117.064959
_cell_volume                      2204.78464505

loop_
_atom_site_label
_atom_site_type_symbol
_atom_type_description
_atom_site_fract_x
_atom_site_fract_y
_atom_site_fract_z
_atom_type_partial_charge
C1    C     C_R   0.855330 0.286072 0.504414 0.588419
C2    C     C_R   0.226007 0.839333 0.471980 -0.011968
C3    C     C_R   0.816720 0.074633 0.536870 0.242663
C4    C     C_R   0.001536 0.501470 0.659734 0.580948
C5    C     C_R   0.735296 0.957201 0.558878 0.302778
C6    C     C_R   0.609941 0.922669 0.536992 0.268639
C7    C     C_R   0.563901 0.007748 0.495945 -0.003963
C8    C     C_R   0.649136 0.125254 0.470046 -0.104052
C9    C     C_R   0.437615 0.980568 0.473498 0.031979
C10   C     C_R   0.402321 0.060601 0.408470 0.012637
C11   C     C_R   0.489769 0.170868 0.374721 0.255024
C12   C     C_3   0.003589 0.503745 0.916503 -0.004910
C13   C     C_R   0.610620 0.202886 0.406724 -0.076253
C14   C     C_R   0.343782 0.879014 0.514917 0.308946
C15   C     C_R   0.193148 0.916220 0.405282 -0.223036
C16   C     C_R   0.144599 0.714413 0.488813 0.550799
C17   C     C_R   0.773083 0.160817 0.502350 -0.054064
C18   C     C_R   0.316159 0.293038 0.614100 -0.160030
C19   C     C_R   0.767472 0.657951 0.386605 0.349419
C20   C     C_R   0.676018 0.696906 0.364561 0.195248
C21   C     C_R   0.562807 0.626780 0.395315 0.261602
C22   C     C_R   0.545953 0.528036 0.464024 -0.079202
C23   C     C_3   0.103188 0.599974 0.022332 -0.186387
C24   C     C_R   0.645059 0.493975 0.491295 0.079708
C25   C     C_R   0.436027 0.463967 0.508531 0.009612
C26   C     C_R   0.417395 0.356145 0.565731 -0.014913
C27   C     C_R   0.503750 0.314536 0.580639 -0.096729
C28   C     C_R   0.999678 0.500394 0.340036 0.511636
C29   C     C_R   0.619859 0.386802 0.556566 0.279122
C30   C     C_R   0.344010 0.502274 0.501867 0.111819
C31   C     C_R   0.232112 0.336996 0.606020 0.056134
C32   C     C_3   0.005392 0.408353 0.049574 0.240016
C33   C     C_3   0.903785 0.411544 0.975890 -0.104320
C34   C     C_3   0.003088 0.508267 0.081870 0.032805
C35   C     C_1   0.003305 0.502446 0.749478 0.012941
C36   C     C_1   0.999605 0.502931 0.249778 -0.029139
C37   C     C_3   0.104894 0.498522 0.989204 -0.133953
C38   C     C_3   0.318714 0.851643 0.659253 -0.006992
C39   C     C_3   0.337241 0.785404 0.751139 -0.339458
C40   C     C_3   0.968599 0.113382 0.457835 0.006789
C41   C     C_3   0.102863 0.146838 0.458925 -0.350273
C42   C     C_3   0.796153 0.812724 0.563514 0.035738
C43   C     C_3   0.917347 0.807531 0.596038 -0.371165
C44   C     C_3   0.854551 0.710086 0.257657 0.025134
C45   C     C_3   0.001881 0.603712 0.949007 0.281785
C46   C     C_3   0.975254 0.771435 0.217609 -0.360481
C47   C     C_3   0.408530 0.587069 0.287183 0.002275
C48   C     C_3   0.318970 0.631081 0.230209 -0.352901
C49   C     C_3   0.717136 0.509429 0.949010 -0.006366
C50   C     C_3   0.629792 0.559023 0.954043 -0.370699
C51   C     C_3   0.010284 0.786899 0.935120 -0.019944
C52   C     C_3   0.990658 0.886415 0.869984 -0.355992
C53   C     C_3   0.474328 0.254173 0.230351 -0.018862
C54   C     C_3   0.425628 0.334541 0.164928 -0.365499
C55   C     C_3   0.903459 0.513068 0.008258 0.259156
C56   C     C_1   0.003951 0.503104 0.825051 -0.008991
C57   C     C_1   0.000665 0.506006 0.173676 0.004487
C58   C     C_R   0.279692 0.028222 0.376730 -0.154632
Cl1   Cl    Cl    0.522371 0.771275 0.540922 -0.555972
Cl2   Cl    Cl    0.009984 0.278980 0.118752 -0.613961
Cl3   Cl    Cl    0.702007 0.836561 0.299514 -0.593747
Cl4   Cl    Cl    0.714828 0.337747 0.636721 -0.608212
Cu1   Cu    Cu3+1 0.098270 0.475420 0.519690 1.001449
Cu2   Cu    Cu3+1 0.901730 0.524580 0.480310 1.012350
H1    H     H_    0.823567 0.334669 0.956035 0.135835
H2    H     H_    0.251387 0.086733 0.325820 0.174776
H3    H     H_    0.219692 0.826946 0.643568 0.106540
H4    H     H_    0.367486 0.947196 0.659339 0.124759
H5    H     H_    0.435332 0.809170 0.769962 0.175079
H6    H     H_    0.288475 0.689713 0.752933 0.169053
H7    H     H_    0.301286 0.807854 0.799220 0.105714
H8    H     H_    0.947603 0.181787 0.408928 0.150405
H9    H     H_    0.917414 0.029295 0.434392 0.153822
H10   H     H_    0.133407 0.093055 0.515949 0.148529
H11   H     H_    0.119690 0.132890 0.397367 0.127722
H12   H     H_    0.674510 0.287394 0.376051 0.151917
H13   H     H_    0.155909 0.240771 0.461443 0.167325
H14   H     H_    0.793335 0.846403 0.491281 0.151697
H15   H     H_    0.724185 0.721880 0.575280 0.187380
H16   H     H_    0.920156 0.769595 0.667512 0.180905
H17   H     H_    0.929664 0.751789 0.560267 0.151609
H18   H     H_    0.992424 0.896494 0.584497 0.160468
H19   H     H_    0.795402 0.751039 0.217794 0.174919
H20   H     H_    0.811010 0.616779 0.250984 0.144965
H21   H     H_    0.041445 0.739564 0.258366 0.155170
H22   H     H_    0.962135 0.754210 0.150233 0.099262
H23   H     H_    0.151863 0.287510 0.641115 0.160633
H24   H     H_    0.012596 0.867227 0.213829 0.160935
H25   H     H_    0.357687 0.493502 0.317347 0.139257
H26   H     H_    0.473017 0.594146 0.243606 0.136270
H27   H     H_    0.368140 0.721734 0.194308 0.173072
H28   H     H_    0.265707 0.573592 0.181881 0.113558
H29   H     H_    0.256620 0.630560 0.271859 0.165993
H30   H     H_    0.664871 0.414568 0.947849 0.139368
H31   H     H_    0.760461 0.555335 0.886318 0.175264
H32   H     H_    0.679806 0.654642 0.952249 0.159159
H33   H     H_    0.559393 0.543473 0.897324 0.118050
H34   H     H_    0.485608 0.230627 0.624784 0.145907
H35   H     H_    0.585106 0.516360 0.016013 0.151418
H36   H     H_    0.103139 0.823225 0.969263 0.126264
H37   H     H_    0.942283 0.749585 0.983959 0.165995
H38   H     H_    0.898005 0.852774 0.835411 0.188268
H39   H     H_    0.001070 0.953964 0.905353 0.112790
H40   H     H_    0.058166 0.926930 0.820711 0.163985
H41   H     H_    0.424938 0.165212 0.213812 0.140098
H42   H     H_    0.572614 0.288012 0.223261 0.146515
H43   H     H_    0.476943 0.425389 0.176848 0.140980
H44   H     H_    0.435254 0.333381 0.096887 0.104020
H45   H     H_    0.302627 0.210617 0.658568 0.096464
H46   H     H_    0.328183 0.304509 0.171929 0.189084
H47   H     H_    0.347039 0.582464 0.460839 0.226412
H48   H     H_    0.183678 0.676604 0.042201 0.099566
H49   H     H_    0.186811 0.490653 0.980049 0.133001
H50   H     H_    0.101532 0.889117 0.373960 0.186214
N1    N     N_R   0.246280 0.438200 0.549540 -0.255396
N2    N     N_R   0.754330 0.561180 0.450980 -0.260810
O1    O     O_R   0.972510 0.318130 0.524770 -0.464684
O2    O     O_3   0.939352 0.102951 0.543021 -0.536526
O3    O     O_3   0.778635 0.879269 0.612680 -0.518530
O4    O     O_3   0.874694 0.721541 0.346998 -0.514116
O5    O     O_3   0.468764 0.654737 0.353148 -0.519484
O6    O     O_3   0.802305 0.525008 0.023685 -0.574981
O7    O     O_3   0.997386 0.702598 0.888908 -0.565930
O8    O     O_3   0.456175 0.252441 0.316128 -0.578641
O9    O     O_R   0.806530 0.359650 0.491510 -0.462228
O10   O     O_R   0.082970 0.479240 0.637550 -0.498424
O11   O     O_R   0.916990 0.520750 0.604290 -0.443633
O12   O     O_R   0.193470 0.640350 0.508490 -0.447512
O13   O     O_R   0.027490 0.681870 0.475230 -0.483887
O14   O     O_R   0.083010 0.479250 0.395710 -0.519661
O15   O     O_R   0.917030 0.520760 0.362450 -0.494520
O16   O     O_3   0.364721 0.822001 0.598975 -0.492418

loop_
_geom_bond_atom_site_label_1
_geom_bond_atom_site_label_2
_ccdc_geom_bond_type
C33   C55   S    
C40   O2    S    
C52   H39   S    
C8    C13   A    
Cu2   N2    S    
C27   C29   A    
C51   O7    S    
C11   O8    S    
C18   C26   A    
C18   H45   S    
C44   H19   S    
C33   H1    S    
C7    C8    A    
C27   H34   S    
C14   O16   S    
C53   C54   S    
C45   O7    S    
C23   H48   S    
C52   H38   S    
C50   H35   S    
C54   H43   S    
C5    O3    S    
C23   C45   S    
C10   C58   A    
C1    O9    A    
C41   H13   S    
C38   C39   S    
Cu1   O1    S    
C42   O3    S    
C47   O5    S    
C37   H49   S    
C44   O4    S    
C25   C30   A    
C40   H9    S    
C54   H46   S    
Cu1   O14   S    
C20   Cl3   S    
C49   C50   S    
C24   C29   A    
C41   H10   S    
C53   H42   S    
C58   H2    S    
C19   C20   A    
C22   C25   A    
C34   C57   S    
C48   H28   S    
Cu2   O15   S    
C49   H30   S    
C2    C16   S    
C9    C10   A    
Cu1   O12   S    
C46   H21   S    
Cu1   N1    S    
C23   C34   S    
C55   O6    S    
C34   C55   S    
C21   C22   A    
C47   H25   S    
C31   N1    A    
C44   C46   S    
C46   H24   S    
C30   N1    A    
C31   H23   S    
C48   H29   S    
C51   C52   S    
C36   C57   T    
C44   H20   S    
C25   C26   A    
C23   C37   S    
C48   H27   S    
C49   H31   S    
C32   C34   S    
C9    C14   A    
C16   O13   A    
C3    O2    S    
C41   H11   S    
C47   C48   S    
C13   H12   S    
Cu2   O11   S    
C39   H5    S    
C15   H50   S    
C1    O1    A    
C32   C37   S    
C20   C21   A    
C2    C15   A    
C16   O12   A    
C45   C55   S    
C12   C56   S    
C40   C41   S    
C38   H4    S    
C19   O4    S    
C24   N2    A    
C26   C27   A    
C43   H17   S    
C15   C58   A    
C22   C24   A    
C42   C43   S    
C32   Cl2   S    
C51   H36   S    
C7    C9    A    
C29   Cl4   S    
C52   H40   S    
C50   H33   S    
C40   H8    S    
C4    O11   A    
C35   C56   T    
C6    Cl1   S    
C12   C45   S    
C3    C5    A    
C53   O8    S    
C42   H14   S    
C6    C7    A    
C4    O10   A    
Cu2   O13   S    
C51   H37   S    
C1    C17   S    
C8    C17   A    
C54   H44   S    
C30   H47   S    
C28   O15   A    
C32   C33   S    
C43   H16   S    
C11   C13   A    
C50   H32   S    
C5    C6    A    
C19   N2    A    
C49   O6    S    
C47   H26   S    
C39   H6    S    
C3    C17   A    
C28   O14   A    
C21   O5    S    
C2    C14   A    
C4    C35   S    
Cu1   O10   S    
C10   C11   A    
Cu1   Cu2   S    
C53   H41   S    
C42   H15   S    
C38   H3    S    
C28   C36   S    
Cu2   O9    S    
C12   C37   S    
C43   H18   S    
C39   H7    S    
C18   C31   A    
C12   C33   S    
C38   O16   S    
C46   H22   S    
