data_mof_unit_38890.cif
_audit_creation_date              2013-03-05T15:51:15-0500
_audit_creation_method            fapswitch 2.2
_symmetry_space_group_name_H-M    P1
_symmetry_Int_Tables_number       1
_space_group_crystal_system       triclinic
_cell_length_a                    19.135937
_cell_length_b                    11.120365
_cell_length_c                    18.723235
_cell_angle_alpha                 89.361499
_cell_angle_beta                  89.905723
_cell_angle_gamma                 90.331645
_cell_volume                      3983.95830883

loop_
_atom_site_label
_atom_site_type_symbol
_atom_site_description
_atom_site_fract_x
_atom_site_fract_y
_atom_site_fract_z
_atom_type_partial_charge
O1    O     O_R   0.787520 0.042810 0.170440 -0.509359
O2    O     O_R   0.212480 0.042810 0.829560 -0.503246
O3    O     O_R   0.287520 0.542810 0.170440 -0.500513
O4    O     O_R   0.712480 0.542810 0.829560 -0.490787
O5    O     O_R   0.765640 0.292100 0.175020 -0.499124
O6    O     O_R   0.234360 0.292100 0.824980 -0.515553
O7    O     O_R   0.265640 0.792100 0.175020 -0.497252
O8    O     O_R   0.734360 0.792100 0.824980 -0.506447
C1    C     C_R   0.731197 0.380315 0.147705 0.565540
C2    C     C_R   0.271049 0.376072 0.853645 0.590757
C3    C     C_R   0.231799 0.882300 0.148176 0.558598
C4    C     C_R   0.787790 0.834305 0.861841 0.555858
O9    O     O_R   0.670190 0.408840 0.168540 -0.454555
O10   O     O_R   0.329810 0.408840 0.831460 -0.437528
O11   O     O_R   0.170190 0.908840 0.168540 -0.455690
O12   O     O_R   0.829810 0.908840 0.831460 -0.420495
O13   O     O_R   0.556620 0.251410 0.175160 -0.481176
O14   O     O_R   0.443380 0.251410 0.824840 -0.478518
O15   O     O_R   0.056620 0.751410 0.175160 -0.487940
O16   O     O_R   0.943380 0.751410 0.824840 -0.454594
C5    C     C_R   0.530776 0.156334 0.147393 0.551029
C6    C     C_R   0.467612 0.154453 0.853636 0.573762
C7    C     C_R   0.031987 0.657854 0.146880 0.539107
C8    C     C_R   0.966238 0.653957 0.854276 0.582658
O17   O     O_R   0.545960 0.049620 0.170320 -0.510534
O18   O     O_R   0.454040 0.049620 0.829680 -0.521815
O19   O     O_R   0.045960 0.549620 0.170320 -0.507025
O20   O     O_R   0.954040 0.549620 0.829680 -0.507662
O21   O     O_R   0.681390 0.958010 0.176690 -0.464344
O22   O     O_R   0.318610 0.958010 0.823310 -0.474121
O23   O     O_R   0.181390 0.458010 0.176690 -0.457870
O24   O     O_R   0.818610 0.458010 0.823310 -0.485288
C9    C     C_R   0.741458 0.969252 0.148338 0.563847
C10   C     C_R   0.273031 0.022261 0.859877 0.565400
C11   C     C_R   0.239154 0.478936 0.144751 0.591184
C12   C     C_R   0.771752 0.517134 0.859813 0.550575
O25   O     O_R   0.787510 0.044390 0.330970 -0.512100
O26   O     O_R   0.212490 0.044390 0.669030 -0.502154
O27   O     O_R   0.287510 0.544390 0.330970 -0.505277
O28   O     O_R   0.712490 0.544390 0.669030 -0.500633
O29   O     O_R   0.765630 0.293570 0.323840 -0.510129
O30   O     O_R   0.234370 0.293570 0.676160 -0.502087
O31   O     O_R   0.265630 0.793570 0.323840 -0.509618
O32   O     O_R   0.734370 0.793570 0.676160 -0.500690
C13   C     C_R   0.729918 0.377923 0.352044 0.554905
C14   C     C_R   0.269786 0.381013 0.648834 0.559992
C15   C     C_R   0.229918 0.877922 0.352044 0.557769
C16   C     C_R   0.769792 0.880998 0.648829 0.563808
O33   O     O_R   0.670190 0.410420 0.329080 -0.508997
O34   O     O_R   0.329810 0.410420 0.670920 -0.514305
O35   O     O_R   0.170190 0.910420 0.329080 -0.506236
O36   O     O_R   0.829810 0.910420 0.670920 -0.517877
O37   O     O_R   0.556610 0.252880 0.323980 -0.502055
O38   O     O_R   0.443390 0.252880 0.676020 -0.502332
O39   O     O_R   0.056610 0.752880 0.323980 -0.505052
O40   O     O_R   0.943390 0.752880 0.676020 -0.503738
C17   C     C_R   0.535051 0.156225 0.354918 0.548651
C18   C     C_R   0.468532 0.157043 0.647352 0.556977
C19   C     C_R   0.035090 0.656219 0.354943 0.543588
C20   C     C_R   0.968556 0.657041 0.647371 0.563507
O41   O     O_R   0.545950 0.051210 0.330860 -0.514379
O42   O     O_R   0.454050 0.051210 0.669140 -0.519614
O43   O     O_R   0.045950 0.551210 0.330860 -0.514930
O44   O     O_R   0.954050 0.551210 0.669140 -0.512682
O45   O     O_R   0.681390 0.959480 0.325510 -0.501613
O46   O     O_R   0.318610 0.959480 0.674490 -0.502456
O47   O     O_R   0.181390 0.459480 0.325510 -0.499026
O48   O     O_R   0.818610 0.459480 0.674490 -0.504843
C21   C     C_R   0.739721 0.977193 0.356637 0.552128
C22   C     C_R   0.258900 0.974394 0.644899 0.570527
C23   C     C_R   0.239723 0.477186 0.356637 0.559848
C24   C     C_R   0.758907 0.474413 0.644892 0.568698
Cr1   Cr    Cr6+3 0.772010 0.169670 0.250090 1.059297
Cr2   Cr    Cr6+3 0.227990 0.169670 0.749910 1.042514
Cr3   Cr    Cr6+3 0.272010 0.669670 0.250090 1.065396
Cr4   Cr    Cr6+3 0.727990 0.669670 0.749910 1.038647
Cr5   Cr    Cr6+3 0.615000 0.323260 0.249260 1.083652
Cr6   Cr    Cr6+3 0.385000 0.323260 0.750740 1.085707
Cr7   Cr    Cr6+3 0.115000 0.823260 0.249260 1.079689
Cr8   Cr    Cr6+3 0.885000 0.823260 0.750740 1.084246
Cr9   Cr    Cr6+3 0.616710 0.010760 0.250840 1.075657
Cr10  Cr    Cr6+3 0.383290 0.010760 0.749160 1.048177
Cr11  Cr    Cr6+3 0.116710 0.510760 0.250840 1.079702
Cr12  Cr    Cr6+3 0.883290 0.510760 0.749160 1.037424
O49   O     O_3   0.667900 0.167900 0.250060 -0.287438
O50   O     O_3   0.332100 0.167900 0.749940 -0.305992
O51   O     O_3   0.167900 0.667900 0.250060 -0.291413
O52   O     O_3   0.832100 0.667900 0.749940 -0.320657
H1    H     H_    0.473211 0.982230 0.072794 0.183741
H2    H     H_    0.468033 0.971992 0.946161 0.155741
H3    H     H_    0.948396 0.508861 0.080119 0.179446
H4    H     H_    0.939859 0.489974 0.952477 0.163094
C25   C     C_R   0.494376 0.159721 0.927008 0.037202
C26   C     C_R   0.496955 0.169545 0.076970 0.010760
C27   C     C_R   0.992262 0.657445 0.927790 0.043481
C28   C     C_R   0.000432 0.678333 0.076340 -0.010035
C29   C     C_R   0.513870 0.268478 0.960405 0.010902
C30   C     C_R   0.504177 0.276727 0.035823 -0.002463
C31   C     C_R   0.028434 0.756283 0.956504 0.031228
C32   C     C_R   0.021352 0.777472 0.031275 -0.010108
C33   C     C_R   0.480548 0.063605 0.042600 -0.159495
C34   C     C_R   0.480208 0.057899 0.969438 -0.150011
C35   C     C_R   0.968250 0.579766 0.046341 -0.164299
C36   C     C_R   0.964479 0.569052 0.973505 -0.155418
C37   C     C_R   0.543380 0.368712 0.922981 0.121804
C38   C     C_R   0.503511 0.391613 0.067027 0.110180
C39   C     C_R   0.066753 0.839582 0.913366 0.134475
C40   C     C_R   0.032420 0.897729 0.055297 0.148692
C41   C     C_R   0.080344 0.953392 0.939557 -0.095401
C42   C     C_R   0.058964 0.983769 0.007542 -0.050844
C43   C     C_R   0.553479 0.476462 0.958836 -0.063342
C44   C     C_R   0.530131 0.488870 0.028666 -0.036173
H5    H     H_    0.102100 0.022223 0.904862 0.155728
H6    H     H_    0.059002 0.077193 0.021063 0.207890
H7    H     H_    0.574584 0.554118 0.930740 0.152503
H8    H     H_    0.528171 0.576431 0.051487 0.226296
C45   C     C_R   0.777870 0.861330 0.936932 -0.004674
C46   C     C_R   0.261002 0.951956 0.087032 0.014398
C47   C     C_R   0.256093 0.417199 0.924166 0.026270
C48   C     C_R   0.758077 0.442453 0.084226 0.011297
C49   C     C_R   0.711078 0.852360 0.966076 -0.023411
C50   C     C_R   0.314746 0.907078 0.046002 -0.011271
C51   C     C_R   0.201774 0.362968 0.962280 -0.039650
C52   C     C_R   0.808609 0.389968 0.041999 -0.037086
C53   C     C_R   0.699582 0.879345 0.036672 0.075320
C54   C     C_R   0.322756 0.939063 0.974504 -0.052541
C55   C     C_R   0.193441 0.390392 0.033192 0.055807
C56   C     C_R   0.814991 0.416166 0.970695 -0.056627
C57   C     C_R   0.821982 0.906022 0.055272 -0.136743
C58   C     C_R   0.228558 0.076996 0.984641 -0.166052
C59   C     C_R   0.306651 0.483831 0.034344 -0.162636
C60   C     C_R   0.724756 0.562851 0.980805 -0.164720
C61   C     C_R   0.833875 0.899063 0.982051 0.162340
C62   C     C_R   0.226706 0.054223 0.059765 0.190089
C63   C     C_R   0.307238 0.485965 0.960559 0.172953
C64   C     C_R   0.723227 0.543375 0.055547 0.188821
C65   C     C_3   0.645892 0.916077 0.943342 -0.039080
C66   C     C_3   0.334596 0.781398 0.035372 -0.017862
C67   C     C_3   0.125978 0.373977 0.946936 -0.048709
C68   C     C_3   0.835240 0.266498 0.035379 0.029539
C69   C     C_3   0.633689 0.944796 0.021357 -0.213803
C70   C     C_3   0.342640 0.814808 0.957146 -0.169612
C71   C     C_3   0.118920 0.427032 0.021073 -0.204493
C72   C     C_3   0.841780 0.293196 0.955266 -0.182278
C73   C     C_R   0.754370 0.907810 0.082162 0.013841
C74   C     C_R   0.273708 0.011024 0.939713 -0.044142
C75   C     C_R   0.247575 0.442904 0.071636 -0.009021
C76   C     C_R   0.768396 0.493480 0.936735 -0.023940
H9    H     H_    0.864266 0.933499 0.089025 0.195945
H10   H     H_    0.193205 0.140488 0.961223 0.132634
H11   H     H_    0.348486 0.528846 0.061568 0.213122
H12   H     H_    0.691211 0.629465 0.956988 0.144473
H13   H     H_    0.100783 0.283869 0.943234 0.150709
H14   H     H_    0.795484 0.196355 0.048533 0.157935
H15   H     H_    0.606187 0.853246 0.921362 0.152960
H16   H     H_    0.290110 0.719217 0.045777 0.128552
H17   H     H_    0.637374 0.042077 0.034034 0.141258
H18   H     H_    0.396666 0.808467 0.936056 0.204917
H19   H     H_    0.113357 0.526472 0.020188 0.136526
H20   H     H_    0.896549 0.294129 0.935546 0.184256
H21   H     H_    0.587795 0.896816 0.044442 0.187335
H22   H     H_    0.300325 0.776061 0.924077 0.196142
H23   H     H_    0.080792 0.378277 0.055517 0.211618
H24   H     H_    0.804768 0.239924 0.922408 0.181783
C77   C     C_R   0.504763 0.163743 0.579209 0.026721
C78   C     C_R   0.517870 0.162219 0.430127 0.020369
C79   C     C_R   0.004839 0.663737 0.579255 0.028298
C80   C     C_R   0.017966 0.662209 0.430172 0.019334
C81   C     C_R   0.519273 0.056888 0.542993 0.033186
C82   C     C_R   0.525291 0.057010 0.470188 0.035977
C83   C     C_R   0.019375 0.556883 0.543046 0.035132
C84   C     C_R   0.025398 0.557002 0.470236 0.036194
C85   C     C_R   0.515267 0.272195 0.466521 -0.167031
C86   C     C_R   0.510394 0.272994 0.541250 -0.169369
C87   C     C_R   0.015361 0.772184 0.466567 -0.167680
C88   C     C_R   0.010476 0.772986 0.541296 -0.169123
C89   C     C_3   0.482584 0.936930 0.542452 -0.267010
C90   C     C_3   0.488933 0.939099 0.462087 -0.275987
C91   C     C_3   0.982698 0.436913 0.542503 -0.266908
C92   C     C_3   0.989044 0.439086 0.462139 -0.276851
H25   H     H_    0.514288 0.356382 0.437286 0.123097
H26   H     H_    0.505290 0.357676 0.568412 0.121010
H27   H     H_    0.014367 0.856370 0.437332 0.122247
H28   H     H_    0.005344 0.857667 0.568453 0.120421
H29   H     H_    0.927637 0.441526 0.560357 0.169927
H30   H     H_    0.023519 0.367669 0.441295 0.137009
H31   H     H_    0.427527 0.941577 0.560313 0.170519
H32   H     H_    0.523416 0.867687 0.441247 0.136861
H33   H     H_    0.514002 0.864832 0.568264 0.130933
H34   H     H_    0.437901 0.947787 0.434250 0.148204
H35   H     H_    0.014124 0.364828 0.568317 0.132073
H36   H     H_    0.938009 0.447771 0.434307 0.147244
C93   C     C_R   0.748660 0.935191 0.581521 0.024629
C94   C     C_R   0.251651 0.921929 0.421160 0.020308
C95   C     C_R   0.248647 0.435233 0.581535 0.027401
C96   C     C_R   0.751655 0.421953 0.421154 0.019384
C97   C     C_R   0.796268 0.008625 0.544040 0.025093
C98   C     C_R   0.215316 0.015140 0.453873 0.027077
C99   C     C_R   0.296249 0.508677 0.544051 0.026697
C100  C     C_R   0.715298 0.515136 0.453872 0.025188
C101  C     C_R   0.793410 0.016564 0.471120 0.029814
C102  C     C_R   0.215641 0.024902 0.526857 0.033765
C103  C     C_R   0.293398 0.516595 0.471126 0.027605
C104  C     C_R   0.715633 0.524904 0.526854 0.034386
C105  C     C_R   0.687214 0.900371 0.470522 -0.154222
C106  C     C_R   0.297336 0.862340 0.537581 -0.170729
C107  C     C_R   0.187219 0.400369 0.470529 -0.154827
C108  C     C_R   0.797383 0.362422 0.537565 -0.171116
C109  C     C_R   0.689504 0.892658 0.545225 -0.153422
C110  C     C_R   0.297434 0.851902 0.463212 -0.168307
C111  C     C_R   0.189497 0.392684 0.545236 -0.152138
C112  C     C_R   0.797471 0.351976 0.463197 -0.167553
C113  C     C_3   0.874738 0.009582 0.542379 -0.269767
C114  C     C_3   0.140365 0.053297 0.449595 -0.261961
C115  C     C_3   0.374719 0.509655 0.542393 -0.269085
C116  C     C_3   0.640337 0.553240 0.449609 -0.262534
C117  C     C_3   0.870751 0.017942 0.462016 -0.275638
C118  C     C_3   0.140666 0.060093 0.530153 -0.269593
C119  C     C_3   0.370739 0.517980 0.462027 -0.275547
C120  C     C_3   0.640653 0.560054 0.530166 -0.268814
C121  C     C_R   0.743159 0.953795 0.432678 0.019463
C122  C     C_R   0.252528 0.944621 0.570209 0.022866
C123  C     C_R   0.243158 0.453803 0.432684 0.018556
C124  C     C_R   0.752548 0.444657 0.570199 0.022303
H37   H     H_    0.643507 0.861307 0.442529 0.126597
H38   H     H_    0.330530 0.804272 0.569411 0.129029
H39   H     H_    0.143526 0.361271 0.442533 0.126658
H40   H     H_    0.830596 0.304381 0.569389 0.127281
H41   H     H_    0.648566 0.845129 0.573762 0.122163
H42   H     H_    0.328404 0.781860 0.439582 0.138760
H43   H     H_    0.148561 0.345153 0.573775 0.123782
H44   H     H_    0.828458 0.281956 0.439562 0.138865
H45   H     H_    0.897011 0.923144 0.560689 0.165437
H46   H     H_    0.104466 0.982875 0.430081 0.162823
H47   H     H_    0.396999 0.423233 0.560717 0.165537
H48   H     H_    0.604452 0.482785 0.430110 0.163131
H49   H     H_    0.897371 0.091309 0.567262 0.133582
H50   H     H_    0.134527 0.142386 0.422905 0.139985
H51   H     H_    0.397343 0.591398 0.567267 0.135742
H52   H     H_    0.634472 0.642322 0.422917 0.138720
H53   H     H_    0.891075 0.104462 0.440113 0.139326
H54   H     H_    0.133100 0.152073 0.550265 0.138108
H55   H     H_    0.391063 0.604490 0.440110 0.139762
H56   H     H_    0.633075 0.652035 0.550273 0.138207
H57   H     H_    0.890244 0.936350 0.434763 0.144323
H58   H     H_    0.107546 0.990209 0.556538 0.144684
H59   H     H_    0.390234 0.436378 0.434785 0.147487
H60   H     H_    0.607549 0.490159 0.556565 0.144718
I1    I     I_    0.584277 0.367554 0.816757 -0.244623
I2    I     I_    0.448797 0.431399 0.164015 -0.257676
I3    I     I_    0.105178 0.809547 0.808056 -0.253482
I4    I     I_    0.993927 0.975449 0.152293 -0.202105
N1    N     N_R   0.894368 0.963367 0.955895 0.079359
O53   O     O_R   0.932078 0.926426 0.903586 -0.317907
O54   O     O_R   0.913786 0.061565 0.986707 -0.364201
N2    N     N_R   0.192399 0.133413 0.108584 0.093099
O55   O     O_R   0.219962 0.153659 0.170875 -0.313644
O56   O     O_R   0.133103 0.182790 0.093029 -0.382192
N3    N     N_R   0.358874 0.559112 0.923636 0.083467
O57   O     O_R   0.343980 0.615313 0.864117 -0.335948
O58   O     O_R   0.418828 0.580577 0.952976 -0.384600
N4    N     N_R   0.686249 0.623284 0.101770 0.088428
O59   O     O_R   0.711253 0.648238 0.164550 -0.326372
O60   O     O_R   0.629841 0.676672 0.080468 -0.394607
I5    I     I_    0.666643 0.072960 0.878722 -0.355498
I6    I     I_    0.427443 0.749736 0.095311 -0.342762
I7    I     I_    0.107642 0.479291 0.852995 -0.333731
I8    I     I_    0.930490 0.262776 0.094617 -0.300912

loop_
_geom_bond_atom_site_label_1
_geom_bond_atom_site_label_2
_geom_bond_distance
_ccdc_geom_bond_type
C18   O42   1.270222 A    
C80   C87   1.407705 A    
Cr11  O51   1.998232 S    
C83   C84   1.367894 A    
O4    C12   1.300426 A    
O47   Cr11  1.951359 S    
C33   C34   1.372038 A    
O39   C19   1.281128 A    
C16   C93   1.449973 S    
C58   C74   1.418085 A    
O5    Cr1   1.950352 S    
H4    C36   1.074148 S    
C81   C82   1.367799 A    
C102  C122  1.395388 A    
C15   C94   1.449350 S    
O37   Cr5   1.943847 S    
C43   C44   1.389562 A    
C4    C45   1.453346 S    
C101  C121  1.391272 A    
C96   C100  1.397908 A    
C45   C61   1.429661 A    
C86   H26   1.080056 S    
O26   C22   1.270140 A    
C29   C30   1.427935 A    
C54   C74   1.394545 A    
O1    C9    1.271879 A    
C14   C95   1.450004 S    
C46   C62   1.407650 A    
C38   C44   1.385704 A    
C85   C86   1.402252 A    
O45   C21   1.275361 A    
C48   C52   1.383873 A    
O7    C3    1.294398 A    
C113  C117  1.508572 S    
C120  H56   1.104131 S    
C111  H43   1.079843 S    
C104  C120  1.490668 S    
C99   C115  1.501833 S    
C118  H58   1.111036 S    
C114  H50   1.110909 S    
C117  H57   1.111925 S    
C113  H49   1.111834 S    
C19   C80   1.447963 S    
O30   C14   1.283265 A    
N1    O53   1.287939 A    
C112  H44   1.079751 S    
C27   C31   1.407762 A    
O20   Cr12  2.075332 S    
C5    C26   1.476004 S    
C67   H13   1.112379 S    
C24   C124  1.445861 S    
C51   C67   1.484567 S    
O8    Cr4   1.971124 S    
O23   Cr11  1.955605 S    
C7    C28   1.469122 S    
C65   H15   1.111807 S    
C46   C50   1.381592 A    
C49   C65   1.498165 S    
C17   O41   1.274520 A    
O32   Cr4   1.942957 S    
C18   C77   1.452038 S    
C1    O9    1.273282 A    
H2    C34   1.078837 S    
C45   C49   1.391535 A    
C2    C47   1.431158 S    
C100  C116  1.500082 S    
C49   C53   1.376293 A    
C3    O11   1.275707 A    
C12   C76   1.462406 S    
O11   Cr7   2.063076 S    
C58   H10   1.071468 S    
C4    O12   1.279610 A    
C26   C33   1.383425 A    
C53   C69   1.486306 S    
C91   H35   1.111629 S    
N2    O56   1.295578 A    
C98   C102  1.372019 A    
C68   I8    2.135555 S    
C105  H37   1.079459 S    
C102  C118  1.490681 S    
O32   C16   1.283232 A    
C105  C109  1.401135 A    
O7    Cr3   1.950352 S    
C72   H20   1.110567 S    
O3    Cr3   2.086269 S    
Cr4   O52   1.992453 S    
O47   C23   1.275383 A    
O2    Cr2   2.061322 S    
O8    C4    1.321350 A    
C52   C56   1.368398 A    
C29   C37   1.423482 A    
Cr6   O50   1.997537 S    
C13   C96   1.449351 S    
C68   C72   1.530622 S    
O42   Cr10  2.061980 S    
C85   H25   1.079457 S    
C39   I3    2.133725 S    
O18   Cr10  2.075332 S    
C104  C124  1.395354 A    
C107  C111  1.401176 A    
C39   C41   1.385758 A    
C83   C91   1.504008 S    
C58   C62   1.426748 A    
C67   C71   1.520418 S    
C99   C103  1.368446 A    
C113  H45   1.105000 S    
C93   C109  1.403747 A    
O34   Cr6   2.067143 S    
Cr7   O51   2.007360 S    
C108  C112  1.398541 A    
C20   O44   1.270186 A    
O6    Cr2   1.971124 S    
C95   C99   1.402096 A    
C77   C81   1.403572 A    
O24   Cr12  1.941979 S    
O9    Cr5   2.063076 S    
C32   C40   1.430376 A    
C20   C79   1.452057 S    
C89   H33   1.111633 S    
O22   C10   1.325189 A    
C64   N4    1.435871 S    
O48   Cr12  1.956271 S    
C116  C120  1.511062 S    
C115  H47   1.104971 S    
C50   C66   1.466054 S    
C2    O10   1.249019 A    
C8    C27   1.465347 S    
C61   N1    1.439417 S    
N1    O54   1.293601 A    
C100  C104  1.371997 A    
O16   Cr8   1.949877 S    
C107  C123  1.407774 A    
C56   C76   1.391780 A    
C15   O35   1.274657 A    
C17   C78   1.447848 S    
C66   I6    2.131942 S    
C77   C86   1.404185 A    
Cr10  O50   2.008408 S    
O29   Cr1   1.965651 S    
C54   C70   1.474903 S    
C47   C63   1.418484 A    
O28   Cr4   2.089448 S    
C118  H54   1.104132 S    
O43   Cr11  2.072656 S    
O48   C24   1.281460 A    
C48   C64   1.410320 A    
C117  H53   1.109727 S    
C60   C76   1.411637 A    
O41   Cr9   2.072656 S    
C50   C54   1.389285 A    
O15   C7    1.261893 A    
O5    C1    1.286737 A    
C115  C119  1.508589 S    
C65   I5    2.146743 S    
C94   C110  1.410818 A    
O39   Cr7   1.943847 S    
C95   C111  1.403722 A    
C106  C110  1.398547 A    
C84   C92   1.490165 S    
C51   C55   1.374808 A    
C31   C32   1.428585 A    
C68   H14   1.111801 S    
C13   O33   1.274654 A    
O40   Cr8   1.961528 S    
C60   C64   1.413930 A    
N2    O55   1.302155 A    
O13   Cr5   1.957234 S    
C110  H42   1.079733 S    
C103  C123  1.391269 A    
C119  H55   1.109722 S    
C106  H38   1.083064 S    
C55   C71   1.502273 S    
O29   C13   1.281813 A    
Cr2   O50   1.992453 S    
O15   Cr7   1.957234 S    
C41   H5    1.079586 S    
C56   C72   1.494213 S    
Cr1   O49   1.992227 S    
C40   C42   1.395250 A    
C11   C75   1.439724 S    
O30   Cr2   1.942957 S    
C9    C73   1.443222 S    
C71   H23   1.108277 S    
C90   H34   1.111879 S    
C57   C61   1.392407 A    
C69   H17   1.111977 S    
C114  C118  1.511066 S    
O14   Cr6   1.949877 S    
C40   I4    2.150741 S    
O21   Cr9   1.955605 S    
C78   C82   1.390796 A    
C7    O19   1.305797 A    
C65   C69   1.516671 S    
C81   C89   1.503996 S    
C92   H36   1.111877 S    
C116  H48   1.104383 S    
O25   C21   1.268185 A    
C119  H59   1.111928 S    
C19   O43   1.274505 A    
O38   Cr6   1.961528 S    
C115  H51   1.111836 S    
O3    C11   1.262503 A    
N3    O57   1.304331 A    
C98   C114  1.500076 S    
C25   C29   1.416063 A    
C42   H6    1.072043 S    
C44   H8    1.068510 S    
C108  H40   1.083053 S    
C97   C113  1.501834 S    
C27   C36   1.398270 A    
O31   Cr3   1.965651 S    
C87   H27   1.079450 S    
O26   Cr2   2.089448 S    
O25   Cr1   2.069135 S    
C66   H16   1.109229 S    
C88   H28   1.080063 S    
C5    O17   1.292288 A    
C89   H31   1.106511 S    
C78   C85   1.407697 A    
O27   C23   1.268190 A    
O22   Cr10  1.941979 S    
O28   C24   1.270147 A    
H1    C33   1.070072 S    
O14   C6    1.289136 A    
C63   N3    1.446322 S    
C89   C90   1.509301 S    
C52   C68   1.473748 S    
O21   C9    1.270257 A    
C8    O20   1.273541 A    
H3    C35   1.072680 S    
N3    O58   1.294909 A    
O17   Cr9   2.071595 S    
O37   C17   1.281103 A    
C25   C34   1.400869 A    
C70   H22   1.108270 S    
C79   C83   1.403610 A    
O24   C12   1.310809 A    
C71   H19   1.111467 S    
N4    O59   1.302006 A    
C91   H29   1.106513 S    
C47   C51   1.390714 A    
C108  C124  1.401970 A    
C31   C39   1.421833 A    
C72   H24   1.111645 S    
C14   O34   1.263907 A    
C116  H52   1.110913 S    
C59   C63   1.381467 A    
C30   C38   1.410842 A    
C97   C101  1.368389 A    
C103  C119  1.489447 S    
C92   H30   1.109219 S    
C80   C84   1.390831 A    
O1    Cr1   2.086269 S    
C38   I2    2.146306 S    
C60   H12   1.076448 S    
O19   Cr11  2.071595 S    
C107  H39   1.079423 S    
C1    C48   1.459536 S    
C37   I1    2.136291 S    
Cr8   O52   1.997537 S    
C87   C88   1.402267 A    
C53   C73   1.389216 A    
C41   C42   1.382476 A    
C120  H60   1.111038 S    
C62   N2    1.436890 S    
C10   C74   1.498695 S    
O2    C10   1.311243 A    
C94   C98   1.397897 A    
Cr12  O52   2.008408 S    
Cr5   O49   2.007360 S    
C93   C97   1.402068 A    
C28   C32   1.435506 A    
O23   C11   1.274894 A    
C66   C70   1.514391 S    
C22   C122  1.445871 S    
C23   C123  1.446204 S    
O33   Cr5   2.077005 S    
C59   H11   1.074089 S    
C70   H18   1.108987 S    
C21   C121  1.446122 S    
C57   C73   1.387863 A    
O10   Cr6   2.084146 S    
C37   C43   1.392625 A    
C69   H21   1.109483 S    
O35   Cr7   2.077005 S    
O4    Cr4   2.061322 S    
C6    C25   1.468561 S    
C105  C121  1.407780 A    
O6    C2    1.287537 A    
C109  H41   1.079846 S    
C101  C117  1.489470 S    
C91   C92   1.509289 S    
C96   C112  1.410811 A    
O40   C20   1.293578 A    
C16   O36   1.263888 A    
N4    O60   1.296244 A    
O38   C18   1.293534 A    
O46   C22   1.281499 A    
O44   Cr12  2.061980 S    
O27   Cr3   2.069135 S    
C6    O18   1.279153 A    
C28   C35   1.379569 A    
C67   I7    2.132888 S    
C35   C36   1.372232 A    
C106  C122  1.401946 A    
C26   C30   1.417926 A    
O45   Cr9   1.951359 S    
C114  H46   1.104376 S    
C43   H7    1.081996 S    
C59   C75   1.398927 A    
O12   Cr8   2.084146 S    
C57   H9    1.072650 S    
O36   Cr8   2.067143 S    
C3    C46   1.481889 S    
O31   C15   1.281803 A    
C90   H32   1.109250 S    
O16   C8    1.289378 A    
Cr9   O49   1.998232 S    
Cr3   O51   1.992227 S    
O46   Cr10  1.956271 S    
C55   C75   1.391762 A    
C79   C88   1.404172 A    
C82   C90   1.490153 S    
O13   C5    1.280522 A    
