data_mof_unit_38128.cif
_audit_creation_date              2013-03-05T16:32:07-0500
_audit_creation_method            fapswitch 2.2
_symmetry_space_group_name_H-M    P1
_symmetry_Int_Tables_number       1
_space_group_crystal_system       triclinic
_cell_length_a                    10.753917
_cell_length_b                    10.893093
_cell_length_c                    9.5461
_cell_angle_alpha                 90.948263
_cell_angle_beta                  90.019456
_cell_angle_gamma                 90.433594
_cell_volume                      1118.07749547

loop_
_atom_site_label
_atom_site_type_symbol
_atom_site_description
_atom_site_fract_x
_atom_site_fract_y
_atom_site_fract_z
_atom_type_partial_charge
O1    O     O_R   0.500000 0.319640 0.618810 -0.572191
O2    O     O_R   0.500010 0.319680 0.381230 -0.522462
C1    C     C_R   0.494210 0.262766 0.498403 0.839847
O3    O     O_R   0.317690 0.499960 0.618790 -0.602047
O4    O     O_R   0.317700 0.500000 0.381210 -0.554876
C2    C     C_R   0.259976 0.500507 0.500053 0.807198
Cu1   Cu    Cu3+1 0.499990 0.499980 0.640670 0.968512
Cu2   Cu    Cu3+1 0.500010 0.500020 0.359330 1.048874
O5    O     O_R   0.499990 0.680320 0.618770 -0.586402
O6    O     O_R   0.500000 0.680360 0.381190 -0.584751
O7    O     O_R   0.682300 0.500000 0.618790 -0.598559
O8    O     O_R   0.682310 0.500040 0.381210 -0.550506
C3    C     C_R   0.499750 0.737367 0.500683 0.835509
C4    C     C_R   0.740124 0.498091 0.499999 0.785373
C5    C     C_3   0.071497 0.490649 0.651955 -0.436556
H1    H     H_    0.110184 0.565793 0.719869 0.205208
H2    H     H_    0.100098 0.402039 0.698309 0.216366
C6    C     C_3   0.929128 0.499036 0.652233 -0.435078
H3    H     H_    0.889916 0.421220 0.712663 0.207198
H4    H     H_    0.901605 0.585674 0.706476 0.196545
H5    H     H_    0.094532 0.697383 0.514332 0.104952
H6    H     H_    0.887230 0.697813 0.478979 0.130122
C7    C     C_3   0.071106 0.622166 0.437861 0.206986
C8    C     C_3   0.072899 0.386429 0.415477 -0.373365
C9    C     C_3   0.122196 0.500200 0.499596 -0.040782
H7    H     H_    0.104477 0.389153 0.304956 0.249120
H8    H     H_    0.113160 0.301298 0.459211 0.150641
C10   C     C_3   0.878166 0.497396 0.499413 -0.024875
C11   C     C_3   0.927685 0.614899 0.427227 -0.398254
C12   C     C_3   0.929303 0.378767 0.425167 0.197946
H9    H     H_    0.905713 0.299919 0.493624 0.099220
H10   H     H_    0.896800 0.617084 0.316748 0.231975
C13   C     C_R   0.488341 0.065089 0.617522 0.007496
C14   C     C_R   0.484201 0.129997 0.493992 -0.222256
C15   C     C_R   0.476088 0.060106 0.366748 0.345860
C16   C     C_R   0.482291 0.931277 0.370757 -0.212264
H11   H     H_    0.476241 0.879889 0.272833 0.200035
C17   C     C_R   0.494203 0.869909 0.499094 -0.128322
C18   C     C_R   0.495788 0.941677 0.620301 0.029681
C19   C     C_3   0.513334 0.940236 0.775170 -0.444258
C20   C     C_3   0.502245 0.080798 0.771700 0.313651
H12   H     H_    0.436262 0.892339 0.830011 0.241900
H13   H     H_    0.608861 0.912240 0.803730 0.163001
H14   H     H_    0.588448 0.131202 0.802826 0.131886
C21   C     C_R   0.604521 0.532506 0.074507 0.336879
N1    N     N_R   0.500800 0.500930 0.147930 -0.216386
C22   C     C_R   0.400678 0.456934 0.073439 0.061402
H15   H     H_    0.319487 0.423467 0.127912 0.188512
C23   C     C_R   0.400573 0.457155 0.924777 -0.005011
H16   H     H_    0.319282 0.423885 0.868988 0.175064
N2    N     N_R   0.500800 0.500890 0.852020 -0.213103
C24   C     C_R   0.604849 0.531663 0.926967 0.264871
C25   C     C_3   0.670071 0.652398 0.923767 -0.503325
C26   C     C_3   0.669465 0.653608 0.082367 -0.471971
H17   H     H_    0.764840 0.645862 0.878837 0.207191
H18   H     H_    0.610370 0.723408 0.878385 0.214301
H19   H     H_    0.764039 0.646841 0.127740 0.228222
H20   H     H_    0.610833 0.727422 0.128615 0.212220
N3    N     N_R   0.873465 0.353285 0.287058 0.141320
O9    O     O_R   0.803994 0.256041 0.268501 -0.333499
O10   O     O_R   0.896050 0.423325 0.180838 -0.342516
N4    N     N_R   0.127112 0.654570 0.302841 0.135123
O11   O     O_R   0.195846 0.752987 0.294298 -0.349969
O12   O     O_R   0.105600 0.589407 0.189870 -0.345597
N5    N     N_R   0.459225 0.116333 0.233616 0.163611
O13   O     O_R   0.531780 0.086761 0.129497 -0.323325
O14   O     O_R   0.358016 0.177132 0.209253 -0.326907
Cl1   Cl    Cl    0.362294 0.136178 0.849903 -0.524403

loop_
_geom_bond_atom_site_label_1
_geom_bond_atom_site_label_2
_geom_bond_distance
_ccdc_geom_bond_type
C5    C6    1.534432 S    
N4    O12   1.300915 A    
C11   H10   1.106288 S    
O6    C3    1.289728 A    
C6    C10   1.557981 S    
C5    H2    1.113835 S    
N4    O11   1.301254 A    
N2    C24   1.364590 A    
H6    C11   1.113740 S    
O4    Cu2   1.971710 S    
C22   H15   1.080475 S    
C21   C24   1.408310 A    
C8    H8    1.113763 S    
Cu2   O8    1.971461 S    
C13   C20   1.486251 S    
C12   N3    1.469915 S    
C23   N2    1.369228 A    
C10   C12   1.566945 S    
C13   C14   1.385828 A    
Cu1   N2    2.017445 S    
N3    O9    1.301281 A    
C22   C23   1.419179 A    
C21   N1    1.362504 A    
C24   C25   1.486588 S    
Cu1   O7    1.971712 S    
C3    C17   1.445801 S    
C13   C18   1.348022 A    
C16   H11   1.083285 S    
O3    Cu1   1.971462 S    
O4    C2    1.293353 A    
C7    C11   1.546982 S    
C19   H12   1.111781 S    
C10   C11   1.554310 S    
C20   H14   1.111675 S    
C8    H7    1.109257 S    
C21   C26   1.488739 S    
C14   C15   1.425135 A    
C20   Cl1   1.784909 S    
C6    H4    1.111111 S    
C25   H17   1.108177 S    
H5    C7    1.115642 S    
C12   H9    1.115579 S    
O7    C4    1.293425 A    
Cu2   N1    2.018255 S    
C5    C9    1.558250 S    
C2    C9    1.481659 S    
N3    O10   1.300854 A    
N5    O13   1.301609 A    
C15   N5    1.431954 S    
C8    C12   1.548724 S    
O3    C2    1.292212 A    
C16   C17   1.411556 A    
Cu1   Cu2   2.685706 S    
C7    C9    1.565585 S    
C17   C18   1.385673 A    
C8    C9    1.555186 S    
Cu2   O6    1.972076 S    
C23   H16   1.080593 S    
C26   H20   1.111355 S    
C25   H18   1.103002 S    
C18   C19   1.490682 S    
Cu1   O5    1.978992 S    
C6    H3    1.113577 S    
O5    C3    1.296189 A    
N1    C22   1.369316 A    
C19   C20   1.537595 S    
O2    C1    1.289116 A    
C7    N4    1.470044 S    
C1    C14   1.449370 S    
C4    C10   1.484582 S    
O1    Cu1   1.972076 S    
N5    O14   1.301209 A    
C26   H19   1.108734 S    
C19   H13   1.109036 S    
O2    Cu2   1.978990 S    
C5    H1    1.113786 S    
C25   C26   1.513869 S    
O8    C4    1.293603 A    
O1    C1    1.297940 A    
C15   C16   1.406583 A    
