data_mof_unit_12538.cif
_audit_creation_date              2013-03-05T16:47:30-0500
_audit_creation_method            fapswitch 2.2
_symmetry_space_group_name_H-M    P1
_symmetry_Int_Tables_number       1
_space_group_crystal_system       triclinic
_cell_length_a                    10.912742
_cell_length_b                    10.911196
_cell_length_c                    9.810454
_cell_angle_alpha                 98.624039
_cell_angle_beta                  98.823399
_cell_angle_gamma                 92.887382
_cell_volume                      1138.04294258

loop_
_atom_site_label
_atom_site_type_symbol
_atom_site_description
_atom_site_fract_x
_atom_site_fract_y
_atom_site_fract_z
_atom_type_partial_charge
O1    O     O_R   0.517830 0.337490 0.617920 -0.569850
O2    O     O_R   0.482170 0.662510 0.382080 -0.569899
O3    O     O_R   0.482150 0.301790 0.382070 -0.577546
O4    O     O_R   0.517850 0.698210 0.617930 -0.577534
C1    C     C_R   0.500741 0.262001 0.499407 0.816404
C2    C     C_R   0.499246 0.737997 0.500592 0.816387
O5    O     O_R   0.337480 0.517860 0.617920 -0.597436
O6    O     O_R   0.662520 0.482140 0.382080 -0.597415
O7    O     O_R   0.301810 0.482160 0.382070 -0.571381
O8    O     O_R   0.698190 0.517840 0.617930 -0.571369
C3    C     C_R   0.261968 0.500313 0.499269 0.807614
C4    C     C_R   0.738033 0.499694 0.500731 0.807619
Cu1   Cu    Cu3+1 0.521120 0.521140 0.639640 0.969056
Cu2   Cu    Cu3+1 0.478880 0.478860 0.360360 0.969036
H1    H     H_    0.168656 0.362538 0.860798 0.162509
H2    H     H_    0.831327 0.637476 0.139175 0.162477
C5    C     C_R   0.166070 0.509689 0.032800 -0.220198
C6    C     C_R   0.833918 0.490334 0.967169 -0.220174
H3    H     H_    0.209611 0.577803 0.982269 0.163968
H4    H     H_    0.790376 0.422219 0.017684 0.163965
C7    C     C_R   0.131119 0.544441 0.164762 0.446790
C8    C     C_R   0.868883 0.455589 0.835219 0.446842
C9    C     C_R   0.076334 0.451273 0.228565 0.000557
C10   C     C_R   0.923670 0.548755 0.771428 0.000531
C11   C     C_R   0.052564 0.329198 0.155879 -0.221555
C12   C     C_R   0.947433 0.670823 0.844117 -0.221503
H5    H     H_    0.008687 0.257860 0.201966 0.152425
H6    H     H_    0.991308 0.742161 0.798036 0.152434
C13   C     C_R   0.084348 0.298123 0.023483 -0.070036
C14   C     C_R   0.915642 0.701890 0.976508 -0.070035
H7    H     H_    0.062451 0.204674 0.967192 0.157396
H8    H     H_    0.937535 0.795335 0.032803 0.157401
C15   C     C_R   0.142870 0.387528 0.963000 -0.221460
C16   C     C_R   0.857116 0.612488 0.036978 -0.221562
C17   C     C_R   0.914941 0.475604 0.375888 -0.220661
C18   C     C_R   0.085062 0.524425 0.624110 -0.220609
H9    H     H_    0.849561 0.456284 0.278972 0.146880
H10   H     H_    0.150443 0.543747 0.721027 0.146862
C19   C     C_R   0.872249 0.499029 0.503648 -0.052513
C20   C     C_R   0.127754 0.500992 0.496351 -0.052440
C21   C     C_R   0.958827 0.522684 0.630174 0.087043
C22   C     C_R   0.041176 0.477343 0.369823 0.087068
H11   H     H_    0.379839 0.171742 0.859952 0.124561
H12   H     H_    0.620048 0.828110 0.139990 0.124534
C23   C     C_R   0.306670 0.085741 0.016749 -0.144264
C24   C     C_R   0.693236 0.914189 0.983259 -0.144297
H13   H     H_    0.215094 0.064154 0.955088 0.130134
H14   H     H_    0.784804 0.935778 0.044948 0.130126
C25   C     C_R   0.331478 0.053217 0.150115 -0.122543
C26   C     C_R   0.668446 0.946769 0.849915 -0.122632
H15   H     H_    0.257590 0.008938 0.191879 0.173386
H16   H     H_    0.742339 0.991100 0.808203 0.173371
C27   C     C_R   0.451319 0.077464 0.228902 0.116190
C28   C     C_R   0.548612 0.922520 0.771095 0.116211
C29   C     C_R   0.546428 0.132858 0.171451 -0.053230
C30   C     C_R   0.453485 0.867087 0.828496 -0.053230
H17   H     H_    0.639880 0.150321 0.229935 0.121328
H18   H     H_    0.360035 0.849622 0.769982 0.121316
C31   C     C_R   0.520302 0.168057 0.039328 -0.117580
C32   C     C_R   0.479592 0.831845 0.960601 -0.117469
H19   H     H_    0.593125 0.212776 0.996482 0.157036
H20   H     H_    0.406754 0.787095 0.003404 0.157051
C33   C     C_R   0.400300 0.144905 0.962292 -0.159141
C34   C     C_R   0.599596 0.854987 0.037666 -0.159132
C35   C     C_R   0.474921 0.915408 0.375855 -0.184742
C36   C     C_R   0.525031 0.084587 0.624147 -0.184746
H21   H     H_    0.455623 0.850370 0.278996 0.184519
H22   H     H_    0.544315 0.149623 0.721009 0.184492
C37   C     C_R   0.498215 0.872219 0.503566 -0.081834
C38   C     C_R   0.501751 0.127778 0.496434 -0.081830
C39   C     C_R   0.522779 0.958350 0.630177 -0.014278
C40   C     C_R   0.477175 0.041644 0.369822 -0.014293
H23   H     H_    0.418596 0.418934 0.865061 0.154032
H24   H     H_    0.581396 0.581071 0.134939 0.154028
N1    N     N_2   0.447120 0.447110 0.150550 -0.280967
N2    N     N_2   0.552880 0.552890 0.849450 -0.280958
C41   C     C_2   0.510539 0.510399 0.078959 -0.082929
C42   C     C_2   0.489456 0.489604 0.921041 -0.082919
H25   H     H_    0.619346 0.619383 0.904817 0.222165
H26   H     H_    0.380650 0.380620 0.095184 0.222154
N3    N     N_R   0.151575 0.672866 0.230697 0.104858
O9    O     O_R   0.087886 0.717798 0.325917 -0.399512
O10   O     O_R   0.224879 0.749301 0.184928 -0.435231
N4    N     N_R   0.848437 0.327173 0.769271 0.104857
O11   O     O_R   0.912266 0.282219 0.674223 -0.399535
O12   O     O_R   0.775018 0.250756 0.814908 -0.435149

loop_
_geom_bond_atom_site_label_1
_geom_bond_atom_site_label_2
_geom_bond_distance
_ccdc_geom_bond_type
C2    C37   1.461075 S    
C36   H22   1.082688 S    
C29   C31   1.398519 A    
N2    H25   1.027352 S    
N3    O9    1.300854 A    
H11   C33   1.081487 S    
C19   C21   1.421137 A    
C41   C42   1.511477 S    
H12   C34   1.081513 S    
O5    C3    1.301401 A    
C26   C28   1.404150 A    
C9    C22   1.484742 S    
O1    C1    1.302230 A    
C17   H9    1.083570 S    
C10   C12   1.404771 A    
C25   C27   1.404086 A    
C13   C15   1.392357 A    
C32   H20   1.082285 S    
O4    Cu1   1.976728 S    
C37   C39   1.421380 A    
C17   C22   1.387245 A    
H2    C16   1.082149 S    
C28   C39   1.482279 S    
C35   H21   1.082684 S    
H24   C41   1.084793 S    
C26   H16   1.083037 S    
H23   C42   1.084802 S    
N1    H26   1.027351 S    
C23   H13   1.080833 S    
Cu1   Cu2   2.672866 S    
C10   C21   1.484700 S    
C18   C21   1.387242 A    
O2    C2    1.302225 A    
C5    C15   1.395986 A    
N3    O10   1.300906 A    
C24   H14   1.080873 S    
C27   C29   1.406646 A    
C7    C9    1.423757 A    
C11   C13   1.392949 A    
C28   C30   1.406707 A    
C31   H19   1.082223 S    
C14   C16   1.392275 A    
C18   C20   1.395850 A    
N4    O11   1.300685 A    
O4    C2    1.281347 A    
C25   H15   1.083007 S    
C23   C33   1.396632 A    
C5    C7    1.408573 A    
C30   C32   1.398532 A    
C24   C34   1.396645 A    
C8    N4    1.443607 S    
C17   C19   1.395853 A    
O7    Cu2   1.977748 S    
C1    C38   1.461084 S    
N1    C41   1.302133 D    
C36   C39   1.386651 A    
Cu1   N2    2.008000 S    
C23   C25   1.396908 A    
O6    C4    1.301403 A    
O7    C3    1.282183 A    
O3    Cu2   1.976728 S    
O8    C4    1.282184 A    
C7    N3    1.443663 S    
C12   C14   1.392924 A    
C29   H17   1.083351 S    
C8    C10   1.423669 A    
O1    Cu1   1.981017 S    
O6    Cu2   1.980466 S    
C6    C8    1.408523 A    
C12   H6    1.083458 S    
N2    C42   1.302139 D    
O3    C1    1.281347 A    
O8    Cu1   1.977748 S    
C11   H5    1.083503 S    
C35   C40   1.386649 A    
C24   C26   1.396936 A    
C31   C33   1.398468 A    
C32   C34   1.398584 A    
Cu2   N1    2.008000 S    
C4    C19   1.460955 S    
C18   H10   1.083574 S    
C13   H7    1.080671 S    
C14   H8    1.080631 S    
C36   C38   1.395678 A    
C6    C16   1.395947 A    
C35   C37   1.395662 A    
C20   C22   1.421144 A    
C5    H3    1.082153 S    
C30   H18   1.083450 S    
C6    H4    1.082068 S    
C9    C11   1.404831 A    
C3    C20   1.460946 S    
O2    Cu2   1.981017 S    
O5    Cu1   1.980467 S    
N4    O12   1.300881 A    
C38   C40   1.421397 A    
C27   C40   1.482279 S    
H1    C15   1.082183 S    
