data_mof_unit_66588.cif
_audit_creation_date              2012-10-26T19:56:18-0400
_audit_creation_method            fapswitch 2.2
_symmetry_space_group_name_H-M    P1
_symmetry_Int_Tables_number       1
_space_group_crystal_system       triclinic
_cell_length_a                    10.863585
_cell_length_b                    10.652137
_cell_length_c                    9.427068
_cell_angle_alpha                 89.463685
_cell_angle_beta                  90.651578
_cell_angle_gamma                 87.38639
_cell_volume                      1089.64548475

loop_
_atom_site_label
_atom_site_type_symbol
_atom_type_description
_atom_site_fract_x
_atom_site_fract_y
_atom_site_fract_z
_atom_type_partial_charge
C1    C     C_R   0.503858 0.259733 0.500420 0.592884
C2    C     C_3   0.386401 0.050679 0.497445 0.223572
C3    C     C_3   0.495371 0.876507 0.499058 0.044168
C4    C     C_3   0.504627 0.123506 0.500960 0.044472
C5    C     C_3   0.440893 0.963223 0.613826 0.062047
C6    C     C_3   0.559098 0.036796 0.386188 0.061716
C7    C     C_3   0.455517 0.606968 0.049346 -0.046365
C8    C     C_3   0.544483 0.393031 0.950654 -0.046443
C9    C     C_3   0.388856 0.518603 0.947455 0.014179
C10   C     C_3   0.611145 0.481395 0.052545 0.014300
C11   C     C_3   0.565246 0.586216 0.951255 0.341467
C12   C     C_R   0.496141 0.740272 0.499583 0.592780
C13   C     C_3   0.434755 0.413783 0.048748 0.341507
C14   C     C_R   0.262483 0.502926 0.499082 0.581471
C15   C     C_R   0.737517 0.497032 0.500913 0.581401
C16   C     C_R   0.156763 0.880834 0.240401 -0.093970
C17   C     C_R   0.843116 0.119083 0.759588 -0.093753
C18   C     C_R   0.129780 0.789134 0.340943 0.082498
C19   C     C_R   0.870117 0.210770 0.659029 0.082730
C20   C     C_R   0.113294 0.664057 0.297781 0.038400
C21   C     C_R   0.886699 0.335837 0.702185 0.038207
C22   C     C_R   0.127191 0.632697 0.152313 0.271020
C23   C     C_R   0.871499 0.497695 0.501975 0.018154
C24   C     C_R   0.872846 0.367207 0.847661 0.271072
C25   C     C_R   0.153463 0.726994 0.054156 -0.073174
C26   C     C_R   0.846523 0.272928 0.945828 -0.073169
C27   C     C_R   0.168697 0.849965 0.097835 -0.196223
C28   C     C_R   0.831234 0.149957 0.902164 -0.196427
C29   C     C_R   0.928659 0.573234 0.401473 0.071364
C30   C     C_R   0.071345 0.426642 0.598463 0.071307
C31   C     C_R   0.128504 0.502200 0.497985 0.018132
C32   C     C_R   0.942551 0.424279 0.601143 -0.072607
C33   C     C_R   0.057450 0.575597 0.398802 -0.072513
C34   C     C_3   0.560315 0.035927 0.620143 -0.120672
C35   C     C_3   0.439669 0.964093 0.379879 -0.121385
C36   C     C_3   0.613601 0.949346 0.502586 0.223649
Cu1   Cu    Cu3+1 0.500030 0.499990 0.643150 1.016159
Cu2   Cu    Cu3+1 0.499970 0.500010 0.356850 1.016244
H1    H     H_    0.188733 0.921865 0.020644 0.132113
H2    H     H_    0.839183 0.294708 0.057396 0.129674
H3    H     H_    0.604976 0.066046 0.719545 0.127929
H4    H     H_    0.394963 0.933986 0.280495 0.127971
H5    H     H_    0.582508 0.752507 0.876191 0.337559
H6    H     H_    0.417374 0.247366 0.123427 0.337395
H7    H     H_    0.022924 0.810721 0.514537 0.258802
H8    H     H_    0.172420 0.768537 0.548994 0.216620
H9    H     H_    0.976876 0.189117 0.485367 0.258623
H10   H     H_    0.827395 0.231408 0.451006 0.216510
H11   H     H_    0.104368 0.453493 0.180756 0.353495
H12   H     H_    0.811182 0.078071 0.979375 0.132083
H13   H     H_    0.895887 0.546385 0.819239 0.353438
H14   H     H_    0.875063 0.625437 0.200967 0.269037
H15   H     H_    0.874175 0.745088 0.319280 0.255628
H16   H     H_    0.125147 0.374764 0.799001 0.268955
H17   H     H_    0.125565 0.254797 0.680998 0.255909
H18   H     H_    0.787552 0.954175 0.470345 0.339573
H19   H     H_    0.212249 0.045306 0.527980 0.339585
H20   H     H_    0.345276 0.002079 0.793146 0.243518
H21   H     H_    0.297928 0.876830 0.704852 0.225208
H22   H     H_    0.654725 0.997958 0.206866 0.243232
H23   H     H_    0.295874 0.529618 0.898207 0.153565
H24   H     H_    0.701964 0.123297 0.295069 0.225040
H25   H     H_    0.704132 0.470366 0.101778 0.153644
H26   H     H_    0.420929 0.697214 0.095340 0.111540
H27   H     H_    0.579070 0.302785 0.904657 0.111504
H28   H     H_    0.166398 0.977215 0.272425 0.173093
H29   H     H_    0.833417 0.022711 0.727552 0.173932
H30   H     H_    0.160822 0.705225 0.942592 0.129644
N1    N     N_3   0.500090 0.499970 0.858290 -0.256092
N2    N     N_3   0.499910 0.500030 0.141710 -0.255983
N3    N     N_3   0.113608 0.826052 0.485471 -0.666986
N4    N     N_3   0.886195 0.173842 0.514490 -0.666430
N5    N     N_3   0.854275 0.651010 0.305019 -0.564154
N6    N     N_3   0.145726 0.348890 0.694946 -0.563775
N7    N     N_3   0.376150 0.921660 0.739075 -0.638483
N8    N     N_3   0.623790 0.078368 0.260902 -0.638598
O1    O     O_R   0.500060 0.316850 0.620870 -0.510314
O2    O     O_3   0.361223 0.321953 0.105754 -0.644213
O3    O     O_3   0.111348 0.513450 0.100804 -0.668729
O4    O     O_3   0.888752 0.486447 0.899168 -0.668689
O5    O     O_3   0.731161 0.890089 0.503631 -0.695564
O6    O     O_3   0.268871 0.109987 0.496574 -0.695276
O7    O     O_R   0.499940 0.683150 0.379130 -0.510321
O8    O     O_R   0.500000 0.316860 0.379090 -0.471313
O9    O     O_R   0.500000 0.683140 0.620910 -0.471490
O10   O     O_R   0.319670 0.500010 0.620890 -0.493434
O11   O     O_R   0.680330 0.499990 0.379110 -0.493376
O12   O     O_R   0.319620 0.500010 0.379110 -0.472811
O13   O     O_R   0.680380 0.499990 0.620890 -0.472771
O14   O     O_3   0.638764 0.678068 0.894272 -0.644216

loop_
_geom_bond_atom_site_label_1
_geom_bond_atom_site_label_2
_ccdc_geom_bond_type
C2    C35   S    
Cu2   N2    S    
C8    C13   S    
Cu1   N1    S    
Cu2   O7    S    
H7    N3    S    
C1    O1    A    
C10   H25   S    
C14   C31   S    
C7    N2    S    
H18   O5    S    
C1    O8    A    
C7    C11   S    
C34   H3    S    
C8    N1    S    
C12   O9    A    
C9    H23   S    
C23   C29   A    
Cu1   O9    S    
C19   C21   A    
C9    N1    S    
C22   O3    S    
C30   C31   A    
C30   N6    S    
C29   N5    S    
C13   N2    S    
C29   C33   A    
C6    C35   S    
C35   H4    S    
C9    C13   S    
H13   O4    S    
C3    C12   S    
H16   N6    S    
H17   N6    S    
C28   H12   S    
C24   O4    S    
C27   H1    S    
C22   C25   A    
C31   C33   A    
C18   C20   A    
C16   C27   A    
C15   C23   S    
C8    H27   S    
H24   N8    S    
C19   N4    S    
C25   H30   S    
H10   N4    S    
H20   N7    S    
H9    N4    S    
C21   C32   S    
C4    C34   S    
C17   H29   S    
H5    O14   S    
Cu1   O10   S    
C14   O10   A    
C4    C6    S    
H14   N5    S    
Cu1   O1    S    
H22   N8    S    
H11   O3    S    
C12   O7    A    
Cu2   O12   S    
C5    N7    S    
C2    C4    S    
Cu1   Cu2   S    
C15   O13   A    
C3    C35   S    
C36   O5    S    
C5    C34   S    
H8    N3    S    
C20   C33   S    
C10   N2    S    
C16   C18   A    
C20   C22   A    
C2    O6    S    
C2    C5    S    
C16   H28   S    
H21   N7    S    
C15   O11   A    
C18   N3    S    
C7    C9    S    
C13   O2    S    
Cu2   O8    S    
C17   C28   A    
H15   N5    S    
C24   C26   A    
C3    C5    S    
C11   N1    S    
C6    N8    S    
C25   C27   A    
C26   C28   A    
Cu1   O13   S    
Cu2   O11   S    
C1    C4    S    
C23   C32   A    
H6    O2    S    
C14   O12   A    
C30   C32   A    
C11   O14   S    
C26   H2    S    
C3    C36   S    
C17   C19   A    
C6    C36   S    
C34   C36   S    
C7    H26   S    
C10   C11   S    
C8    C10   S    
C21   C24   A    
H19   O6    S    
