data_mof_unit_24638.cif
_audit_creation_date              2013-03-05T15:39:43-0500
_audit_creation_method            fapswitch 2.2
_symmetry_space_group_name_H-M    P1
_symmetry_Int_Tables_number       1
_space_group_crystal_system       triclinic
_cell_length_a                    19.569647
_cell_length_b                    17.20689
_cell_length_c                    15.384777
_cell_angle_alpha                 90.001657
_cell_angle_beta                  52.635522
_cell_angle_gamma                 89.999212
_cell_volume                      4117.46137888

loop_
_atom_site_label
_atom_site_type_symbol
_atom_site_description
_atom_site_fract_x
_atom_site_fract_y
_atom_site_fract_z
_atom_type_partial_charge
C1    C     C_R   0.339223 0.175837 0.047509 -0.088319
C2    C     C_R   0.624818 0.802545 0.007031 -0.110186
C3    C     C_R   0.660778 0.175831 0.952482 -0.088335
C4    C     C_R   0.375204 0.802541 0.992954 -0.110292
C5    C     C_R   0.839217 0.675828 0.047532 -0.088280
C6    C     C_R   0.124805 0.302541 0.007047 -0.110446
C7    C     C_R   0.160776 0.675833 0.952491 -0.088373
C8    C     C_R   0.875180 0.302547 0.992972 -0.110228
H1    H     H_    0.331263 0.225712 0.094740 0.163296
H2    H     H_    0.618539 0.749220 0.976201 0.174637
H3    H     H_    0.668738 0.225692 0.905232 0.163385
H4    H     H_    0.381513 0.749226 0.023768 0.174733
H5    H     H_    0.831254 0.725688 0.094788 0.163400
H6    H     H_    0.118518 0.249217 0.976218 0.174726
H7    H     H_    0.168738 0.725705 0.905257 0.163350
H8    H     H_    0.881457 0.249224 0.023806 0.174651
N1    N     N_R   0.408680 0.130810 0.995780 -0.058100
N2    N     N_R   0.591320 0.869190 0.004220 -0.054464
N3    N     N_R   0.591320 0.130810 0.004220 -0.058096
N4    N     N_R   0.408680 0.869190 0.995780 -0.054470
N5    N     N_R   0.908680 0.630810 0.995780 -0.058079
N6    N     N_R   0.091320 0.369190 0.004220 -0.054472
N7    N     N_R   0.091320 0.630810 0.004220 -0.058113
N8    N     N_R   0.908680 0.369190 0.995780 -0.054482
C9    C     C_R   0.351776 0.823538 0.220124 -0.145029
C10   C     C_R   0.602372 0.199577 0.791414 -0.143291
C11   C     C_R   0.648181 0.823486 0.779874 -0.145037
C12   C     C_R   0.397448 0.199543 0.208691 -0.143317
C13   C     C_R   0.851830 0.323479 0.220125 -0.144975
C14   C     C_R   0.102481 0.699552 0.791354 -0.143195
C15   C     C_R   0.148412 0.323735 0.779852 -0.145043
C16   C     C_R   0.897637 0.699580 0.208586 -0.143304
H9    H     H_    0.334279 0.772453 0.197029 0.141920
H10   H     H_    0.606774 0.254918 0.820945 0.138986
H11   H     H_    0.665659 0.772395 0.802981 0.141849
H12   H     H_    0.393071 0.254892 0.179157 0.138919
H13   H     H_    0.834358 0.272385 0.197015 0.141840
H14   H     H_    0.106877 0.754899 0.820880 0.138951
H15   H     H_    0.166007 0.272685 0.802884 0.141943
H16   H     H_    0.893235 0.754921 0.179057 0.138988
N9    N     N_R   0.421410 0.867210 0.153620 -0.059525
N10   N     N_R   0.578590 0.132790 0.846380 -0.065678
N11   N     N_R   0.578590 0.867210 0.846380 -0.059556
N12   N     N_R   0.421410 0.132790 0.153620 -0.065640
N13   N     N_R   0.921410 0.367210 0.153620 -0.059540
N14   N     N_R   0.078590 0.632790 0.846380 -0.065701
N15   N     N_R   0.078590 0.367210 0.846380 -0.059435
N16   N     N_R   0.921410 0.632790 0.153620 -0.065685
C17   C     C_R   0.370398 0.888168 0.890780 -0.033366
C18   C     C_R   0.672756 0.084552 0.044344 -0.004301
C19   C     C_R   0.629613 0.888182 0.109212 -0.033381
C20   C     C_R   0.327243 0.084548 0.955658 -0.004339
C21   C     C_R   0.870386 0.388179 0.890790 -0.033148
C22   C     C_R   0.172755 0.584547 0.044345 -0.004314
C23   C     C_R   0.129607 0.388179 0.109217 -0.033377
C24   C     C_R   0.827238 0.584547 0.955669 -0.004086
H17   H     H_    0.372528 0.914431 0.825433 0.188575
H18   H     H_    0.694835 0.046325 0.078213 0.171674
H19   H     H_    0.627476 0.914451 0.174562 0.188538
H20   H     H_    0.305165 0.046315 0.921793 0.171707
H21   H     H_    0.872521 0.414443 0.825440 0.188635
H22   H     H_    0.194838 0.546317 0.078207 0.171686
H23   H     H_    0.127474 0.414449 0.174565 0.188606
H24   H     H_    0.805158 0.546318 0.921803 0.171670
N17   N     N_R   0.403840 0.921910 0.935760 -0.067111
N18   N     N_R   0.596160 0.078090 0.064240 -0.058271
N19   N     N_R   0.596160 0.921910 0.064240 -0.067127
N20   N     N_R   0.403840 0.078090 0.935760 -0.058291
N21   N     N_R   0.903840 0.421910 0.935760 -0.067133
N22   N     N_R   0.096160 0.578090 0.064240 -0.058301
N23   N     N_R   0.096160 0.421910 0.064240 -0.067127
N24   N     N_R   0.903840 0.578090 0.935760 -0.058184
C25   C     C_R   0.418238 0.112459 0.296349 0.391485
C26   C     C_R   0.642106 0.914643 0.681280 0.332987
C27   C     C_R   0.581623 0.112465 0.703751 0.391917
C28   C     C_R   0.357899 0.914667 0.318716 0.332873
C29   C     C_R   0.918387 0.612467 0.296243 0.391893
C30   C     C_R   0.142144 0.414793 0.681308 0.332371
C31   C     C_R   0.081733 0.612441 0.703662 0.391056
C32   C     C_R   0.857901 0.414639 0.318723 0.333031
N25   N     N_R   0.426250 0.076100 0.213650 -0.083172
N26   N     N_R   0.573750 0.923900 0.786350 -0.074542
N27   N     N_R   0.573750 0.076100 0.786350 -0.083201
N28   N     N_R   0.426250 0.923900 0.213650 -0.074525
N29   N     N_R   0.926250 0.576100 0.213650 -0.083210
N30   N     N_R   0.073750 0.423900 0.786350 -0.074428
N31   N     N_R   0.073750 0.576100 0.786350 -0.083399
N32   N     N_R   0.926250 0.423900 0.213650 -0.074543
C33   C     C_R   0.283808 0.146636 0.027439 -0.014268
C34   C     C_R   0.647705 0.811372 0.075747 -0.011917
C35   C     C_R   0.716191 0.146635 0.972559 -0.014289
C36   C     C_R   0.352318 0.811354 0.924240 -0.011949
C37   C     C_R   0.783802 0.646632 0.027459 -0.014369
C38   C     C_R   0.147693 0.311367 0.075759 -0.011909
C39   C     C_R   0.216185 0.646633 0.972570 -0.014226
C40   C     C_R   0.852292 0.311371 0.924258 -0.012009
C41   C     C_R   0.310426 0.853261 0.323410 -0.056513
C42   C     C_R   0.604097 0.187667 0.702412 -0.057705
C43   C     C_R   0.689528 0.853188 0.676584 -0.056451
C44   C     C_R   0.395577 0.187612 0.297801 -0.057471
C45   C     C_R   0.810487 0.353179 0.323419 -0.056503
C46   C     C_R   0.104305 0.687612 0.702286 -0.057432
C47   C     C_R   0.189809 0.353543 0.676579 -0.056928
C48   C     C_R   0.895923 0.687672 0.297580 -0.057682
Ni1   Ni    Ni4+2 0.500000 0.131570 0.000000 0.220848
Ni2   Ni    Ni4+2 0.500000 0.868430 0.000000 0.252980
Ni3   Ni    Ni4+2 0.000000 0.631570 0.000000 0.220804
Ni4   Ni    Ni4+2 0.000000 0.368430 0.000000 0.253030
Ni5   Ni    Ni4+2 0.488900 0.000000 0.862310 0.282984
Ni6   Ni    Ni4+2 0.511100 0.000000 0.137690 0.283027
Ni7   Ni    Ni4+2 0.988900 0.500000 0.862310 0.283110
Ni8   Ni    Ni4+2 0.011100 0.500000 0.137690 0.282969
C49   C     C_3   0.274713 0.202381 0.500341 -0.120479
C50   C     C_3   0.834879 0.847366 0.471135 -0.143033
C51   C     C_3   0.725942 0.202583 0.500487 -0.120927
C52   C     C_3   0.165318 0.847444 0.529034 -0.142929
C53   C     C_3   0.774088 0.702590 0.499507 -0.120954
C54   C     C_3   0.334253 0.347868 0.470423 -0.142443
C55   C     C_3   0.225883 0.702515 0.500220 -0.121166
C56   C     C_3   0.665136 0.347356 0.528867 -0.143098
C57   C     C_3   0.725060 0.776698 0.513598 -0.082221
C58   C     C_3   0.385380 0.273134 0.454186 -0.120180
C59   C     C_3   0.275124 0.776487 0.486045 -0.082282
C60   C     C_3   0.615035 0.271982 0.544702 -0.119792
C61   C     C_3   0.224669 0.275862 0.514834 -0.083121
C62   C     C_3   0.884990 0.771994 0.455289 -0.119800
C63   C     C_3   0.774960 0.276694 0.486405 -0.082143
C64   C     C_3   0.114996 0.772211 0.544959 -0.119812
H25   H     H_    0.658411 0.778373 0.539172 0.183465
H26   H     H_    0.452668 0.271190 0.426223 0.160201
H27   H     H_    0.341854 0.777998 0.460216 0.183315
H28   H     H_    0.548060 0.269255 0.571685 0.160963
H29   H     H_    0.157710 0.276746 0.541381 0.183034
H30   H     H_    0.951967 0.769268 0.428301 0.160945
H31   H     H_    0.841607 0.278374 0.460835 0.183495
H32   H     H_    0.047939 0.769654 0.572202 0.160861
H33   H     H_    0.250582 0.142009 0.511271 0.178664
H34   H     H_    0.858485 0.907640 0.462484 0.167039
H35   H     H_    0.750598 0.142513 0.490203 0.178084
H36   H     H_    0.141796 0.907779 0.537871 0.167138
H37   H     H_    0.749436 0.642519 0.509788 0.178088
H38   H     H_    0.357377 0.408438 0.461095 0.167275
H39   H     H_    0.250422 0.642374 0.489773 0.177609
H40   H     H_    0.641524 0.407629 0.537522 0.167034
C65   C     C_3   0.755068 0.812568 0.576422 0.125450
C66   C     C_3   0.353547 0.237034 0.393515 0.129259
C67   C     C_3   0.244938 0.812614 0.423555 0.125562
C68   C     C_3   0.646263 0.237013 0.606634 0.129137
C69   C     C_3   0.255263 0.312859 0.576412 0.125728
C70   C     C_3   0.853760 0.737020 0.393359 0.129158
C71   C     C_3   0.744953 0.312559 0.423580 0.125430
C72   C     C_3   0.146408 0.736982 0.606550 0.129216
C73   C     C_3   0.305083 0.239385 0.562762 -0.100691
C74   C     C_3   0.804963 0.811064 0.407340 -0.070111
C75   C     C_3   0.696162 0.238448 0.436834 -0.100400
C76   C     C_3   0.195417 0.810887 0.592489 -0.070100
C77   C     C_3   0.803868 0.738459 0.563157 -0.100424
C78   C     C_3   0.303730 0.310446 0.407904 -0.070060
C79   C     C_3   0.195924 0.738644 0.436898 -0.100511
C80   C     C_3   0.695050 0.311059 0.592665 -0.070113
H41   H     H_    0.304573 0.211106 0.628017 0.164773
H42   H     H_    0.805796 0.840700 0.342618 0.181084
H43   H     H_    0.697672 0.209498 0.371211 0.165220
H44   H     H_    0.194836 0.840372 0.657112 0.181303
H45   H     H_    0.802365 0.709512 0.628776 0.165232
H46   H     H_    0.303504 0.339453 0.343616 0.181994
H47   H     H_    0.197189 0.709857 0.371364 0.165105
H48   H     H_    0.694211 0.340697 0.657392 0.181089
C81   C     C_2   0.300647 0.679132 0.933054 0.185136
C82   C     C_2   0.825113 0.249742 0.883577 0.191990
C83   C     C_2   0.699331 0.679143 0.067005 0.185084
C84   C     C_2   0.174871 0.249738 0.116439 0.192052
C85   C     C_2   0.800661 0.179143 0.933013 0.185041
C86   C     C_2   0.325141 0.749714 0.883569 0.191947
C87   C     C_2   0.199333 0.179141 0.066991 0.185001
C88   C     C_2   0.674880 0.749747 0.116434 0.191973
Br1   Br    Br    0.490746 0.089251 0.338273 -0.469177
Br2   Br    Br    0.665170 0.964050 0.554555 -0.513928
Br3   Br    Br    0.509131 0.089058 0.661863 -0.469438
Br4   Br    Br    0.335076 0.963884 0.445415 -0.514035
Br5   Br    Br    0.990878 0.589045 0.338127 -0.469306
Br6   Br    Br    0.164141 0.463392 0.554655 -0.512525
Br7   Br    Br    0.009009 0.589320 0.662039 -0.469306
Br8   Br    Br    0.834818 0.464068 0.445450 -0.513883
N33   N     N_R   0.352467 0.638929 0.956262 0.225234
O1    O     O_R   0.318013 0.607743 0.051554 -0.395417
O2    O     O_R   0.435605 0.636586 0.882696 -0.367290
N34   N     N_R   0.815939 0.267885 0.799596 0.227701
O3    O     O_R   0.784862 0.334382 0.798410 -0.401733
O4    O     O_R   0.834327 0.215577 0.727161 -0.374086
N35   N     N_R   0.647433 0.638924 0.043931 0.225297
O5    O     O_R   0.681823 0.607575 0.948743 -0.395288
O6    O     O_R   0.564294 0.636739 0.117497 -0.367451
N36   N     N_R   0.184040 0.267879 0.200426 0.227667
O7    O     O_R   0.215093 0.334381 0.201637 -0.401960
O8    O     O_R   0.165675 0.215564 0.272838 -0.374068
N37   N     N_R   0.852559 0.138923 0.956084 0.225318
O9    O     O_R   0.818170 0.107571 0.051268 -0.395313
O10   O     O_R   0.935702 0.136744 0.882522 -0.367351
N38   N     N_R   0.315981 0.767837 0.799572 0.227673
O11   O     O_R   0.284945 0.834340 0.798331 -0.401821
O12   O     O_R   0.334343 0.715507 0.727175 -0.374249
N39   N     N_R   0.147438 0.138919 0.043916 0.225316
O13   O     O_R   0.181830 0.107561 0.948734 -0.395225
O14   O     O_R   0.064295 0.136737 0.117481 -0.367308
N40   N     N_R   0.684054 0.767898 0.200413 0.227666
O15   O     O_R   0.715131 0.834394 0.201593 -0.401763
O16   O     O_R   0.665669 0.715597 0.272849 -0.374181

loop_
_geom_bond_atom_site_label_1
_geom_bond_atom_site_label_2
_geom_bond_distance
_ccdc_geom_bond_type
C25   C44   1.362847 A    
N36   O8    1.301790 A    
N39   O13   1.300837 A    
C2    N2    1.334561 A    
C55   H39   1.110699 S    
C84   N36   1.442428 S    
C6    C38   1.384169 A    
C8    C40   1.384183 A    
N29   Ni8   1.866037 S    
C67   C79   1.530767 S    
C28   N28   1.342736 A    
C31   N31   1.338861 A    
C12   N12   1.332197 A    
N33   O1    1.300817 A    
C51   C63   1.530067 S    
C9    N9    1.332769 A    
N12   Ni1   1.881391 S    
C80   H48   1.110005 S    
N39   O14   1.301755 A    
C35   C85   1.481534 S    
C11   C43   1.371326 A    
C17   N17   1.339387 A    
N34   O4    1.301793 A    
C56   H40   1.110021 S    
C63   H31   1.110833 S    
C64   H32   1.109992 S    
C19   C34   1.384165 A    
C54   C58   1.553617 S    
C50   C62   1.553351 S    
C7    N7    1.329717 A    
N33   O2    1.301778 A    
N16   Ni3   1.881391 S    
N31   Ni7   1.866116 S    
C48   C70   1.448210 S    
C6    N6    1.334560 A    
C34   C88   1.484297 S    
C17   H17   1.079741 S    
C60   H28   1.109952 S    
N3    N18   1.338187 A    
C3    C35   1.389346 A    
C41   C67   1.452191 S    
C88   N40   1.442413 S    
N37   O10   1.301754 A    
C53   C57   1.530062 S    
N21   Ni7   1.889533 S    
C69   C73   1.531147 S    
C20   H20   1.078952 S    
C38   C84   1.484300 S    
C21   H21   1.079743 S    
C10   H10   1.080785 S    
C72   C76   1.527092 S    
C79   H47   1.110033 S    
N38   O11   1.301045 A    
C24   N24   1.340167 A    
C23   H23   1.079740 S    
C29   Br5   1.923465 S    
C81   C86   1.357021 D    
C16   C48   1.364531 A    
C31   C46   1.362821 A    
C3    N3    1.329707 A    
C53   C70   1.535720 S    
N8    Ni4   1.827278 S    
C71   C75   1.530751 S    
C4    H4    1.073610 S    
C27   Br3   1.923469 S    
C5    H5    1.073014 S    
C20   N20   1.340157 A    
C84   C87   1.356998 D    
C63   C71   1.532597 S    
C12   C44   1.364576 A    
C58   C66   1.533275 S    
N36   O7    1.301076 A    
C43   C65   1.452287 S    
N24   Ni7   1.889452 S    
C21   N21   1.339365 A    
C8    H8    1.073641 S    
C40   C82   1.484306 S    
N23   Ni8   1.889453 S    
C21   C40   1.384185 A    
C16   N16   1.332196 A    
N7    N22   1.338187 A    
C20   C33   1.394265 A    
C26   N26   1.342832 A    
C23   C38   1.384177 A    
C75   H43   1.109978 S    
C25   N25   1.338882 A    
N22   Ni8   1.889530 S    
C64   C72   1.533064 S    
N8    N21   1.338189 A    
N4    Ni2   1.827278 S    
C59   C76   1.537760 S    
C24   C37   1.394282 A    
C54   H38   1.110322 S    
C52   C76   1.547144 S    
C57   C74   1.537731 S    
N5    N24   1.338155 A    
C53   C77   1.540194 S    
N35   O5    1.300850 A    
C18   H18   1.078953 S    
N26   Ni5   1.866038 S    
N4    N17   1.338189 A    
N13   N32   1.385480 A    
C1    H1    1.072997 S    
N12   N25   1.385517 A    
N9    Ni2   1.881393 S    
C77   H45   1.109986 S    
C61   C78   1.537852 S    
C49   C73   1.540644 S    
C22   H22   1.078967 S    
C58   H26   1.110209 S    
C11   H11   1.078795 S    
C28   C41   1.379608 A    
N9    N28   1.385481 A    
C85   N37   1.440137 S    
C51   C68   1.535708 S    
C45   C71   1.452304 S    
C27   C42   1.362826 A    
N28   Ni6   1.866118 S    
C13   N13   1.332759 A    
N34   O3    1.301098 A    
C30   Br6   1.913991 S    
N11   Ni2   1.881391 S    
C15   C47   1.371688 A    
C49   C66   1.535978 S    
C26   Br2   1.912982 S    
C54   C69   1.533609 S    
C53   H37   1.110645 S    
N15   N30   1.385519 A    
N1    Ni1   1.827278 S    
C6    H6    1.073666 S    
C18   N18   1.340169 A    
N19   Ni6   1.889453 S    
C22   N22   1.340136 A    
C62   H30   1.109957 S    
N7    Ni3   1.827276 S    
N14   Ni3   1.881393 S    
C14   C46   1.364490 A    
N27   Ni5   1.866117 S    
N35   O6    1.301714 A    
C13   C45   1.371322 A    
C19   N19   1.339350 A    
N18   Ni6   1.889530 S    
C39   C81   1.481462 S    
C76   H44   1.110063 S    
C22   C39   1.394244 A    
N5    Ni3   1.827278 S    
C61   C69   1.532847 S    
C10   C42   1.364526 A    
N3    Ni1   1.827276 S    
C50   H34   1.110025 S    
C9    C41   1.371361 A    
C59   C67   1.532655 S    
C51   C75   1.540192 S    
C52   C64   1.553325 S    
C58   C73   1.552703 S    
C57   C65   1.532603 S    
C54   C78   1.547212 S    
C19   H19   1.079743 S    
C33   C87   1.481535 S    
C17   C36   1.384232 A    
C13   H13   1.078795 S    
C2    H2    1.073643 S    
N6    N23   1.338153 A    
C27   N27   1.338847 A    
C16   H16   1.080789 S    
C44   C66   1.448407 S    
C10   N10   1.332196 A    
C56   C80   1.547138 S    
N14   N31   1.385484 A    
C62   C77   1.552288 S    
C61   H29   1.111105 S    
C55   C72   1.535747 S    
C82   N34   1.442432 S    
C37   C83   1.481540 S    
N1    N20   1.338155 A    
C1    C33   1.389344 A    
C60   C68   1.533031 S    
C59   H27   1.110876 S    
C30   C47   1.379757 A    
N40   O15   1.301066 A    
C86   N38   1.442414 S    
C74   H42   1.110011 S    
C55   C79   1.540289 S    
N10   N27   1.385483 A    
C50   C65   1.533321 S    
C57   H25   1.110840 S    
C28   Br4   1.912949 S    
C52   C67   1.533368 S    
C5    C37   1.389345 A    
N13   Ni4   1.881393 S    
C26   C43   1.379589 A    
C66   C78   1.527453 S    
C4    N4    1.334491 A    
C55   C59   1.530104 S    
C68   C80   1.527112 S    
C7    C39   1.389329 A    
C83   C88   1.356994 D    
C1    N1    1.329721 A    
C5    N5    1.329701 A    
C14   N14   1.332133 A    
C32   C45   1.379584 A    
C36   C86   1.484329 S    
C81   N33   1.440094 S    
N30   Ni7   1.866039 S    
N2    N19   1.338153 A    
C25   Br1   1.923463 S    
C32   N32   1.342845 A    
C46   C72   1.448101 S    
C62   C70   1.533036 S    
C30   N30   1.342465 A    
C24   H24   1.078953 S    
N17   Ni5   1.889533 S    
C42   C68   1.448230 S    
N2    Ni2   1.827276 S    
C65   C77   1.530752 S    
N6    Ni4   1.827276 S    
C7    H7    1.073011 S    
C8    N8    1.334550 A    
C31   Br7   1.923526 S    
C49   H33   1.110901 S    
N20   Ni5   1.889452 S    
C32   Br8   1.912979 S    
N37   O9    1.300850 A    
C83   N35   1.440143 S    
N10   Ni1   1.881393 S    
C87   N39   1.440138 S    
C56   C71   1.533312 S    
C3    H3    1.073016 S    
C47   C69   1.452452 S    
C29   N29   1.338839 A    
N32   Ni8   1.866119 S    
C78   H46   1.110273 S    
C11   N11   1.332760 A    
C18   C35   1.394296 A    
C49   C61   1.530481 S    
N25   Ni6   1.866037 S    
C12   H12   1.080785 S    
C2    C34   1.384185 A    
N15   Ni4   1.881391 S    
C70   C74   1.527109 S    
C60   C75   1.552276 S    
C73   H41   1.110237 S    
C15   H15   1.078814 S    
N11   N26   1.385520 A    
N16   N29   1.385517 A    
C29   C48   1.362814 A    
C15   N15   1.332911 A    
C14   H14   1.080785 S    
C52   H36   1.110057 S    
C51   H35   1.110642 S    
N40   O16   1.301787 A    
C63   C80   1.537728 S    
C50   C74   1.547142 S    
N38   O12   1.301782 A    
C23   N23   1.339364 A    
C56   C60   1.553342 S    
C64   C79   1.552373 S    
C9    H9    1.078798 S    
C4    C36   1.384141 A    
C82   C85   1.357003 D    
