data_mof_unit_8688.cif
_audit_creation_date              2012-12-10T17:46:32-0500
_audit_creation_method            fapswitch 2.2
_symmetry_space_group_name_H-M    P1
_symmetry_Int_Tables_number       1
_space_group_crystal_system       triclinic
_cell_length_a                    20.764453
_cell_length_b                    21.184292
_cell_length_c                    14.787581
_cell_angle_alpha                 89.99762
_cell_angle_beta                  128.34972
_cell_angle_gamma                 90.001633
_cell_volume                      5101.28517845

loop_
_atom_site_label
_atom_site_type_symbol
_atom_type_description
_atom_site_fract_x
_atom_site_fract_y
_atom_site_fract_z
_atom_type_partial_charge
C1    C     C_R   0.601269 0.912543 0.629391 0.860661
C2    C     C_R   0.396296 0.085660 0.367343 0.860702
C3    C     C_R   0.398730 0.912544 0.370610 0.860655
C4    C     C_R   0.603698 0.085665 0.632646 0.860696
C5    C     C_R   0.101271 0.412545 0.629394 0.860675
C6    C     C_R   0.896297 0.585661 0.367344 0.860695
C7    C     C_R   0.898730 0.412544 0.370610 0.860665
C8    C     C_R   0.103697 0.585666 0.632646 0.860686
C9    C     C_R   0.370907 0.732257 0.987815 -0.201592
C10   C     C_R   0.668413 0.225805 0.071678 -0.188747
C11   C     C_R   0.629004 0.732138 0.012027 -0.201549
C12   C     C_R   0.331579 0.225792 0.928299 -0.188770
C13   C     C_R   0.870913 0.232248 0.987827 -0.201587
C14   C     C_R   0.168412 0.725807 0.071675 -0.188744
C15   C     C_R   0.128991 0.232114 0.011992 -0.201541
C16   C     C_R   0.831548 0.725764 0.928256 -0.188770
C17   C     C_R   0.321915 0.989479 0.663148 -0.275673
C18   C     C_R   0.678068 0.989424 0.336832 -0.275669
C19   C     C_R   0.821915 0.489483 0.663149 -0.275677
C20   C     C_R   0.178069 0.489423 0.336833 -0.275665
C21   C     C_R   0.351883 0.992319 0.601594 0.104418
C22   C     C_R   0.648110 0.992288 0.398396 0.104428
C23   C     C_R   0.851883 0.492323 0.601594 0.104409
C24   C     C_R   0.148110 0.492288 0.398397 0.104432
C25   C     C_R   0.487305 0.005852 0.775052 0.113236
C26   C     C_R   0.512692 0.005868 0.224951 0.113133
C27   C     C_R   0.987306 0.505849 0.775053 0.113227
C28   C     C_R   0.012692 0.505867 0.224951 0.113158
C29   C     C_R   0.462196 0.996059 0.844575 -0.015826
C30   C     C_R   0.537784 0.996059 0.155414 -0.015875
C31   C     C_R   0.962197 0.496057 0.844576 -0.015824
C32   C     C_R   0.037785 0.496056 0.155414 -0.015865
C33   C     C_R   0.376589 0.991190 0.784096 0.125836
C34   C     C_R   0.623388 0.991146 0.215885 0.125852
C35   C     C_R   0.876589 0.491192 0.784097 0.125834
C36   C     C_R   0.123389 0.491144 0.215885 0.125848
C37   C     C_R   0.517139 0.992066 0.969545 -0.011267
C38   C     C_R   0.482832 0.992088 0.030440 -0.011309
C39   C     C_R   0.017140 0.492063 0.969545 -0.011265
C40   C     C_R   0.982833 0.492085 0.030441 -0.011300
C41   C     C_R   0.395485 0.985510 0.963260 -0.026744
C42   C     C_R   0.604476 0.985423 0.036715 -0.026809
C43   C     C_R   0.895487 0.485506 0.963261 -0.026763
C44   C     C_R   0.104476 0.485417 0.036716 -0.026810
C45   C     C_R   0.345026 0.986424 0.843246 -0.213087
C46   C     C_R   0.654942 0.986337 0.156728 -0.213105
C47   C     C_R   0.845026 0.486424 0.843247 -0.213096
C48   C     C_R   0.154942 0.486332 0.156728 -0.213102
C49   C     C_R   0.669971 0.128782 0.716917 -0.094504
C50   C     C_R   0.342028 0.860956 0.300004 -0.101961
C51   C     C_R   0.330000 0.128754 0.283037 -0.094476
C52   C     C_R   0.657963 0.860948 0.699985 -0.101922
C53   C     C_R   0.169969 0.628784 0.716914 -0.094504
C54   C     C_R   0.842028 0.360955 0.300005 -0.101956
C55   C     C_R   0.830005 0.628759 0.283044 -0.094485
C56   C     C_R   0.157973 0.360956 0.699996 -0.101911
C57   C     C_R   0.809770 0.165330 0.820677 -0.166863
C58   C     C_R   0.211915 0.808843 0.210174 -0.159566
C59   C     C_R   0.190167 0.165234 0.179203 -0.166855
C60   C     C_R   0.788083 0.808843 0.789837 -0.159519
C61   C     C_R   0.309766 0.665336 0.820669 -0.166860
C62   C     C_R   0.711914 0.308843 0.210173 -0.159565
C63   C     C_R   0.690183 0.665259 0.179240 -0.166863
C64   C     C_R   0.288111 0.308874 0.789885 -0.159510
C65   C     C_R   0.743541 0.129962 0.731899 -0.233485
C66   C     C_R   0.267481 0.855926 0.281567 -0.224834
C67   C     C_R   0.256418 0.129899 0.268025 -0.233509
C68   C     C_R   0.732530 0.855941 0.718475 -0.224814
C69   C     C_R   0.243539 0.629966 0.731894 -0.233486
C70   C     C_R   0.767481 0.355927 0.281565 -0.224831
C71   C     C_R   0.756431 0.629918 0.268052 -0.233505
C72   C     C_R   0.232550 0.355965 0.718512 -0.224831
C73   C     C_R   0.663071 0.163768 0.791246 0.295709
C74   C     C_R   0.361808 0.817004 0.249488 0.295772
C75   C     C_R   0.336889 0.163739 0.208692 0.295747
C76   C     C_R   0.638151 0.816961 0.750421 0.295581
C77   C     C_R   0.163068 0.663770 0.791241 0.295708
C78   C     C_R   0.861811 0.317001 0.249494 0.295759
C79   C     C_R   0.836889 0.663736 0.208687 0.295745
C80   C     C_R   0.138160 0.316960 0.750420 0.295574
C81   C     C_R   0.734541 0.189152 0.894022 0.022760
C82   C     C_R   0.298766 0.778913 0.157438 0.009387
C83   C     C_R   0.265407 0.189090 0.105883 0.022815
C84   C     C_R   0.701179 0.778852 0.842459 0.009426
C85   C     C_R   0.234537 0.689157 0.894015 0.022757
C86   C     C_R   0.798769 0.278909 0.157444 0.009386
C87   C     C_R   0.765406 0.689092 0.105886 0.022810
C88   C     C_R   0.201191 0.278858 0.842468 0.009420
C89   C     C_R   0.805853 0.194838 0.901930 0.109002
C90   C     C_R   0.226013 0.771298 0.146103 0.110448
C91   C     C_R   0.194078 0.194742 0.097940 0.109008
C92   C     C_R   0.773953 0.771261 0.853838 0.110479
C93   C     C_R   0.305849 0.694845 0.901920 0.109002
C94   C     C_R   0.726014 0.271296 0.146106 0.110454
C95   C     C_R   0.694087 0.694758 0.097965 0.109008
C96   C     C_R   0.273976 0.271282 0.853872 0.110482
C97   C     C_R   0.736754 0.211320 0.986731 0.083034
C98   C     C_R   0.302904 0.750257 0.073597 0.066034
C99   C     C_R   0.263197 0.211259 0.013176 0.083084
C100  C     C_R   0.697021 0.750172 0.926269 0.065986
C101  C     C_R   0.236751 0.711325 0.986724 0.083030
C102  C     C_R   0.802908 0.250252 0.073606 0.066028
C103  C     C_R   0.763187 0.711254 0.013168 0.083081
C104  C     C_R   0.197027 0.250170 0.926267 0.065986
C105  C     C_R   0.366971 0.762709 0.067433 -0.113666
C106  C     C_R   0.676153 0.193903 0.997161 -0.110706
C107  C     C_R   0.632929 0.762588 0.932393 -0.113788
C108  C     C_R   0.323822 0.193867 0.002784 -0.110550
C109  C     C_R   0.866978 0.262700 0.067445 -0.113674
C110  C     C_R   0.176151 0.693906 0.997157 -0.110716
C111  C     C_R   0.132921 0.262573 0.932369 -0.113777
C112  C     C_R   0.823798 0.693848 0.002755 -0.110553
Cu1   Cu    Cu3+1 0.526640 0.000000 0.436960 1.013110
Cu2   Cu    Cu3+1 0.473360 0.000000 0.563040 1.013111
Cu3   Cu    Cu3+1 0.026640 0.500000 0.436960 1.013116
Cu4   Cu    Cu3+1 0.973360 0.500000 0.563040 1.013103
H1    H     H_    0.423410 0.740565 0.990048 0.147302
H2    H     H_    0.616632 0.215309 0.070129 0.149949
H3    H     H_    0.576489 0.740424 0.009773 0.147281
H4    H     H_    0.383381 0.215320 0.929886 0.149952
H5    H     H_    0.923418 0.240554 0.990063 0.147301
H6    H     H_    0.116632 0.715309 0.070128 0.149954
H7    H     H_    0.076466 0.240389 0.009720 0.147274
H8    H     H_    0.883340 0.715281 0.929825 0.149955
H9    H     H_    0.252677 0.887918 0.323450 0.164729
H10   H     H_    0.749700 0.103850 0.674651 0.170012
H11   H     H_    0.747361 0.887963 0.676656 0.164680
H12   H     H_    0.250264 0.103783 0.325277 0.169992
H13   H     H_    0.752675 0.387920 0.323444 0.164727
H14   H     H_    0.249698 0.603854 0.674647 0.170013
H15   H     H_    0.247384 0.387994 0.676705 0.164669
H16   H     H_    0.750282 0.603809 0.325314 0.170003
H17   H     H_    0.364855 0.668196 0.827728 0.154880
H18   H     H_    0.655881 0.303994 0.200307 0.157940
H19   H     H_    0.635089 0.668102 0.172171 0.154890
H20   H     H_    0.344170 0.304057 0.799810 0.157923
H21   H     H_    0.864860 0.168188 0.827738 0.154874
H22   H     H_    0.155882 0.803992 0.200311 0.157945
H23   H     H_    0.135066 0.168066 0.172117 0.154884
H24   H     H_    0.844133 0.804013 0.799741 0.157927
H25   H     H_    0.414339 0.796778 0.121315 0.233811
H26   H     H_    0.633128 0.156219 0.946340 0.186294
H27   H     H_    0.585532 0.796631 0.878473 0.233807
H28   H     H_    0.366858 0.156190 0.053622 0.186323
H29   H     H_    0.914348 0.296767 0.121329 0.233810
H30   H     H_    0.133127 0.656221 0.946336 0.186294
H31   H     H_    0.085519 0.296610 0.878441 0.233796
H32   H     H_    0.866828 0.656167 0.053586 0.186319
H33   H     H_    0.279157 0.980680 0.794261 0.173753
H34   H     H_    0.720804 0.980548 0.205707 0.173806
H35   H     H_    0.779157 0.480681 0.794261 0.173765
H36   H     H_    0.220804 0.480542 0.205708 0.173808
H37   H     H_    0.451348 0.019684 0.188817 0.136242
H38   H     H_    0.548664 0.019640 0.811209 0.136163
H39   H     H_    0.951347 0.519682 0.188814 0.136235
H40   H     H_    0.048667 0.519633 0.811211 0.136160
H41   H     H_    0.689907 0.988875 0.491459 0.115356
H42   H     H_    0.310089 0.988918 0.508531 0.115345
H43   H     H_    0.189907 0.488876 0.491459 0.115355
H44   H     H_    0.810088 0.488924 0.508530 0.115347
H45   H     H_    0.256328 0.984571 0.616405 0.152375
H46   H     H_    0.743650 0.984485 0.383568 0.152373
H47   H     H_    0.756328 0.484579 0.616405 0.152375
H48   H     H_    0.243651 0.484484 0.383569 0.152374
N1    N     N_R   0.433280 0.000000 0.657760 -0.179530
N2    N     N_R   0.566720 0.000000 0.342240 -0.179549
N3    N     N_R   0.933280 0.500000 0.657760 -0.179532
N4    N     N_R   0.066720 0.500000 0.342240 -0.179548
O1    O     O_R   0.600040 0.935040 0.546740 -0.584428
O2    O     O_R   0.399960 0.064960 0.453260 -0.587382
O3    O     O_R   0.399960 0.935040 0.453260 -0.584436
O4    O     O_R   0.600040 0.064960 0.546740 -0.587393
O5    O     O_R   0.100040 0.435040 0.546740 -0.584419
O6    O     O_R   0.899960 0.564960 0.453260 -0.587388
O7    O     O_R   0.899960 0.435040 0.453260 -0.584434
O8    O     O_R   0.100040 0.564960 0.546740 -0.587397
O9    O     O_R   0.555010 0.935070 0.653220 -0.546437
O10   O     O_R   0.444990 0.064930 0.346780 -0.555993
O11   O     O_R   0.444990 0.935070 0.346780 -0.546394
O12   O     O_R   0.555010 0.064930 0.653220 -0.555976
O13   O     O_R   0.055010 0.435070 0.653220 -0.546449
O14   O     O_R   0.944990 0.564930 0.346780 -0.555984
O15   O     O_R   0.944990 0.435070 0.346780 -0.546396
O16   O     O_R   0.055010 0.564930 0.653220 -0.555976
C113  C     C_2   0.352336 0.967856 0.009876 0.791508
O17   O     O_2   0.291495 0.997378 0.980775 -0.596761
O18   O     O_R   0.379160 0.916103 0.083497 -0.760453
H49   H     H_    0.343177 0.908449 0.106871 0.330604
C114  C     C_2   0.647586 0.967682 0.990079 0.791538
O19   O     O_2   0.708518 0.997094 0.019256 -0.596694
O20   O     O_R   0.620618 0.915969 0.916350 -0.760407
H50   H     H_    0.656583 0.908250 0.892967 0.330640
C115  C     C_2   0.852340 0.467843 0.009877 0.791513
O21   O     O_2   0.791488 0.497352 0.980764 -0.596759
O22   O     O_R   0.879179 0.416095 0.083511 -0.760447
H51   H     H_    0.843195 0.408432 0.106882 0.330605
C116  C     C_2   0.147585 0.467671 0.990080 0.791544
O23   O     O_2   0.208519 0.497078 0.019257 -0.596691
O24   O     O_R   0.120612 0.415957 0.916351 -0.760400
H52   H     H_    0.156576 0.408235 0.892968 0.330639
Cl1   Cl    Cl    0.467326 0.799103 0.325489 -0.573764
Cl2   Cl    Cl    0.563473 0.189529 0.737231 -0.611554
Cl3   Cl    Cl    0.532625 0.799063 0.674348 -0.573802
Cl4   Cl    Cl    0.436476 0.189533 0.262710 -0.611582
Cl5   Cl    Cl    0.967329 0.299101 0.325499 -0.573740
Cl6   Cl    Cl    0.063470 0.689530 0.737225 -0.611563
Cl7   Cl    Cl    0.032635 0.299050 0.674328 -0.573796
Cl8   Cl    Cl    0.936475 0.689519 0.262681 -0.611589

loop_
_geom_bond_atom_site_label_1
_geom_bond_atom_site_label_2
_ccdc_geom_bond_type
C54   C70   A    
C64   H20   S    
C14   H6    S    
C29   C33   A    
C33   C45   A    
C21   H42   S    
C5    C56   S    
C53   C77   A    
C108  H28   S    
C6    C55   S    
C49   C73   A    
C53   C69   A    
C78   C86   A    
C76   C84   A    
C88   C96   A    
C76   Cl3   S    
C61   H17   S    
C99   C108  A    
C30   C38   A    
C37   C38   A    
C98   C105  A    
C57   C89   A    
C6    O14   A    
C10   H2    S    
C32   C36   A    
C24   N4    A    
C51   C75   A    
C50   C74   A    
C105  H25   S    
Cu3   N4    S    
C61   C93   A    
C113  O18   S    
C10   C94   A    
C9    C105  A    
C79   Cl8   S    
C20   H48   S    
C63   C95   A    
C55   C79   A    
C62   C70   A    
Cu2   O2    S    
C42   C46   A    
C73   C81   A    
C37   C42   A    
C116  O24   S    
C3    O11   A    
C14   C90   A    
C22   H41   S    
C13   C109  A    
C86   C94   A    
C77   C85   A    
C59   C67   A    
C71   H16   S    
C12   H4    S    
C85   C93   A    
C58   C66   A    
C40   C43   A    
C41   C113  S    
C8    O8    A    
C20   C24   A    
C69   H14   S    
C56   C72   A    
C87   C95   A    
C28   H39   S    
Cu4   N3    S    
C36   C48   A    
C26   H37   S    
C34   C46   A    
C22   N2    A    
C97   C102  A    
C52   C68   A    
C44   C116  S    
C110  H30   S    
C81   C89   A    
C8    O16   A    
C32   C40   A    
Cu1   O10   S    
C11   H3    S    
O24   H52   S    
C83   C99   A    
C23   H44   S    
C82   C98   A    
C15   H7    S    
C1    O9    A    
C4    O12   A    
C79   C87   A    
C88   C104  A    
C3    C50   S    
C3    O3    A    
C106  H26   S    
Cu1   O4    S    
C60   C92   A    
C25   C29   A    
Cu2   O3    S    
C24   H43   S    
C30   C34   A    
C27   C31   A    
O20   H50   S    
C84   C100  A    
C15   C111  A    
C28   C32   A    
C64   C96   A    
C38   C41   A    
C57   C65   A    
Cu1   N2    S    
C12   C108  A    
Cu1   O1    S    
C6    O6    A    
C25   N1    A    
C101  C110  A    
C100  C103  A    
C17   C21   A    
C112  H32   S    
C7    O7    A    
C103  C112  A    
C63   H19   S    
C19   C23   A    
Cu3   O8    S    
C49   C65   A    
C111  H31   S    
C13   H5    S    
C116  O23   D    
C5    O13   A    
C59   H23   S    
Cu2   O9    S    
Cu4   O13   S    
C115  O22   S    
C57   H21   S    
C17   C33   A    
C19   H47   S    
C84   C92   A    
C58   C90   A    
C68   H11   S    
C17   H45   S    
C2    O2    A    
C23   N3    A    
C97   C106  A    
C46   H34   S    
C63   C71   A    
C58   H22   S    
C16   C92   A    
Cu2   O12   S    
C48   H36   S    
C11   C107  A    
C87   C103  A    
C10   C106  A    
C60   H24   S    
C107  H27   S    
C86   C102  A    
C9    C93   A    
C39   C40   A    
Cu3   O14   S    
C85   C101  A    
C16   C112  A    
C72   H15   S    
Cu1   Cu2   S    
C59   C91   A    
C11   C95   A    
C27   H40   S    
C14   C110  A    
C26   N2    A    
C100  C107  A    
C4    O4    A    
Cu4   O7    S    
C13   C89   A    
C25   H38   S    
C18   C22   A    
C5    O5    A    
C109  H29   S    
C47   H35   S    
C52   C76   A    
C82   C90   A    
C8    C53   S    
C104  C111  A    
Cu3   O15   S    
C75   Cl4   S    
C50   C66   A    
C26   C30   A    
C39   C44   A    
C74   Cl1   S    
C7    O15   A    
C98   C101  A    
C83   C91   A    
C73   Cl2   S    
C56   C80   A    
C66   H9    S    
Cu4   O6    S    
C4    C49   S    
C43   C115  S    
C61   C69   A    
C65   H10   S    
C62   H18   S    
Cu1   O11   S    
C62   C94   A    
C16   H8    S    
C78   Cl5   S    
Cu2   N1    S    
C80   C88   A    
C19   C35   A    
C77   Cl6   S    
C18   H46   S    
C42   C114  S    
C75   C83   A    
C113  O17   D    
C51   C67   A    
C81   C97   A    
C18   C34   A    
Cu4   O16   S    
C31   C35   A    
C1    O1    A    
C31   C39   A    
C99   C104  A    
C45   H33   S    
C64   C72   A    
C114  O19   D    
C1    C52   S    
C55   C71   A    
C2    C51   S    
C28   N4    A    
C21   N1    A    
C15   C91   A    
O22   H51   S    
C20   C36   A    
C44   C48   A    
O18   H49   S    
C80   Cl7   S    
C60   C68   A    
Cu3   O5    S    
C115  O21   D    
C70   H13   S    
C29   C37   A    
C41   C45   A    
C12   C96   A    
C102  C109  A    
C2    O10   A    
C7    C54   S    
C114  O20   S    
C35   C47   A    
C67   H12   S    
C43   C47   A    
C74   C82   A    
C9    H1    S    
Cu3   Cu4   S    
C27   N3    A    
C54   C78   A    
