data_mof_unit_48492.cif
_audit_creation_date              2012-12-10T20:31:08-0500
_audit_creation_method            fapswitch 2.2
_symmetry_space_group_name_H-M    P1
_symmetry_Int_Tables_number       1
_space_group_crystal_system       triclinic
_cell_length_a                    14.877834
_cell_length_b                    10.70842
_cell_length_c                    9.903239
_cell_angle_alpha                 90.158026
_cell_angle_beta                  88.977291
_cell_angle_gamma                 90.070667
_cell_volume                      1577.50672811

loop_
_atom_site_label
_atom_site_type_symbol
_atom_type_description
_atom_site_fract_x
_atom_site_fract_y
_atom_site_fract_z
_atom_type_partial_charge
C1    C     C_R   0.498946 0.260254 0.499815 0.889830
C2    C     C_R   0.187437 0.388692 0.474185 -0.141569
C3    C     C_R   0.231806 0.499986 0.500636 -0.057865
C4    C     C_R   0.327145 0.500431 0.500655 0.909027
C5    C     C_R   0.186293 0.611376 0.522125 -0.088672
C6    C     C_R   0.463312 0.063859 0.613078 0.023304
C7    C     C_R   0.490694 0.128533 0.497730 -0.074491
C8    C     C_R   0.507428 0.063799 0.376699 -0.124729
C9    C     C_R   0.507998 0.935229 0.376800 -0.242597
C10   C     C_R   0.492953 0.871231 0.498352 -0.164762
C11   C     C_R   0.467146 0.936517 0.614302 0.071781
C12   C     C_R   0.905975 0.611629 0.522973 0.054623
C13   C     C_3   0.495619 0.933514 0.759889 0.903269
C14   C     C_3   0.488435 0.076515 0.758161 -0.635526
C15   C     C_R   0.422188 0.512451 0.072921 0.014578
C16   C     C_R   0.499543 0.739618 0.500008 0.879864
C17   C     C_R   0.578344 0.495006 0.069689 -0.076767
C18   C     C_R   0.578298 0.493320 0.926090 -0.125169
C19   C     C_R   0.422379 0.521270 0.931401 0.121655
C20   C     C_3   0.335593 0.451058 0.923620 0.165290
C21   C     C_3   0.340938 0.429641 0.075782 0.119348
C22   C     C_R   0.672770 0.500067 0.498914 0.851311
C23   C     C_R   0.952497 0.276829 0.444442 -0.305358
C24   C     C_R   0.812936 0.610944 0.523100 -0.225346
C25   C     C_R   0.767909 0.500158 0.496500 -0.031432
C26   C     C_R   0.813083 0.389188 0.469298 -0.233097
C27   C     C_R   0.906216 0.387764 0.470360 0.084946
C28   C     C_R   0.953125 0.499303 0.497483 0.067628
C29   C     C_3   0.448698 0.884594 0.979626 0.111155
C30   C     C_3   0.364352 0.859750 0.064542 -0.700228
C31   C     C_3   0.652145 0.915858 0.693317 0.059605
C32   C     C_3   0.741754 0.915361 0.764730 -0.825332
C33   C     C_3   0.101056 0.852017 0.715634 0.153507
C34   C     C_R   0.046206 0.274128 0.444664 0.346936
C35   C     C_3   0.028425 0.938317 0.773411 -0.785937
C36   C     C_R   0.093932 0.385803 0.471932 0.023403
C37   C     C_R   0.046728 0.498851 0.498126 -0.031027
C38   C     C_R   0.093129 0.611960 0.524170 0.009366
C39   C     C_R   0.045532 0.723077 0.551961 0.513792
C40   C     C_R   0.952097 0.722569 0.547950 -0.271991
H1    H     H_    0.775401 0.695924 0.543381 0.126508
H2    H     H_    0.915095 0.192318 0.423399 0.189475
H3    H     H_    0.227141 0.305741 0.456152 0.222800
H4    H     H_    0.224011 0.696714 0.538024 0.185655
H5    H     H_    0.915650 0.808979 0.564253 0.173711
H6    H     H_    0.525901 0.111547 0.284243 0.223671
H7    H     H_    0.474791 0.978355 0.008197 0.183332
H8    H     H_    0.499748 0.812761 0.004374 0.173878
H9    H     H_    0.342200 0.761758 0.051007 0.251720
H10   H     H_    0.378139 0.875177 0.172988 0.232894
H11   H     H_    0.309575 0.923557 0.034176 0.295891
H12   H     H_    0.525934 0.886930 0.283922 0.169113
H13   H     H_    0.643832 0.009038 0.646505 0.128346
H14   H     H_    0.655563 0.844576 0.611982 0.146753
H15   H     H_    0.755146 0.821157 0.806493 0.262202
H16   H     H_    0.796611 0.940087 0.692114 0.204976
H17   H     H_    0.740639 0.984772 0.848275 0.261472
H18   H     H_    0.268857 0.747024 0.832738 0.373291
H19   H     H_    0.481216 0.256117 0.982691 0.329920
H20   H     H_    0.120990 0.178685 0.196792 0.358784
H21   H     H_    0.167049 0.898230 0.730059 0.199060
H22   H     H_    0.102517 0.763405 0.774785 0.164755
H23   H     H_    0.430695 0.113151 0.818848 0.239884
H24   H     H_    0.962553 0.889754 0.777027 0.222550
H25   H     H_    0.045755 0.966056 0.877901 0.234422
H26   H     H_    0.023080 0.023704 0.710682 0.294667
H27   H     H_    0.552475 0.127434 0.774025 0.191277
H28   H     H_    0.641511 0.488999 0.121484 0.150224
H29   H     H_    0.641448 0.485243 0.871232 0.162946
H30   H     H_    0.341141 0.366362 0.858767 0.138711
H31   H     H_    0.285116 0.468210 0.138656 0.173801
H32   H     H_    0.775509 0.304420 0.448979 0.126680
N1    N     N_R   0.499390 0.499140 0.142800 -0.072669
N2    N     N_R   0.499390 0.499180 0.857150 -0.121908
O1    O     O_R   0.500010 0.316790 0.614690 -0.641170
O2    O     O_3   0.582893 0.883764 0.787313 -0.629552
O3    O     O_2   0.176439 0.477663 0.801949 -0.273006
O4    O     O_2   0.197855 0.605992 0.002651 -0.353122
O5    O     O_3   0.283654 0.669439 0.782777 -0.554622
O6    O     O_2   0.344516 0.245819 0.260684 -0.224548
O7    O     O_2   0.303527 0.185933 0.032189 -0.300393
O8    O     O_3   0.471533 0.232592 0.078331 -0.588051
O9    O     O_2   0.160981 0.095821 0.520565 -0.253802
O10   O     O_2   0.033067 0.027647 0.386749 -0.279600
O11   O     O_3   0.162945 0.146081 0.264735 -0.458079
O12   O     O_R   0.500000 0.316760 0.385350 -0.554883
O13   O     O_3   0.090140 0.834272 0.575129 -0.552071
O14   O     O_R   0.367850 0.499990 0.614680 -0.556202
O15   O     O_R   0.367840 0.499950 0.385340 -0.617171
O16   O     O_R   0.500000 0.683240 0.614650 -0.563427
O17   O     O_R   0.499990 0.683210 0.385310 -0.634955
O18   O     O_R   0.632160 0.500050 0.614660 -0.629286
O19   O     O_R   0.632150 0.500010 0.385320 -0.633570
O20   O     O_3   0.427467 0.877134 0.841011 -0.610531
S1    S     S_3+6 0.244041 0.551941 0.879390 -0.003655
S2    S     S_3+6 0.363714 0.268768 0.113623 0.029678
S3    S     S_3+6 0.100491 0.130439 0.406701 0.042877
Zn1   Zn    Zn3+2 0.500010 0.500020 0.653130 1.004240
Zn2   Zn    Zn3+2 0.499990 0.499980 0.346870 1.003784

loop_
_geom_bond_atom_site_label_1
_geom_bond_atom_site_label_2
_ccdc_geom_bond_type
C20   S1    S    
C30   H11   S    
C16   O16   A    
C26   H32   S    
C19   C20   S    
H19   O8    S    
C39   O13   S    
O18   Zn1   S    
C7    C8    A    
N2    Zn1   S    
C15   C19   A    
C26   C27   A    
C29   C30   S    
C23   H2    S    
C29   H7    S    
O10   S3    D    
C36   C37   A    
C29   O20   S    
C35   H25   S    
C34   S3    S    
C8    C9    A    
C22   C25   S    
C14   H27   S    
C35   H24   S    
C23   C27   A    
O6    S2    D    
C9    C10   A    
O4    S1    D    
C32   H15   S    
C18   H29   S    
C30   H10   S    
C18   N2    A    
C5    C38   A    
C17   N1    A    
C24   H1    S    
C20   H30   S    
C9    H12   S    
C32   H17   S    
C40   H5    S    
O8    S2    S    
C29   H8    S    
C1    O1    A    
C24   C25   A    
C39   C40   A    
O7    S2    D    
C33   H22   S    
C35   H26   S    
C25   C26   A    
O3    S1    D    
O1    Zn1   S    
C12   C40   A    
O5    S1    S    
C37   C38   A    
C6    C14   S    
C31   C32   S    
C13   O2    S    
C2    H3    S    
C23   C34   A    
C17   C18   A    
C31   H13   S    
O12   Zn2   S    
H18   O5    S    
C15   N1    A    
C5    H4    S    
O15   Zn2   S    
C22   O19   A    
C3    C4    S    
C6    C11   A    
C21   H31   S    
C4    O15   A    
C2    C36   A    
C1    O12   A    
N1    Zn2   S    
O19   Zn2   S    
C17   H28   S    
C1    C7    S    
C30   H9    S    
C19   N2    A    
C3    C5    A    
H20   O11   S    
C6    C7    A    
C4    O14   A    
C21   S2    S    
C12   C24   A    
C13   O20   S    
C2    C3    A    
C33   O13   S    
C10   C16   S    
C11   C13   S    
C31   O2    S    
C38   C39   A    
C28   C37   A    
C14   H23   S    
C33   C35   S    
C32   H16   S    
C34   C36   A    
C31   H14   S    
C8    H6    S    
O11   S3    S    
C10   C11   A    
C15   C21   S    
C20   C21   S    
C12   C28   A    
C16   O17   A    
C33   H21   S    
O9    S3    D    
C27   C28   A    
C22   O18   A    
O17   Zn2   S    
C13   C14   S    
O16   Zn1   S    
O14   Zn1   S    
