data_mof_unit_34932.cif
_audit_creation_date              2012-12-11T14:38:19-0500
_audit_creation_method            fapswitch 2.2
_symmetry_space_group_name_H-M    P1
_symmetry_Int_Tables_number       1
_space_group_crystal_system       triclinic
_cell_length_a                    19.568814
_cell_length_b                    11.519054
_cell_length_c                    19.575737
_cell_angle_alpha                 90.000031
_cell_angle_beta                  95.951854
_cell_angle_gamma                 90.0
_cell_volume                      4388.86267177

loop_
_atom_site_label
_atom_site_type_symbol
_atom_type_description
_atom_site_fract_x
_atom_site_fract_y
_atom_site_fract_z
_atom_type_partial_charge
C1    C     C_R   0.708426 0.993698 0.366688 0.540161
C2    C     C_3   0.152894 0.451883 0.473642 -0.116134
C3    C     C_2   0.597163 0.866442 0.444829 0.558360
C4    C     C_2   0.467517 0.417129 0.939496 0.628750
C5    C     C_2   0.428934 0.365834 0.092629 0.565982
C6    C     C_2   0.071063 0.865838 0.907372 0.565982
C7    C     C_2   0.032481 0.917129 0.060505 0.628752
C8    C     C_2   0.339110 0.112308 0.968318 0.154108
C9    C     C_2   0.626287 0.196798 0.041108 0.206185
C10   C     C_2   0.873714 0.696798 0.958892 0.206178
C11   C     C_2   0.160891 0.612310 0.031682 0.154107
C12   C     C_2   0.574591 0.998691 0.028633 0.650817
C13   C     C_3   0.347106 0.951882 0.526358 -0.116134
C14   C     C_2   0.425517 0.958900 0.960118 0.606044
C15   C     C_2   0.074484 0.458900 0.039881 0.606044
C16   C     C_2   0.925409 0.498691 0.971366 0.650816
C17   C     C_2   0.353111 0.039251 0.407106 0.244356
C18   C     C_2   0.646717 0.039085 0.592832 0.244242
C19   C     C_2   0.853283 0.539085 0.407168 0.244242
C20   C     C_2   0.146889 0.539251 0.592894 0.244356
C21   C     C_2   0.764522 0.254207 0.605876 0.216302
C22   C     C_2   0.235161 0.254029 0.394144 0.216223
C23   C     C_2   0.264839 0.754029 0.605855 0.216223
C24   C     C_3   0.652875 0.951739 0.473608 -0.116005
C25   C     C_2   0.735478 0.754207 0.394124 0.216302
C26   C     C_2   0.656948 0.358486 0.569751 0.600598
C27   C     C_2   0.342869 0.358119 0.430005 0.601117
C28   C     C_2   0.157131 0.858118 0.569994 0.601116
C29   C     C_2   0.843052 0.858487 0.430249 0.600598
C30   C     C_3   0.732754 0.341906 0.554752 0.042765
C31   C     C_3   0.267102 0.341728 0.445183 0.042563
C32   C     C_3   0.232898 0.841728 0.554817 0.042563
C33   C     C_3   0.767246 0.841906 0.445247 0.042765
C34   C     C_3   0.775866 0.456232 0.560903 -0.023607
C35   C     C_3   0.224127 0.456190 0.439082 -0.023139
C36   C     C_3   0.275873 0.956190 0.560918 -0.023139
C37   C     C_R   0.291574 0.993688 0.633315 0.539005
C38   C     C_3   0.724134 0.956232 0.439097 -0.023608
C39   C     C_3   0.753096 0.403572 0.430636 0.005193
C40   C     C_3   0.246943 0.403513 0.569342 0.005853
C41   C     C_3   0.253057 0.903513 0.430658 0.005853
C42   C     C_3   0.746904 0.903572 0.569363 0.005193
C43   C     C_3   0.831477 0.436467 0.447301 -0.122631
C44   C     C_3   0.168588 0.436594 0.552729 -0.122746
C45   C     C_3   0.331412 0.936594 0.447271 -0.122746
C46   C     C_3   0.668523 0.936467 0.552699 -0.122630
C47   C     C_3   0.737454 0.304234 0.478722 -0.283938
C48   C     C_R   0.208426 0.493688 0.366685 0.539005
C49   C     C_3   0.262479 0.304122 0.521247 -0.283906
C50   C     C_3   0.237521 0.804122 0.478752 -0.283906
C51   C     C_3   0.762546 0.804234 0.521278 -0.283938
C52   C     C_3   0.444537 0.304810 0.972335 -0.095133
C53   C     C_3   0.476684 0.303643 0.046989 -0.098954
C54   C     C_3   0.023314 0.803644 0.953011 -0.098955
C55   C     C_3   0.055462 0.804810 0.027665 -0.095132
C56   C     C_3   0.415484 0.086863 0.978711 0.001142
C57   C     C_3   0.559565 0.130642 0.023655 -0.002028
C58   C     C_3   0.940436 0.630641 0.976345 -0.002023
C59   C     C_R   0.791574 0.493698 0.633312 0.540159
C60   C     C_3   0.084516 0.586864 0.021289 0.001142
C61   C     C_3   0.535234 0.157512 0.947800 -0.251742
C62   C     C_3   0.437723 0.098059 0.057836 -0.267682
C63   C     C_3   0.062278 0.598061 0.942164 -0.267687
C64   C     C_3   0.964766 0.657509 0.052200 -0.251760
C65   C     C_R   0.536790 0.180701 0.338250 0.555436
C66   C     C_R   0.463182 0.180704 0.661732 0.553029
C67   C     C_R   0.036818 0.680704 0.338268 0.553029
C68   C     C_R   0.963210 0.680701 0.661750 0.555433
C69   C     C_3   0.457352 0.181672 0.938188 -0.033612
C70   C     C_3   0.704332 0.498493 0.446363 -0.241422
C71   C     C_3   0.501547 0.176240 0.069580 -0.057160
C72   C     C_3   0.998454 0.676240 0.930420 -0.057152
C73   C     C_3   0.042648 0.681672 0.061812 -0.033607
C74   C     C_1   0.757963 0.423594 0.902356 0.078326
C75   C     C_1   0.245098 0.413710 0.100681 0.071553
C76   C     C_1   0.254902 0.913709 0.899319 0.071553
C77   C     C_1   0.742037 0.923594 0.097644 0.078325
C78   C     C_1   0.745769 0.404450 0.033684 0.030471
C79   C     C_1   0.257231 0.391604 0.969273 0.017778
C80   C     C_1   0.242768 0.891603 0.030727 0.017775
C81   C     C_3   0.295799 0.498275 0.553577 -0.241345
C82   C     C_1   0.754230 0.904450 0.966316 0.030469
C83   C     C_1   0.749207 0.412126 0.962050 0.043780
C84   C     C_1   0.254448 0.398221 0.041278 0.037117
C85   C     C_1   0.245552 0.898220 0.958722 0.037113
C86   C     C_1   0.750793 0.912125 0.037950 0.043782
C87   C     C_1   0.743762 0.391146 0.094566 0.055031
C88   C     C_1   0.258305 0.383253 0.907820 0.076911
C89   C     C_1   0.241695 0.883253 0.092180 0.076911
C90   C     C_1   0.756237 0.891146 0.905433 0.055041
C91   C     C_R   0.739921 0.361453 0.360190 0.590268
C92   C     C_3   0.204201 0.998275 0.446423 -0.241345
C93   C     C_R   0.260101 0.361400 0.639788 0.588046
C94   C     C_R   0.239899 0.861400 0.360212 0.588046
C95   C     C_R   0.760079 0.861453 0.639810 0.590265
C96   C     C_R   0.723498 0.953232 0.164452 0.608685
C97   C     C_R   0.275465 0.950267 0.834122 0.600256
C98   C     C_R   0.224535 0.450267 0.165877 0.600254
C99   C     C_R   0.776501 0.453232 0.835548 0.608702
C100  C     C_R   0.531513 0.179747 0.142235 0.592299
C101  C     C_R   0.437612 0.183511 0.862321 0.592352
C102  C     C_R   0.062389 0.683511 0.137679 0.592354
C103  C     C_3   0.795668 0.998493 0.553637 -0.241422
C104  C     C_R   0.968487 0.679747 0.857765 0.592318
C105  C     C_R   0.736507 0.357746 0.164007 0.593554
C106  C     C_R   0.263903 0.356308 0.836800 0.610434
C107  C     C_R   0.236097 0.856308 0.163200 0.610434
C108  C     C_R   0.763493 0.857747 0.835993 0.593573
C109  C     C_1   0.485090 0.173119 0.594565 0.073025
C110  C     C_1   0.514849 0.173108 0.405399 0.073217
C111  C     C_1   0.985150 0.673108 0.594601 0.073218
C112  C     C_1   0.014910 0.673119 0.405434 0.073026
C113  C     C_1   0.504410 0.168803 0.464778 0.036171
C114  C     C_3   0.847125 0.451739 0.526392 -0.116005
C115  C     C_1   0.495513 0.168812 0.535181 0.036085
C116  C     C_1   0.004487 0.668812 0.464819 0.036085
C117  C     C_1   0.995590 0.668803 0.535222 0.036171
C118  C     C_3   0.730718 0.545185 0.517242 -0.287366
C119  C     C_3   0.269401 0.545029 0.482723 -0.287216
C120  C     C_3   0.230599 0.045029 0.517277 -0.287215
C121  C     C_3   0.769282 0.045185 0.482758 -0.287366
C122  C     C_2   0.902837 0.366442 0.555171 0.558360
C123  C     C_2   0.097102 0.366694 0.444902 0.558188
C124  C     C_2   0.402898 0.866694 0.555098 0.558188
Cr1   Cr    Cr6+3 0.765780 0.160710 0.267420 1.102514
Cr2   Cr    Cr6+3 0.383970 0.323720 0.751490 1.085413
Cr3   Cr    Cr6+3 0.116030 0.823720 0.248510 1.085414
Cr4   Cr    Cr6+3 0.883970 0.823720 0.751490 1.070856
Cr5   Cr    Cr6+3 0.234220 0.160710 0.732580 1.111282
Cr6   Cr    Cr6+3 0.265780 0.660710 0.267420 1.111283
Cr7   Cr    Cr6+3 0.734220 0.660710 0.732580 1.102521
Cr8   Cr    Cr6+3 0.612200 0.009560 0.248850 1.146064
Cr9   Cr    Cr6+3 0.387800 0.009560 0.751150 1.148102
Cr10  Cr    Cr6+3 0.112200 0.509560 0.248850 1.148102
Cr11  Cr    Cr6+3 0.887800 0.509560 0.751150 1.146073
Cr12  Cr    Cr6+3 0.616030 0.323720 0.248510 1.070846
H1    H     H_    0.767181 0.607150 0.503148 0.093722
H2    H     H_    0.136239 0.364550 0.569245 0.217648
H3    H     H_    0.363761 0.864550 0.430755 0.217648
H4    H     H_    0.636216 0.864337 0.569185 0.217570
H5    H     H_    0.388230 0.314034 0.971924 0.136275
H6    H     H_    0.523660 0.358498 0.050831 0.150697
H7    H     H_    0.976337 0.858496 0.949170 0.150699
H8    H     H_    0.111769 0.814035 0.028076 0.136272
H9    H     H_    0.396233 0.134874 0.085609 0.151538
H10   H     H_    0.562665 0.233398 0.928762 0.166423
H11   H     H_    0.937335 0.733393 0.071240 0.166411
H12   H     H_    0.233008 0.607051 0.496875 0.093658
H13   H     H_    0.103767 0.634878 0.914392 0.151538
H14   H     H_    0.549282 0.088159 0.912544 0.219554
H15   H     H_    0.446042 0.013051 0.083807 0.209397
H16   H     H_    0.053960 0.513053 0.916192 0.209397
H17   H     H_    0.950720 0.588154 0.087455 0.219554
H18   H     H_    0.687524 0.579978 0.543764 0.192789
H19   H     H_    0.312590 0.579787 0.456178 0.192759
H20   H     H_    0.187410 0.079787 0.543822 0.192759
H21   H     H_    0.812476 0.079978 0.456236 0.192789
H22   H     H_    0.650439 0.468368 0.444841 0.201320
H23   H     H_    0.266992 0.107051 0.503125 0.093658
H24   H     H_    0.349652 0.467970 0.555046 0.201201
H25   H     H_    0.150348 0.967970 0.444954 0.201201
H26   H     H_    0.849561 0.968368 0.555159 0.201320
H27   H     H_    0.702362 0.559041 0.404370 0.151468
H28   H     H_    0.297905 0.558840 0.595573 0.151887
H29   H     H_    0.202095 0.058840 0.404427 0.151887
H30   H     H_    0.797638 0.059041 0.595630 0.151468
H31   H     H_    0.371202 0.038644 0.536290 0.066284
H32   H     H_    0.628713 0.038448 0.463659 0.066520
H33   H     H_    0.871287 0.538449 0.536341 0.066520
H34   H     H_    0.732819 0.107150 0.496852 0.093722
H35   H     H_    0.128798 0.538644 0.463710 0.066284
H36   H     H_    0.690212 0.257973 0.456540 0.126526
H37   H     H_    0.309736 0.257840 0.543375 0.126233
H38   H     H_    0.190264 0.757840 0.456625 0.126233
H39   H     H_    0.809788 0.757973 0.543460 0.126527
H40   H     H_    0.945410 0.206776 0.552478 0.355729
H41   H     H_    0.054324 0.207202 0.447732 0.355714
H42   H     H_    0.445676 0.707202 0.552268 0.355714
H43   H     H_    0.554590 0.706776 0.447521 0.355729
H44   H     H_    0.545109 0.515904 0.911336 0.354106
H45   H     H_    0.783857 0.251978 0.478277 0.146230
H46   H     H_    0.376205 0.363940 0.176100 0.351347
H47   H     H_    0.123793 0.863946 0.823901 0.351347
H48   H     H_    0.954889 0.015902 0.088666 0.354107
H49   H     H_    0.306851 0.097008 0.009212 0.132328
H50   H     H_    0.626562 0.289917 0.034444 0.111297
H51   H     H_    0.873435 0.789915 0.965580 0.111297
H52   H     H_    0.193149 0.597011 0.990788 0.132329
H53   H     H_    0.612219 0.857838 0.983938 0.349642
H54   H     H_    0.403346 0.791612 0.979865 0.372875
H55   H     H_    0.096655 0.291613 0.020132 0.372876
H56   H     H_    0.216056 0.251909 0.521779 0.146143
H57   H     H_    0.887780 0.357838 0.016060 0.349646
H58   H     H_    0.359686 0.123551 0.430981 0.142629
H59   H     H_    0.640162 0.123408 0.568968 0.142346
H60   H     H_    0.859838 0.623408 0.431032 0.142347
H61   H     H_    0.140313 0.623551 0.569019 0.142629
H62   H     H_    0.817812 0.232692 0.605399 0.156770
H63   H     H_    0.181891 0.232534 0.394788 0.156952
H64   H     H_    0.318109 0.732534 0.605211 0.156951
H65   H     H_    0.682188 0.732692 0.394601 0.156771
H66   H     H_    0.590323 0.396531 0.638826 0.343071
H67   H     H_    0.283944 0.751909 0.478221 0.146143
H68   H     H_    0.409353 0.395555 0.360670 0.343500
H69   H     H_    0.090647 0.895554 0.639330 0.343500
H70   H     H_    0.909677 0.896532 0.361174 0.343071
H71   H     H_    0.716143 0.751978 0.521723 0.146230
H72   H     H_    0.863784 0.364337 0.430815 0.217571
O1    O     O_R   0.783100 0.287550 0.345460 -0.521099
O2    O     O_R   0.454350 0.284910 0.836260 -0.490173
O3    O     O_R   0.045650 0.784910 0.163740 -0.490173
O4    O     O_R   0.954350 0.784910 0.836260 -0.500825
O5    O     O_R   0.677950 0.374280 0.185410 -0.497686
O6    O     O_R   0.322050 0.374280 0.814590 -0.474415
O7    O     O_R   0.177950 0.874280 0.185410 -0.474417
O8    O     O_R   0.822050 0.874280 0.814590 -0.497675
O9    O     O_3   0.664670 0.164660 0.254930 -0.328210
O10   O     O_3   0.335330 0.164660 0.745070 -0.338902
O11   O     O_3   0.164670 0.664660 0.254930 -0.338902
O12   O     O_R   0.216900 0.287550 0.654540 -0.522645
O13   O     O_3   0.835330 0.664660 0.745070 -0.328199
O14   O     O_R   0.760020 0.037400 0.337700 -0.462831
O15   O     O_R   0.239980 0.037400 0.662300 -0.466017
O16   O     O_R   0.260020 0.537400 0.337700 -0.466016
O17   O     O_R   0.739980 0.537400 0.662300 -0.462835
O18   O     O_R   0.666600 0.921990 0.332020 -0.477523
O19   O     O_R   0.333400 0.921990 0.667980 -0.477216
O20   O     O_R   0.166600 0.421990 0.332020 -0.477215
O21   O     O_R   0.833400 0.421990 0.667980 -0.477525
O22   O     O_R   0.557260 0.082670 0.312540 -0.470118
O23   O     O_R   0.283100 0.787550 0.345460 -0.522645
O24   O     O_R   0.442740 0.082670 0.687460 -0.466069
O25   O     O_R   0.057260 0.582670 0.312540 -0.466068
O26   O     O_R   0.942740 0.582670 0.687460 -0.470121
O27   O     O_R   0.548410 0.285740 0.316480 -0.506574
O28   O     O_R   0.451590 0.285740 0.683520 -0.512091
O29   O     O_R   0.048410 0.785740 0.316480 -0.512091
O30   O     O_R   0.951590 0.785740 0.683520 -0.506577
O31   O     O_R   0.680500 0.375040 0.327000 -0.504993
O32   O     O_R   0.319500 0.375040 0.673000 -0.506901
O33   O     O_R   0.180500 0.875040 0.327000 -0.506901
O34   O     O_R   0.716900 0.787550 0.654540 -0.521101
O35   O     O_R   0.819500 0.875040 0.673000 -0.504996
O36   O     O_R   0.780350 0.286720 0.192720 -0.474358
O37   O     O_R   0.219650 0.286720 0.807280 -0.464321
O38   O     O_R   0.280350 0.786720 0.192720 -0.464321
O39   O     O_R   0.719650 0.786720 0.807280 -0.474356
O40   O     O_R   0.757470 0.036630 0.196110 -0.474309
O41   O     O_R   0.242530 0.036630 0.803890 -0.454930
O42   O     O_R   0.257470 0.536630 0.196110 -0.454927
O43   O     O_R   0.742530 0.536630 0.803890 -0.474300
O44   O     O_R   0.663840 0.921160 0.179280 -0.453189
O45   O     O_R   0.554710 0.081900 0.170950 -0.452347
O46   O     O_R   0.336160 0.921160 0.820720 -0.466525
O47   O     O_R   0.163840 0.421160 0.179280 -0.466524
O48   O     O_R   0.836160 0.421160 0.820720 -0.453186
O49   O     O_2   0.949067 0.399964 0.597318 -0.469069
O50   O     O_R   0.904918 0.252740 0.530119 -0.756149
O51   O     O_2   0.050958 0.400229 0.402665 -0.468249
O52   O     O_R   0.094853 0.253091 0.470080 -0.755959
O53   O     O_2   0.449042 0.900228 0.597334 -0.468250
O54   O     O_R   0.405147 0.753091 0.529920 -0.755959
O55   O     O_2   0.550933 0.899964 0.402682 -0.469068
O56   O     O_R   0.445290 0.081900 0.829050 -0.449455
O57   O     O_R   0.595082 0.752740 0.469880 -0.756149
O58   O     O_2   0.424651 0.490193 0.919505 -0.472255
O59   O     O_R   0.537058 0.438232 0.933495 -0.721899
O60   O     O_2   0.414211 0.467650 0.080995 -0.483976
O61   O     O_R   0.404243 0.310480 0.148786 -0.689534
O62   O     O_2   0.085783 0.967656 0.919004 -0.483971
O63   O     O_R   0.095757 0.810484 0.851215 -0.689539
O64   O     O_2   0.075347 0.990194 0.080495 -0.472254
O65   O     O_R   0.962941 0.938230 0.066507 -0.721900
O66   O     O_2   0.312149 0.150529 0.914231 -0.549656
O67   O     O_R   0.054710 0.581900 0.170950 -0.449456
O68   O     O_2   0.679832 0.148341 0.061797 -0.520441
O69   O     O_2   0.820177 0.648347 0.938171 -0.520444
O70   O     O_2   0.187851 0.650529 0.085769 -0.549655
O71   O     O_2   0.555137 0.938191 0.073980 -0.476929
O72   O     O_R   0.609709 0.945359 0.978494 -0.680184
O73   O     O_2   0.464768 0.928924 0.918898 -0.459467
O74   O     O_R   0.392273 0.873102 0.994926 -0.708705
O75   O     O_2   0.035234 0.428924 0.081102 -0.459467
O76   O     O_R   0.107728 0.373103 0.005072 -0.708705
O77   O     O_2   0.944865 0.438190 0.926020 -0.476922
O78   O     O_R   0.945290 0.581900 0.829050 -0.452338
O79   O     O_R   0.890290 0.445359 0.021504 -0.680204
O80   O     O_2   0.363572 0.028213 0.347024 -0.428789
O81   O     O_2   0.636154 0.027993 0.652882 -0.427620
O82   O     O_2   0.863846 0.527993 0.347118 -0.427619
O83   O     O_2   0.136429 0.528213 0.652976 -0.428790
O84   O     O_2   0.735143 0.217841 0.653706 -0.442435
O85   O     O_2   0.264376 0.217606 0.346216 -0.442213
O86   O     O_2   0.235624 0.717606 0.653783 -0.442213
O87   O     O_2   0.764857 0.717840 0.346294 -0.442434
O88   O     O_2   0.609483 0.340162 0.525457 -0.582513
O89   O     O_R   0.545650 0.284910 0.163740 -0.500832
O90   O     O_R   0.641545 0.390297 0.635406 -0.604332
O91   O     O_2   0.390401 0.339989 0.474255 -0.582297
O92   O     O_R   0.358148 0.389513 0.364234 -0.608024
O93   O     O_2   0.109599 0.839989 0.525745 -0.582298
O94   O     O_R   0.141852 0.889512 0.635766 -0.608023
O95   O     O_2   0.890517 0.840162 0.474543 -0.582513
O96   O     O_R   0.858455 0.890297 0.364594 -0.604331

loop_
_geom_bond_atom_site_label_1
_geom_bond_atom_site_label_2
_ccdc_geom_bond_type
Cr9   O56   S    
C6    O62   D    
C9    O68   D    
C7    C55   S    
C74   C83   T    
Cr5   O15   S    
Cr2   O32   S    
C8    C56   S    
C49   H37   S    
C15   O76   S    
Cr5   O37   S    
C2    C123  S    
C65   O22   A    
C93   O12   A    
C93   O32   A    
Cr10  O11   S    
Cr12  O27   S    
C29   C33   S    
C45   H3    S    
C62   H9    S    
C12   O72   S    
C2    H35   S    
C54   H7    S    
C6    C54   S    
C106  O6    A    
C39   C91   S    
Cr5   O41   S    
C27   C31   S    
C42   C95   S    
C27   O91   D    
C22   H63   S    
C28   C32   S    
C99   O43   A    
C13   C124  S    
C97   O41   A    
Cr12  O9    S    
C123  O51   D    
C119  H12   S    
Cr1   O14   S    
C16   O77   D    
C75   C98   S    
C61   H10   S    
Cr5   O10   S    
C41   C94   S    
C16   C58   S    
C57   C71   S    
C56   C62   S    
C65   C110  S    
C11   C60   S    
C53   C71   S    
C39   C47   S    
C21   C30   S    
H48   O65   S    
C43   H72   S    
Cr9   O19   S    
C57   C61   S    
C69   C101  S    
C81   C119  S    
C33   C38   S    
C24   C46   S    
C13   C45   S    
Cr3   O7    S    
C64   H17   S    
C28   O93   D    
C38   C121  S    
C67   C112  S    
H46   O61   S    
C107  O7    A    
C41   C45   S    
Cr1   O40   S    
C100  O89   A    
C22   O85   D    
Cr4   O30   S    
C76   C85   T    
Cr2   O10   S    
C104  O78   A    
C113  C115  S    
C1    O18   A    
C34   C118  S    
C15   C60   S    
C47   H45   S    
C42   C103  S    
C4    O59   S    
C32   C36   S    
C36   C37   S    
C10   C58   S    
C17   C45   S    
Cr10  O47   S    
Cr5   O12   S    
C25   H65   S    
C79   C84   S    
C48   O20   A    
C51   H71   S    
C102  O3    A    
C40   C49   S    
C53   H6    S    
C2    C44   S    
C19   O82   D    
C64   C73   S    
Cr11  O48   S    
C23   O86   D    
Cr2   O28   S    
C11   O70   D    
C121  H34   S    
C19   H60   S    
C81   H24   S    
C25   O87   D    
Cr10  O67   S    
C26   O88   D    
C3    C24   S    
C59   O17   A    
C78   C83   S    
C98   O47   A    
C20   C44   S    
Cr7   O43   S    
C14   O73   D    
C58   C64   S    
Cr11  O13   S    
H47   O63   S    
C30   C34   S    
C11   H52   S    
C37   O15   A    
C9    H50   S    
H42   O54   S    
Cr1   O1    S    
C48   O16   A    
C23   H64   S    
C36   C120  S    
C99   O48   A    
Cr8   O18   S    
C122  O49   D    
C87   C105  S    
C40   C93   S    
Cr11  O26   S    
C21   O84   D    
C16   O79   S    
Cr4   O8    S    
C12   C57   S    
C17   H58   S    
C63   H16   S    
C26   C30   S    
C81   H28   S    
C104  O4    A    
C59   O21   A    
H43   O57   S    
C112  C116  T    
Cr12  O89   S    
Cr12  O5    S    
C54   C55   S    
C44   H2    S    
C6    O63   S    
Cr4   O13   S    
C77   C96   S    
C52   H5    S    
C111  C117  T    
Cr6   O16   S    
C92   C120  S    
Cr9   O24   S    
C90   C108  S    
H70   O96   S    
H40   O50   S    
C124  O53   D    
C70   C118  S    
C62   C71   S    
C118  H18   S    
C106  O37   A    
H41   O52   S    
C29   O96   S    
C55   C73   S    
C40   C44   S    
C56   C69   S    
C101  O56   A    
C25   C33   S    
C2    C35   S    
C92   H25   S    
C114  H33   S    
C107  O38   A    
Cr3   O33   S    
C91   O1    A    
C70   H27   S    
Cr3   O11   S    
C49   H56   S    
C50   H67   S    
C52   C53   S    
C94   O33   A    
H55   O76   S    
C43   C114  S    
C4    O58   D    
C60   C73   S    
C120  H20   S    
Cr1   O36   S    
C42   C46   S    
C80   C89   T    
H68   O92   S    
C52   C69   S    
Cr2   O6    S    
C15   O75   D    
C92   H29   S    
C102  O67   A    
C31   C49   S    
C35   C48   S    
C18   C46   S    
C79   C88   T    
C19   C43   S    
H53   O72   S    
C62   H15   S    
C98   O42   A    
C17   O80   D    
C72   C104  S    
C76   C97   S    
C82   C86   S    
C67   O29   A    
C1    O14   A    
C70   H22   S    
Cr10  O20   S    
C80   C85   S    
H57   O79   S    
C89   C107  S    
Cr7   O13   S    
Cr11  O78   S    
C51   H39   S    
C12   O71   D    
C28   O94   S    
C108  O8    A    
C68   O26   A    
Cr8   O45   S    
C73   C102  S    
Cr3   O29   S    
C34   C59   S    
C8    H49   S    
C31   C35   S    
C96   O44   A    
C100  O45   A    
C41   C50   S    
C46   H4    S    
C7    O64   D    
C103  H26   S    
C18   H59   S    
C27   O92   S    
C65   O27   A    
Cr9   O10   S    
Cr7   O34   S    
Cr8   O22   S    
Cr9   O46   S    
C74   C99   S    
C123  O52   S    
C33   C51   S    
C71   C100  S    
C5    O61   S    
C82   C90   T    
C23   C32   S    
Cr4   O4    S    
C66   C109  S    
Cr6   O11   S    
C75   C84   T    
C20   H61   S    
C95   O34   A    
C37   O19   A    
C63   C72   S    
C5    O60   D    
Cr11  O21   S    
Cr12  O31   S    
Cr4   O35   S    
C96   O40   A    
Cr1   O9    S    
C14   C56   S    
C3    O57   S    
C35   C119  S    
C21   H62   S    
C47   H36   S    
Cr6   O38   S    
C14   O74   S    
C108  O39   A    
C4    C52   S    
C60   C63   S    
C5    C53   S    
C24   H32   S    
C13   H31   S    
C66   O24   A    
C116  C117  S    
C26   O90   S    
Cr8   O9    S    
C63   H13   S    
C122  O50   S    
C120  H23   S    
C24   C38   S    
Cr10  O25   S    
C118  H1    S    
C61   H14   S    
C105  O36   A    
C42   C51   S    
C10   O69   D    
C121  H21   S    
C94   O23   A    
Cr6   O42   S    
C18   O81   D    
H66   O90   S    
C105  O5    A    
C22   C31   S    
C30   C47   S    
C13   C36   S    
Cr2   O2    S    
C39   C43   S    
H54   O74   S    
C66   O28   A    
C68   C111  S    
H69   O94   S    
C88   C106  S    
Cr7   O17   S    
C124  O54   S    
C10   H51   S    
C110  C113  T    
C32   C50   S    
Cr7   O39   S    
C29   O95   D    
C1    C38   S    
Cr3   O3    S    
C77   C86   T    
C3    O55   D    
C64   H11   S    
C78   C87   T    
H44   O59   S    
Cr8   O44   S    
C61   C69   S    
C67   O25   A    
C119  H19   S    
C55   H8    S    
C20   O83   D    
C40   C81   S    
C7    O65   S    
C101  O2    A    
C34   C114  S    
C50   H38   S    
C68   O30   A    
C58   C72   S    
Cr6   O23   S    
C39   C70   S    
C9    C57   S    
C109  C115  T    
C114  C122  S    
C41   C92   S    
C54   C72   S    
C103  H30   S    
C91   O31   A    
C8    O66   D    
C95   O35   A    
C97   O46   A    
C103  C121  S    
