data_mof_unit_66503.cif
_audit_creation_date              2012-12-10T19:48:42-0500
_audit_creation_method            fapswitch 2.2
_symmetry_space_group_name_H-M    P1
_symmetry_Int_Tables_number       1
_space_group_crystal_system       triclinic
_cell_length_a                    26.056734
_cell_length_b                    26.048276
_cell_length_c                    22.222783
_cell_angle_alpha                 89.999692
_cell_angle_beta                  54.126565
_cell_angle_gamma                 90.000098
_cell_volume                      12222.2297448

loop_
_atom_site_label
_atom_site_type_symbol
_atom_type_description
_atom_site_fract_x
_atom_site_fract_y
_atom_site_fract_z
_atom_type_partial_charge
Br1   Br    Br    0.481594 0.638112 0.077866 -0.446634
Br2   Br    Br    0.899323 0.563869 0.480037 -0.382932
Br3   Br    Br    0.398789 0.936138 0.481092 -0.383075
Br4   Br    Br    0.398792 0.063869 0.481084 -0.382947
Br5   Br    Br    0.659656 0.785676 0.300534 -0.439556
Br6   Br    Br    0.659663 0.214373 0.300512 -0.436098
Br7   Br    Br    0.159733 0.285071 0.300384 -0.441967
Br8   Br    Br    0.159739 0.714980 0.300362 -0.438559
Br9   Br    Br    0.600207 0.881867 0.415470 -0.413200
Br10  Br    Br    0.600241 0.118152 0.415399 -0.412640
Br11  Br    Br    0.100611 0.381660 0.414617 -0.414020
Br12  Br    Br    0.490655 0.359855 0.077851 -0.447623
Br13  Br    Br    0.100646 0.618362 0.414547 -0.413494
Br14  Br    Br    0.976492 0.137299 0.077875 -0.444238
Br15  Br    Br    0.985843 0.861033 0.077861 -0.445468
Br16  Br    Br    0.570175 0.718329 0.077967 -0.465691
Br17  Br    Br    0.572371 0.272662 0.077986 -0.465105
Br18  Br    Br    0.068644 0.213399 0.077950 -0.465990
Br19  Br    Br    0.071293 0.777490 0.077974 -0.465526
Br20  Br    Br    0.899319 0.436138 0.480047 -0.383059
C1    C     C_R   0.849433 0.750023 0.301082 0.820955
C2    C     C_R   0.445084 0.250259 0.500939 -0.030957
C3    C     C_R   0.304711 0.974075 0.465217 0.009488
C4    C     C_R   0.749263 0.554460 0.500335 -0.048895
C5    C     C_R   0.749263 0.445540 0.500336 -0.048927
C6    C     C_R   0.249260 0.054460 0.500290 -0.048700
C7    C     C_R   0.249261 0.945540 0.500290 -0.048732
C8    C     C_R   0.691636 0.527003 0.537152 -0.197526
C9    C     C_R   0.691636 0.472996 0.537152 -0.197573
C10   C     C_R   0.191647 0.027004 0.536860 -0.197269
C11   C     C_R   0.191647 0.972996 0.536860 -0.197315
C12   C     C_3   0.874908 0.470202 0.422295 0.097485
C13   C     C_R   0.945067 0.249762 0.500971 -0.031418
C14   C     C_3   0.874908 0.529799 0.422293 0.097636
C15   C     C_3   0.374855 0.970202 0.422874 0.097557
C16   C     C_3   0.374855 0.029800 0.422872 0.097709
C17   C     C_R   0.749988 0.890012 0.500093 0.813063
C18   C     C_R   0.749988 0.109988 0.500093 0.813005
C19   C     C_R   0.249998 0.390012 0.500086 0.812989
C20   C     C_R   0.249998 0.609988 0.500087 0.812946
C21   C     C_R   0.890013 0.750092 0.499997 0.830393
C22   C     C_R   0.890013 0.249908 0.499997 0.830441
C23   C     C_R   0.390015 0.250093 0.499995 0.830458
C24   C     C_R   0.945068 0.750239 0.500970 -0.031152
C25   C     C_R   0.390014 0.749907 0.499995 0.830529
C26   C     C_R   0.609965 0.750063 0.500116 0.830597
C27   C     C_R   0.609966 0.249937 0.500115 0.830376
C28   C     C_R   0.109964 0.250065 0.500118 0.830716
C29   C     C_R   0.109964 0.749936 0.500117 0.830501
C30   C     C_R   0.549857 0.779578 0.451991 0.056193
C31   C     C_R   0.549864 0.220432 0.451976 0.055574
C32   C     C_R   0.049909 0.279493 0.451883 0.056656
C33   C     C_R   0.049917 0.720519 0.451867 0.056060
C34   C     C_R   0.553884 0.750054 0.501148 -0.066195
C35   C     C_R   0.498128 0.779225 0.451750 0.029382
C36   C     C_R   0.553885 0.249945 0.501147 -0.065994
C37   C     C_R   0.053868 0.250079 0.501180 -0.066363
C38   C     C_R   0.053869 0.749922 0.501177 -0.066159
C39   C     C_R   0.500819 0.719517 0.552430 -0.200312
C40   C     C_R   0.500813 0.280471 0.552442 -0.200362
C41   C     C_R   0.000719 0.219676 0.552630 -0.200238
C42   C     C_R   0.000714 0.780314 0.552640 -0.200287
C43   C     C_R   0.498134 0.220784 0.451736 0.028908
C44   C     C_R   0.998180 0.279136 0.451642 0.029691
C45   C     C_R   0.998187 0.720876 0.451627 0.029222
C46   C     C_3   0.525809 0.815170 0.387754 -0.463431
C47   C     C_3   0.525824 0.184856 0.387722 -0.462334
C48   C     C_3   0.025990 0.314856 0.387384 -0.464087
C49   C     C_R   0.849433 0.249977 0.301082 0.820896
C50   C     C_3   0.026004 0.685171 0.387352 -0.462976
C51   C     C_3   0.584766 0.815941 0.388174 0.477379
C52   C     C_3   0.584782 0.184085 0.388140 0.477283
C53   C     C_3   0.084946 0.315635 0.387802 0.477456
C54   C     C_3   0.084962 0.684393 0.387768 0.477344
C55   C     C_3   0.467917 0.737147 0.956993 -0.386093
C56   C     C_3   0.469133 0.267219 0.956992 -0.386170
C57   C     C_3   0.967397 0.239618 0.956995 -0.385909
C58   C     C_3   0.968441 0.764901 0.956992 -0.386011
C59   C     C_3   0.539551 0.802020 0.957078 -0.384256
C60   C     C_R   0.349434 0.250023 0.301082 0.821089
C61   C     C_3   0.535214 0.196691 0.957078 -0.384504
C62   C     C_3   0.041920 0.301147 0.957079 -0.384273
C63   C     C_3   0.037544 0.697337 0.957079 -0.384528
C64   C     C_3   0.495837 0.802114 0.043142 -0.425542
C65   C     C_3   0.491500 0.196655 0.043142 -0.425683
C66   C     C_3   0.998205 0.301275 0.043143 -0.425542
C67   C     C_3   0.993826 0.697268 0.043143 -0.425727
C68   C     C_1   0.389340 0.749713 0.221703 -0.058609
C69   C     C_1   0.389348 0.250283 0.221703 -0.058479
C70   C     C_1   0.889336 0.249710 0.221703 -0.058781
C71   C     C_R   0.349433 0.749977 0.301082 0.821064
C72   C     C_1   0.889344 0.750286 0.221703 -0.058625
C73   C     C_3   0.537402 0.749111 0.926759 0.240354
C74   C     C_3   0.537456 0.250840 0.926760 0.240712
C75   C     C_3   0.037372 0.249084 0.926760 0.240155
C76   C     C_3   0.037429 0.750869 0.926760 0.240469
C77   C     C_R   0.650577 0.749999 0.698937 0.827699
C78   C     C_R   0.650578 0.250001 0.698937 0.827710
C79   C     C_R   0.150577 0.249998 0.698937 0.827711
C80   C     C_R   0.150578 0.750001 0.698937 0.827721
C81   C     C_3   0.424819 0.737798 0.043063 -0.402812
C82   C     C_R   0.446867 0.719404 0.552382 -0.203086
C83   C     C_3   0.425978 0.266569 0.043061 -0.402949
C84   C     C_3   0.924330 0.240263 0.043065 -0.402812
C85   C     C_3   0.925316 0.764253 0.043062 -0.402784
C86   C     C_3   0.464575 0.748599 0.073227 0.194378
C87   C     C_3   0.464666 0.251318 0.073227 0.194689
C88   C     C_3   0.964523 0.248554 0.073227 0.194239
C89   C     C_3   0.964619 0.751364 0.073227 0.194497
C90   C     C_3   0.517748 0.706767 0.042576 0.485347
C91   C     C_3   0.521133 0.289913 0.042577 0.485084
C92   C     C_3   0.015751 0.205039 0.042574 0.485322
C93   C     C_R   0.446861 0.280585 0.552395 -0.203202
C94   C     C_3   0.019361 0.791721 0.042577 0.485073
C95   C     C_3   0.560382 0.707584 0.955896 -0.412111
C96   C     C_3   0.563711 0.289150 0.955897 -0.412180
C97   C     C_3   0.058417 0.205882 0.955894 -0.411998
C98   C     C_3   0.061967 0.790930 0.955896 -0.412052
C99   C     C_1   0.423087 0.749306 0.154906 -0.005251
C100  C     C_1   0.423121 0.250667 0.154906 -0.005217
C101  C     C_1   0.923068 0.249290 0.154906 -0.005407
C102  C     C_1   0.923103 0.750683 0.154906 -0.005337
C103  C     C_1   0.577854 0.749540 0.845168 -0.079886
C104  C     C_R   0.946766 0.219561 0.552582 -0.202940
C105  C     C_1   0.577876 0.250440 0.845168 -0.079918
C106  C     C_1   0.077842 0.249529 0.845169 -0.079822
C107  C     C_1   0.077866 0.750453 0.845168 -0.079847
C108  C     C_1   0.611050 0.749807 0.778354 -0.121638
C109  C     C_1   0.611056 0.250188 0.778353 -0.121640
C110  C     C_1   0.111048 0.249804 0.778354 -0.121581
C111  C     C_1   0.111054 0.750192 0.778354 -0.121575
C112  C     C_R   0.746391 0.974105 0.450769 0.109866
C113  C     C_R   0.746391 0.025896 0.450769 0.109554
C114  C     C_R   0.246397 0.474104 0.450761 0.109956
C115  C     C_R   0.946761 0.780429 0.552593 -0.203049
C116  C     C_R   0.246397 0.525897 0.450761 0.109671
C117  C     C_R   0.749067 0.945554 0.501568 -0.063974
C118  C     C_R   0.749067 0.054447 0.501568 -0.063976
C119  C     C_R   0.249175 0.445554 0.501487 -0.064029
C120  C     C_R   0.249175 0.554446 0.501487 -0.064031
C121  C     C_R   0.751024 0.972995 0.555041 -0.210676
C122  C     C_R   0.751024 0.027004 0.555042 -0.210635
C123  C     C_R   0.251342 0.472996 0.554811 -0.210878
C124  C     C_R   0.251342 0.527004 0.554811 -0.210840
C125  C     C_R   0.749973 0.610028 0.500114 0.831576
C126  C     C_R   0.445084 0.749741 0.500939 -0.031220
C127  C     C_R   0.749973 0.389972 0.500114 0.831692
C128  C     C_R   0.249973 0.110028 0.500111 0.831754
C129  C     C_R   0.249973 0.889972 0.500111 0.831867
C130  C     C_3   0.747072 0.029565 0.383441 -0.403001
C131  C     C_3   0.747072 0.970438 0.383441 -0.404034
C132  C     C_3   0.246590 0.529564 0.383769 -0.403785
C133  C     C_3   0.246590 0.470438 0.383769 -0.404769
C134  C     C_R   0.804728 0.525926 0.465062 0.009625
C135  C     C_R   0.804728 0.474074 0.465063 0.009703
C136  C     C_R   0.304711 0.025926 0.465217 0.009409
H1    H     H_    0.500797 0.695750 0.592428 0.177290
H2    H     H_    0.613143 0.278261 0.933640 0.198094
H3    H     H_    0.108928 0.211793 0.933620 0.198354
H4    H     H_    0.111841 0.781733 0.933634 0.198167
H5    H     H_    0.465100 0.698815 0.936956 0.197115
H6    H     H_    0.469498 0.306477 0.936961 0.197132
H7    H     H_    0.962842 0.201914 0.936951 0.197313
H8    H     H_    0.967098 0.803697 0.936954 0.197322
H9    H     H_    0.752755 0.953014 0.596554 0.178216
H10   H     H_    0.752755 0.046985 0.596554 0.178247
H11   H     H_    0.253199 0.453017 0.596235 0.178150
H12   H     H_    0.500785 0.304229 0.592451 0.177155
H13   H     H_    0.253199 0.546982 0.596236 0.178180
H14   H     H_    0.702783 0.046588 0.395791 0.259703
H15   H     H_    0.702783 0.953415 0.395790 0.259744
H16   H     H_    0.202157 0.546577 0.396519 0.259637
H17   H     H_    0.202158 0.453424 0.396518 0.259686
H18   H     H_    0.791783 0.046579 0.335412 0.223711
H19   H     H_    0.791783 0.953424 0.335411 0.223144
H20   H     H_    0.291166 0.546584 0.335525 0.223363
H21   H     H_    0.291166 0.453419 0.335526 0.222784
H22   H     H_    0.896715 0.453242 0.366361 0.107356
H23   H     H_    0.000635 0.196010 0.592754 0.177427
H24   H     H_    0.896714 0.546757 0.366357 0.107634
H25   H     H_    0.396916 0.953239 0.366889 0.107852
H26   H     H_    0.396914 0.046762 0.366887 0.108146
H27   H     H_    0.533458 0.796320 0.338225 0.221328
H28   H     H_    0.533468 0.203719 0.338202 0.222152
H29   H     H_    0.033578 0.295830 0.337990 0.220811
H30   H     H_    0.033586 0.704209 0.337968 0.221681
H31   H     H_    0.499736 0.852138 0.403788 0.254474
H32   H     H_    0.499761 0.147884 0.403737 0.254377
H33   H     H_    0.000046 0.351878 0.403144 0.254578
H34   H     H_    0.000626 0.803971 0.592774 0.177292
H35   H     H_    0.000069 0.648146 0.403096 0.254472
H36   H     H_    0.450544 0.766007 0.935880 0.186833
H37   H     H_    0.449493 0.240749 0.935871 0.186931
H38   H     H_    0.951368 0.269727 0.935890 0.186676
H39   H     H_    0.949987 0.737131 0.935877 0.186855
H40   H     H_    0.588955 0.810979 0.937107 0.193308
H41   H     H_    0.583752 0.184528 0.937102 0.193100
H42   H     H_    0.091691 0.308292 0.937114 0.193317
H43   H     H_    0.086576 0.686877 0.937109 0.193125
H44   H     H_    0.524197 0.832704 0.935964 0.182462
H45   H     H_    0.559988 0.669478 0.933570 0.200334
H46   H     H_    0.517429 0.168231 0.935970 0.182685
H47   H     H_    0.028001 0.332985 0.935962 0.182255
H48   H     H_    0.021037 0.667665 0.935965 0.182477
H49   H     H_    0.458548 0.831930 0.062972 0.184081
H50   H     H_    0.451865 0.169177 0.062978 0.184555
H51   H     H_    0.962303 0.332308 0.062968 0.183752
H52   H     H_    0.955419 0.668520 0.062973 0.184186
H53   H     H_    0.523540 0.813239 0.064587 0.217579
H54   H     H_    0.518171 0.182429 0.064582 0.217169
H55   H     H_    0.026371 0.310641 0.064593 0.217675
H56   H     H_    0.566487 0.328075 0.933565 0.200421
H57   H     H_    0.021076 0.684684 0.064588 0.217296
H58   H     H_    0.399226 0.700652 0.064443 0.225651
H59   H     H_    0.403466 0.304808 0.064446 0.224914
H60   H     H_    0.897066 0.203831 0.064438 0.226182
H61   H     H_    0.901152 0.801941 0.064441 0.225453
H62   H     H_    0.406944 0.695617 0.592405 0.176060
H63   H     H_    0.406933 0.304363 0.592428 0.175915
H64   H     H_    0.906780 0.195874 0.592730 0.176197
H65   H     H_    0.906770 0.804107 0.592750 0.176054
H66   H     H_    0.646733 0.546996 0.565637 0.174459
H67   H     H_    0.056286 0.168344 0.933575 0.200429
H68   H     H_    0.646733 0.453003 0.565637 0.174431
H69   H     H_    0.146757 0.046999 0.565164 0.174494
H70   H     H_    0.146758 0.952999 0.565164 0.174465
H71   H     H_    0.387961 0.768006 0.062900 0.193570
H72   H     H_    0.386744 0.238664 0.062891 0.194577
H73   H     H_    0.888870 0.271664 0.062910 0.192856
H74   H     H_    0.887325 0.735096 0.062898 0.193980
H75   H     H_    0.063040 0.829450 0.933569 0.200527
H76   H     H_    0.610579 0.715293 0.933630 0.198258
O1    O     O_3   0.750020 0.750020 0.500000 -0.500177
O2    O     O_R   0.741140 0.134170 0.457020 -0.622038
O3    O     O_R   0.241140 0.365830 0.457020 -0.622287
O4    O     O_R   0.241140 0.634170 0.457020 -0.622195
O5    O     O_R   0.862350 0.719680 0.336040 -0.641386
O6    O     O_R   0.862350 0.280320 0.336040 -0.642595
O7    O     O_R   0.362350 0.219680 0.336040 -0.640731
O8    O     O_R   0.362350 0.780320 0.336040 -0.641931
O9    O     O_R   0.698420 0.780360 0.663960 -0.637705
O10   O     O_R   0.698420 0.219640 0.663960 -0.637536
O11   O     O_R   0.198420 0.280360 0.663960 -0.637844
O12   O     O_3   0.750020 0.249980 0.500000 -0.500144
O13   O     O_R   0.198420 0.719640 0.663960 -0.637674
O14   O     O_R   0.801620 0.780400 0.336040 -0.606989
O15   O     O_R   0.801620 0.219600 0.336040 -0.605877
O16   O     O_R   0.301620 0.280400 0.336040 -0.607551
O17   O     O_R   0.301620 0.719600 0.336040 -0.606473
O18   O     O_R   0.637700 0.719640 0.663960 -0.633115
O19   O     O_R   0.637700 0.280360 0.663960 -0.633277
O20   O     O_R   0.137700 0.219640 0.663960 -0.632936
O21   O     O_R   0.137700 0.780360 0.663960 -0.633099
O22   O     O_R   0.801870 0.634220 0.457010 -0.625736
O23   O     O_3   0.250020 0.250020 0.500000 -0.500189
O24   O     O_R   0.801870 0.365780 0.457010 -0.625767
O25   O     O_R   0.301870 0.134220 0.457010 -0.625870
O26   O     O_R   0.301870 0.865780 0.457010 -0.625910
O27   O     O_R   0.758890 0.865820 0.542980 -0.652925
O28   O     O_R   0.758890 0.134180 0.542980 -0.652940
O29   O     O_R   0.258890 0.365820 0.542980 -0.652981
O30   O     O_R   0.258890 0.634180 0.542980 -0.652995
O31   O     O_R   0.887320 0.719660 0.457000 -0.620243
O32   O     O_R   0.887320 0.280340 0.457000 -0.620417
O33   O     O_R   0.387320 0.219660 0.457000 -0.620243
O34   O     O_3   0.250020 0.749980 0.500000 -0.500156
O35   O     O_R   0.387320 0.780340 0.457000 -0.620412
O36   O     O_R   0.655700 0.780400 0.457020 -0.597905
O37   O     O_R   0.655700 0.219600 0.457020 -0.598014
O38   O     O_R   0.155700 0.280400 0.457020 -0.597846
O39   O     O_R   0.155700 0.719600 0.457020 -0.597961
O40   O     O_R   0.844340 0.780370 0.542980 -0.654018
O41   O     O_R   0.844340 0.219630 0.542980 -0.653920
O42   O     O_R   0.344340 0.280370 0.542980 -0.654094
O43   O     O_R   0.344340 0.719630 0.542980 -0.653996
O44   O     O_R   0.612730 0.719670 0.543000 -0.659049
O45   O     O_R   0.698170 0.634220 0.542990 -0.650488
O46   O     O_R   0.612730 0.280330 0.543000 -0.659080
O47   O     O_R   0.112730 0.219670 0.543000 -0.659002
O48   O     O_R   0.112730 0.780330 0.543000 -0.659035
O49   O     O_R   0.698170 0.365780 0.542990 -0.650484
O50   O     O_R   0.198170 0.134220 0.542990 -0.650334
O51   O     O_R   0.198170 0.865780 0.542990 -0.650329
O52   O     O_R   0.741140 0.865830 0.457020 -0.622126
Zn1   Zn    Zn3+2 0.675940 0.706640 0.561420 0.981786
Zn2   Zn    Zn3+2 0.762700 0.206610 0.561410 0.979950
Zn3   Zn    Zn3+2 0.262700 0.293390 0.561410 0.979609
Zn4   Zn    Zn3+2 0.262700 0.706610 0.561410 0.979771
Zn5   Zn    Zn3+2 0.737340 0.793410 0.438590 1.037932
Zn6   Zn    Zn3+2 0.737340 0.206590 0.438590 1.038508
Zn7   Zn    Zn3+2 0.237340 0.293410 0.438590 1.037525
Zn8   Zn    Zn3+2 0.237340 0.706590 0.438590 1.038092
Zn9   Zn    Zn3+2 0.675940 0.293360 0.561420 0.981641
Zn10  Zn    Zn3+2 0.175940 0.206640 0.561420 0.982116
Zn11  Zn    Zn3+2 0.175940 0.793360 0.561420 0.981968
Zn12  Zn    Zn3+2 0.824100 0.706650 0.438580 1.008562
Zn13  Zn    Zn3+2 0.824100 0.293350 0.438580 1.007763
Zn14  Zn    Zn3+2 0.324100 0.206650 0.438580 1.008989
Zn15  Zn    Zn3+2 0.324100 0.793350 0.438580 1.008203
Zn16  Zn    Zn3+2 0.762700 0.793390 0.561410 0.979802

loop_
_geom_bond_atom_site_label_1
_geom_bond_atom_site_label_2
_ccdc_geom_bond_type
Br4   C16   S    
O14   Zn5   S    
C97   H3    S    
C98   H4    S    
C116  C120  A    
C104  H64   S    
C42   H34   S    
C41   C104  A    
C62   H42   S    
O23   Zn10  S    
C78   O19   A    
C123  C124  A    
C133  H17   S    
O48   Zn11  S    
C21   O40   A    
C80   O13   A    
C56   C74   S    
C2    C93   A    
C33   C54   S    
C58   C76   S    
C50   C54   S    
O31   Zn12  S    
C88   C101  S    
O16   Zn7   S    
Br2   C14   S    
C24   C115  A    
C12   H22   S    
C116  C132  S    
C4    C134  A    
O44   Zn1   S    
C5    C9    A    
C66   C88   S    
C7    C11   A    
Br9   C51   S    
C66   H55   S    
C84   H60   S    
Br7   C53   S    
C19   O29   A    
O38   Zn7   S    
C64   H53   S    
C29   O48   A    
C112  C117  A    
C124  H13   S    
C76   C107  S    
O34   Zn11  S    
C12   C14   S    
Br1   C90   S    
C69   C100  T    
Br8   C54   S    
C18   C118  S    
C5    C127  S    
C68   C99   T    
C6    C128  S    
C17   O52   A    
C134  C135  A    
C29   O39   A    
C41   H23   S    
C85   H61   S    
C125  O22   A    
C87   C100  S    
C55   C73   S    
C59   H44   S    
C39   C82   A    
C125  O45   A    
C17   O27   A    
C63   H48   S    
C18   O28   A    
C66   H51   S    
C33   C38   A    
C37   C41   A    
C61   H46   S    
C15   H25   S    
C81   H71   S    
C85   H74   S    
O46   Zn9   S    
C84   H73   S    
C130  H14   S    
C48   H33   S    
C95   H45   S    
O15   Zn6   S    
C107  C111  T    
C78   O10   A    
C29   C38   S    
C105  C109  T    
O25   Zn14  S    
C25   O35   A    
C96   H56   S    
C55   C81   S    
C83   C87   S    
O28   Zn2   S    
O29   Zn3   S    
C1    C72   S    
C9    H68   S    
O30   Zn4   S    
O12   Zn2   S    
C28   C37   S    
C23   O42   A    
C75   C97   S    
Br14  C92   S    
O33   Zn14  S    
C13   C22   S    
C44   C48   S    
O12   Zn13  S    
O3    Zn7   S    
C4    C125  S    
C59   C64   S    
C132  H16   S    
O8    Zn15  S    
C45   C50   S    
C20   C120  S    
C131  H15   S    
C78   C109  S    
C47   C52   S    
O23   Zn7   S    
O49   Zn9   S    
C2    C43   A    
C119  C123  A    
C49   O15   A    
O51   Zn11  S    
O35   Zn15  S    
C33   C45   A    
O26   Zn15  S    
C28   O38   A    
C24   C45   A    
C77   C108  S    
Br17  C91   S    
O9    Zn16  S    
C34   C39   A    
C115  H65   S    
C133  H21   S    
C114  C119  A    
O45   Zn1   S    
C42   C115  A    
C96   H2    S    
C72   C102  T    
C122  H10   S    
C2    C23   S    
C68   C71   S    
Br3   C15   S    
C98   H75   S    
C129  O51   A    
C123  H11   S    
C95   H76   S    
C89   C94   S    
C8    H66   S    
C6    C10   A    
C70   C101  T    
O1    Zn5   S    
Br20  C12   S    
C74   C105  S    
C81   C86   S    
C85   C89   S    
C62   C75   S    
C1    O5    A    
C87   C91   S    
C113  C130  S    
C4    C8    A    
O34   Zn8   S    
C1    O14   A    
C121  H9    S    
O1    Zn12  S    
C92   C97   S    
C55   H5    S    
C61   C74   S    
C75   C106  S    
C56   C83   S    
C63   C76   S    
Br11  C53   S    
C67   H52   S    
C82   H62   S    
O6    Zn13  S    
O34   Zn4   S    
C62   H47   S    
C132  C133  S    
C26   O36   A    
C11   H70   S    
C130  C131  S    
O36   Zn5   S    
C46   H31   S    
C61   C65   S    
O11   Zn3   S    
C27   C36   S    
Br10  C52   S    
C38   C42   A    
C63   C67   S    
C46   H27   S    
C86   C99   S    
C14   H24   S    
C15   C16   S    
C128  O25   A    
Br16  C90   S    
Br6   C52   S    
C30   C34   A    
C60   O7    A    
C8    C9    A    
Br18  C92   S    
C23   O33   A    
C61   H41   S    
C10   C11   A    
O12   Zn9   S    
C106  C110  T    
O23   Zn3   S    
C60   C69   S    
O10   Zn2   S    
C56   H6    S    
O1    Zn1   S    
C71   O8    A    
C13   C104  A    
C64   C86   S    
C60   O16   A    
C91   C96   S    
C49   O6    A    
O40   Zn16  S    
C20   O4    A    
O34   Zn15  S    
C113  C118  A    
C3    C136  A    
O41   Zn2   S    
O43   Zn4   S    
C50   H35   S    
C14   C134  S    
C19   C119  S    
C131  H19   S    
C31   C43   A    
C22   O32   A    
C118  C122  A    
C74   C96   S    
O50   Zn10  S    
C35   C126  A    
Br19  C94   S    
C83   H72   S    
C62   C66   S    
C36   C40   A    
C57   H38   S    
O5    Zn12  S    
C27   O37   A    
C46   C51   S    
C81   H58   S    
C26   C34   S    
O23   Zn14  S    
O12   Zn6   S    
O52   Zn5   S    
C3    C15   S    
C32   C44   A    
C21   C24   S    
C16   H26   S    
C31   C52   S    
C80   O21   A    
C83   H59   S    
O39   Zn8   S    
C84   C88   S    
C35   C46   S    
C47   H32   S    
C16   C136  S    
C71   O17   A    
C28   O47   A    
C117  C121  A    
C79   C110  S    
C120  C124  A    
C79   O20   A    
C18   O2    A    
C77   O18   A    
C67   C89   S    
Br5   C51   S    
C25   O43   A    
C39   H1    S    
O18   Zn1   S    
O2    Zn6   S    
C79   O11   A    
C32   C37   A    
C77   O9    A    
C114  C133  S    
C88   C92   S    
O37   Zn6   S    
Br13  C54   S    
C112  C131  S    
C57   C84   S    
O42   Zn3   S    
C90   C95   S    
C57   H7    S    
C58   H8    S    
O1    Zn16  S    
C5    C135  A    
C6    C136  A    
C30   C51   S    
C65   H54   S    
C80   C111  S    
C40   H12   S    
C128  O50   A    
C58   C85   S    
O20   Zn10  S    
C76   C98   S    
O21   Zn11  S    
C59   C73   S    
O22   Zn12  S    
C127  O49   A    
C89   C102  S    
C127  O24   A    
C31   C36   A    
C73   C95   S    
C22   O41   A    
C20   O30   A    
C64   H49   S    
C112  C113  A    
C73   C103  S    
C3    C7    A    
C27   O46   A    
O7    Zn14  S    
C7    C129  S    
C17   C117  S    
O13   Zn4   S    
C10   H69   S    
C40   C93   A    
C65   H50   S    
C43   C47   S    
O27   Zn16  S    
C25   C126  S    
O19   Zn9   S    
C21   O31   A    
O32   Zn13  S    
C32   C53   S    
C56   H37   S    
C50   H30   S    
C114  C116  A    
C48   C53   S    
O17   Zn8   S    
C57   C75   S    
C26   O44   A    
C59   H40   S    
C12   C135  S    
C67   H57   S    
Br15  C94   S    
O4    Zn8   S    
C94   C98   S    
C130  H18   S    
C48   H29   S    
C97   H67   S    
C63   H43   S    
C49   C70   S    
C86   C90   S    
O47   Zn10  S    
C30   C35   A    
C55   H36   S    
O24   Zn13  S    
C121  C122  A    
C82   C126  A    
C19   O3    A    
C103  C108  T    
C13   C44   A    
C58   H39   S    
C129  O26   A    
C47   H28   S    
C132  H20   S    
C65   C87   S    
C93   H63   S    
Br12  C91   S    
