data_mof_unit_12826.cif
_audit_creation_date              2012-10-26T18:29:55-0400
_audit_creation_method            fapswitch 2.2
_symmetry_space_group_name_H-M    P1
_symmetry_Int_Tables_number       1
_space_group_crystal_system       triclinic
_cell_length_a                    10.891619
_cell_length_b                    13.040446
_cell_length_c                    11.810295
_cell_angle_alpha                 99.133687
_cell_angle_beta                  93.096069
_cell_angle_gamma                 95.380973
_cell_volume                      1644.81237368

loop_
_atom_site_label
_atom_site_type_symbol
_atom_type_description
_atom_site_fract_x
_atom_site_fract_y
_atom_site_fract_z
_atom_type_partial_charge
C1    C     C_R   0.503196 0.298592 0.476545 0.584423
C2    C     C_R   0.520738 0.029461 0.547464 -0.078247
C3    C     C_R   0.465919 0.964694 0.447630 -0.049501
C4    C     C_R   0.259843 0.492918 0.499854 0.649572
C5    C     C_R   0.449868 0.856960 0.443658 -0.089191
C6    C     C_R   0.534456 0.878847 0.640676 0.444265
C7    C     C_R   0.550917 0.986426 0.645362 0.480227
C8    C     C_R   0.387795 0.390234 0.026044 -0.022789
C9    C     C_R   0.394254 0.405388 0.146923 0.583477
C10   C     C_R   0.527543 0.561460 0.154674 0.342246
C11   C     C_R   0.502637 0.556442 0.032611 -0.076503
C12   C     C_3   0.877513 0.489251 0.493670 -0.163619
C13   C     C_R   0.453155 0.462455 0.968036 -0.142220
C14   C     C_R   0.479743 0.440180 0.850017 0.328257
C15   C     C_R   0.566347 0.614610 0.855159 0.361586
C16   C     C_R   0.496812 0.700084 0.521791 0.589102
C17   C     C_R   0.538302 0.637181 0.970659 0.429241
C18   C     C_R   0.739627 0.495826 0.498156 0.647267
C19   C     C_3   0.060624 0.396645 0.565994 0.265507
C20   C     C_3   0.916184 0.398542 0.555104 0.148699
C21   C     C_3   0.087326 0.597903 0.550592 0.677532
C22   C     C_3   0.063951 0.465855 0.370331 0.656839
C23   C     C_3   0.946557 0.593983 0.561442 0.738286
C24   C     C_3   0.121323 0.486867 0.499106 -0.169758
C25   C     C_3   0.921196 0.472644 0.365917 0.466128
C26   C     C_R   0.492679 0.813191 0.536445 -0.049164
C27   C     C_R   0.504951 0.182494 0.455810 -0.041147
C28   C     C_R   0.436919 0.007346 0.350124 0.436161
C29   C     C_R   0.465499 0.114227 0.349129 0.213124
C30   C     C_R   0.542523 0.136197 0.548677 -0.078462
Cu1   Cu    Cu3+1 0.509350 0.507730 0.615930 1.273834
Cu2   Cu    Cu3+1 0.490650 0.492270 0.384070 1.299262
F1    F     F_    0.900358 0.561784 0.320655 -0.448355
F2    F     F_    0.150971 0.636341 0.655513 -0.481326
F3    F     F_    0.925624 0.603148 0.676439 -0.454190
F4    F     F_    0.115689 0.538719 0.307590 -0.439455
F5    F     F_    0.095792 0.371704 0.315770 -0.476537
F6    F     F_    0.122525 0.669814 0.480329 -0.478688
F7    F     F_    0.902579 0.679132 0.521874 -0.513246
F8    F     F_    0.559306 0.840130 0.738199 -0.504428
F9    F     F_    0.386320 0.943243 0.253207 -0.498864
F10   F     F_    0.596635 0.048122 0.745228 -0.481413
F11   F     F_    0.547957 0.738715 0.020687 -0.466922
F12   F     F_    0.317807 0.344967 0.201362 -0.486178
F13   F     F_    0.866858 0.406019 0.661277 -0.512356
H1    H     H_    0.407772 0.806476 0.366997 0.260154
H2    H     H_    0.744157 0.739210 0.379290 0.394451
H3    H     H_    0.717804 0.370978 0.110739 0.379603
H4    H     H_    0.591825 0.182868 0.621995 0.276693
H5    H     H_    0.332426 0.322325 0.977982 0.213307
H6    H     H_    0.871075 0.323864 0.507573 0.211143
H7    H     H_    0.063080 0.326912 0.858433 0.381704
H8    H     H_    0.609919 0.048287 0.153893 0.375126
H9    H     H_    0.721460 0.364577 0.814710 0.402439
H10   H     H_    0.034456 0.146301 0.357298 0.412673
H11   H     H_    0.786719 0.766188 0.703584 0.414539
N1    N     N_R   0.523430 0.519360 0.790130 -0.305184
N2    N     N_R   0.476570 0.480640 0.209880 -0.251607
O1    O     O_R   0.506640 0.354460 0.582000 -0.449640
O2    O     O_2   0.101566 0.514682 0.787767 -0.095448
O3    O     O_3   0.025134 0.321546 0.779285 -0.365321
O4    O     O_2   0.335751 0.149851 0.163501 -0.091301
O5    O     O_2   0.543778 0.244983 0.199027 -0.231312
O6    O     O_3   0.524288 0.049084 0.121400 -0.322946
O7    O     O_2   0.551577 0.264016 0.917980 -0.218873
O8    O     O_2   0.427578 0.245890 0.737020 -0.190269
O9    O     O_3   0.661481 0.328122 0.751820 -0.452750
O10   O     O_2   0.226806 0.268897 0.468456 -0.245917
O11   O     O_2   0.083576 0.192519 0.590694 -0.149487
O12   O     O_R   0.490840 0.341410 0.386200 -0.433939
O13   O     O_3   0.000343 0.211792 0.389077 -0.442770
O14   O     O_2   0.734096 0.784152 0.909669 -0.102026
O15   O     O_2   0.808456 0.613692 0.862116 -0.139994
O16   O     O_3   0.727303 0.702748 0.696251 -0.420967
O17   O     O_2   0.740321 0.680361 0.143669 -0.129840
O18   O     O_2   0.573423 0.766847 0.234171 -0.218945
O19   O     O_3   0.707144 0.666620 0.351526 -0.406570
O20   O     O_2   0.916932 0.311365 0.180212 -0.117468
O21   O     O_2   0.768590 0.286395 0.323741 -0.301215
O22   O     O_3   0.730567 0.417759 0.186045 -0.432573
O23   O     O_R   0.325590 0.506510 0.597900 -0.453122
O24   O     O_R   0.309790 0.493450 0.402100 -0.395436
O25   O     O_R   0.509160 0.658590 0.613800 -0.430745
O26   O     O_R   0.493360 0.645540 0.418000 -0.500116
O27   O     O_R   0.690210 0.506550 0.597900 -0.390138
O28   O     O_R   0.674410 0.493490 0.402100 -0.417528
O29   O     O_2   0.243055 0.383681 0.731277 -0.256437
S1    S     S_3+6 0.112304 0.409199 0.719196 0.198585
S2    S     S_3+6 0.466677 0.145707 0.207846 0.199336
S3    S     S_3+6 0.527166 0.314382 0.813979 0.090840
S4    S     S_3+6 0.096434 0.265042 0.504005 0.127428
S5    S     S_3+6 0.711040 0.680596 0.830926 0.239760
S6    S     S_3+6 0.637831 0.669223 0.222634 0.180784
S7    S     S_3+6 0.835305 0.365949 0.263802 0.188839

loop_
_geom_bond_atom_site_label_1
_geom_bond_atom_site_label_2
_ccdc_geom_bond_type
O29   S1    D    
C8    C13   A    
Cu1   O27   S    
C27   C29   A    
C2    C7    A    
Cu2   N2    S    
C29   S2    S    
O2    S1    D    
O8    S3    D    
C12   C23   S    
C18   O28   A    
C28   C29   A    
C10   N2    A    
C20   H6    S    
H7    O3    S    
C1    O1    A    
O14   S5    D    
H8    O6    S    
C23   F7    S    
Cu1   O1    S    
O4    S2    D    
C28   F9    S    
C16   O26   A    
O10   S4    D    
Cu1   O25   S    
C9    N2    A    
C7    F10   S    
O16   S5    S    
C14   S3    S    
C15   S5    S    
C11   C17   A    
C4    O23   A    
C19   C20   S    
C8    C9    A    
C22   C25   S    
C20   F13   S    
C25   S7    S    
C13   C14   A    
C27   C30   A    
C15   N1    A    
O5    S2    D    
O6    S2    S    
C16   C26   S    
O7    S3    D    
Cu2   O26   S    
C18   O27   A    
H11   O16   S    
C21   F6    S    
O21   S7    D    
C19   S1    S    
Cu2   O12   S    
C21   F2    S    
C10   S6    S    
C22   F5    S    
C16   O25   A    
C17   F11   S    
O3    S1    S    
O18   S6    D    
Cu1   Cu2   S    
Cu2   O28   S    
C12   C20   S    
O13   S4    S    
C30   H4    S    
C23   F3    S    
C21   C23   S    
C6    F8    S    
H2    O19   S    
O22   S7    S    
C8    H5    S    
Cu2   O24   S    
O17   S6    D    
C15   C17   A    
C14   N1    A    
C3    C28   A    
C9    F12   S    
O15   S5    D    
C3    C5    A    
C6    C7    A    
H9    O9    S    
C22   F4    S    
C5    H1    S    
C1    O12   A    
Cu1   O23   S    
C12   C25   S    
C2    C30   A    
H3    O22   S    
C2    C3    A    
C11   C13   A    
Cu1   N1    S    
C6    C26   A    
O20   S7    D    
C4    C24   S    
O19   S6    S    
C19   C24   S    
C22   C24   S    
O9    S3    S    
C19   S4    S    
C10   C11   A    
C5    C26   A    
C4    O24   A    
C21   C24   S    
C12   C18   S    
C1    C27   S    
O11   S4    D    
H10   O13   S    
C25   F1    S    
