data_mof_unit_35169.cif
_audit_creation_date              2012-12-10T19:11:30-0500
_audit_creation_method            fapswitch 2.2
_symmetry_space_group_name_H-M    P1
_symmetry_Int_Tables_number       1
_space_group_crystal_system       triclinic
_cell_length_a                    10.62769
_cell_length_b                    9.707926
_cell_length_c                    10.502759
_cell_angle_alpha                 90.340754
_cell_angle_beta                  89.564318
_cell_angle_gamma                 90.001383
_cell_volume                      1083.54885757

loop_
_atom_site_label
_atom_site_type_symbol
_atom_type_description
_atom_site_fract_x
_atom_site_fract_y
_atom_site_fract_z
_atom_type_partial_charge
C1    C     C_R   0.257687 0.499741 0.502165 0.834661
C2    C     C_3   0.499481 0.499067 0.122111 -0.009825
C3    C     C_3   0.071443 0.583940 0.618390 -0.406296
C4    C     C_3   0.071548 0.348649 0.514455 -0.399944
C5    C     C_3   0.926972 0.585926 0.616645 -0.399147
C6    C     C_3   0.928591 0.348720 0.516940 -0.398752
C7    C     C_3   0.073604 0.562854 0.378177 -0.405488
C8    C     C_3   0.121443 0.498774 0.503407 0.198462
C9    C     C_3   0.879009 0.498468 0.502955 0.198337
C10   C     C_3   0.929485 0.558560 0.376312 -0.416553
C11   C     C_3   0.370028 0.081172 0.499477 -0.232489
C12   C     C_3   0.370026 0.918822 0.499715 -0.229316
C13   C     C_3   0.563782 0.080551 0.382457 -0.230851
C14   C     C_3   0.563544 0.918043 0.382314 -0.236530
C15   C     C_3   0.565843 0.081826 0.609739 -0.232371
C16   C     C_3   0.566034 0.919505 0.609619 -0.234782
C17   C     C_R   0.500009 0.499604 0.257115 0.870482
C18   C     C_R   0.742614 0.499687 0.501482 0.830298
C19   C     C_R   0.498657 0.500483 0.742654 0.871621
C20   C     C_3   0.391765 0.558551 0.043844 -0.209283
C21   C     C_3   0.506012 0.368963 0.039120 -0.169887
C22   C     C_3   0.398320 0.428578 0.958274 -0.169435
C23   C     C_3   0.497758 0.501557 0.877308 0.010591
C24   C     C_3   0.490781 0.632036 0.959728 -0.169897
C25   C     C_3   0.605490 0.441803 0.955179 -0.207086
C26   C     C_3   0.597443 0.571402 0.039700 0.141760
H1    H     H_    0.316934 0.370558 0.919612 0.120705
H2    H     H_    0.892054 0.664214 0.360714 0.172632
H3    H     H_    0.898847 0.492127 0.295740 0.150614
H4    H     H_    0.317197 0.118667 0.415456 0.140623
H5    H     H_    0.316917 0.879927 0.415988 0.141253
H6    H     H_    0.318649 0.120066 0.585099 0.139415
H7    H     H_    0.318915 0.881302 0.585612 0.139119
H8    H     H_    0.516421 0.117694 0.295101 0.142778
H9    H     H_    0.515663 0.880292 0.295049 0.145864
H10   H     H_    0.664320 0.120610 0.611707 0.140067
H11   H     H_    0.664606 0.881005 0.611223 0.139944
H12   H     H_    0.519937 0.119686 0.698765 0.150072
H13   H     H_    0.520510 0.882350 0.698682 0.141842
H14   H     H_    0.662287 0.119041 0.377368 0.138418
H15   H     H_    0.661905 0.879103 0.376730 0.138837
H16   H     H_    0.304967 0.605335 0.084722 0.127473
H17   H     H_    0.511972 0.261903 0.075173 0.130086
H18   H     H_    0.485065 0.739110 0.923621 0.123370
H19   H     H_    0.692243 0.394884 0.914333 0.115322
H20   H     H_    0.107233 0.691636 0.614458 0.168133
H21   H     H_    0.104932 0.285377 0.432033 0.168600
H22   H     H_    0.104574 0.538159 0.709131 0.151970
H23   H     H_    0.106902 0.299766 0.602972 0.161151
H24   H     H_    0.889523 0.543935 0.707700 0.141954
H25   H     H_    0.894489 0.303479 0.608133 0.162323
H26   H     H_    0.893761 0.694304 0.608841 0.171252
H27   H     H_    0.893901 0.282208 0.437814 0.168335
H28   H     H_    0.105799 0.671632 0.370017 0.168102
H29   H     H_    0.112007 0.505236 0.294492 0.149467
N1    N     N_3   0.499750 0.138610 0.497240 -0.029047
N2    N     N_3   0.499750 0.861390 0.497240 -0.027691
O1    O     O_R   0.314910 0.616040 0.499970 -0.634849
O2    O     O_R   0.314910 0.383960 0.499970 -0.636653
O3    O     O_R   0.500080 0.616020 0.313900 -0.631296
O4    O     O_R   0.500080 0.383980 0.313900 -0.629617
O5    O     O_R   0.685320 0.616040 0.499930 -0.633235
O6    O     O_R   0.685320 0.383960 0.499930 -0.635031
O7    O     O_R   0.500150 0.616060 0.686000 -0.635047
O8    O     O_R   0.500150 0.383940 0.686000 -0.630015
Zn1   Zn    Zn3+2 0.500150 0.654960 0.499940 0.893718
Zn2   Zn    Zn3+2 0.500150 0.345040 0.499940 0.895251
C27   C     C_3   0.709374 0.652768 0.090486 -0.433989
C28   C     C_3   0.793519 0.704875 0.982051 -0.335314
C29   C     C_3   0.906223 0.784138 0.033841 -0.921643
H30   H     H_    0.874028 0.874973 0.090073 0.255871
H31   H     H_    0.963961 0.716556 0.095317 0.262066
H32   H     H_    0.965692 0.820455 0.953388 0.245975
H33   H     H_    0.828549 0.616163 0.924690 0.212107
H34   H     H_    0.738585 0.773559 0.918913 0.213570
H35   H     H_    0.674044 0.741288 0.147924 0.200691
H36   H     H_    0.764220 0.584214 0.152910 0.186174

loop_
_geom_bond_atom_site_label_1
_geom_bond_atom_site_label_2
_ccdc_geom_bond_type
C7    C10   S    
C1    C8    S    
C7    H29   S    
N2    Zn1   S    
C4    C8    S    
C6    C9    S    
C7    C8    S    
C24   C26   S    
C1    O2    A    
C18   O6    A    
C15   C16   S    
C3    H22   S    
C13   H14   S    
O2    Zn2   S    
C21   H17   S    
O1    Zn1   S    
C20   C24   S    
C11   H4    S    
C27   C28   S    
O8    Zn2   S    
C23   C24   S    
C5    H26   S    
C19   O8    A    
C29   H30   S    
C6    H25   S    
C9    C10   S    
C16   H11   S    
C13   N1    S    
C17   O4    A    
O3    Zn1   S    
C13   C14   S    
C2    C17   S    
C29   H32   S    
O6    Zn2   S    
O5    Zn1   S    
C2    C20   S    
C4    C6    S    
C3    C8    S    
C14   H9    S    
C18   O5    A    
C17   O3    A    
C25   C26   S    
O7    Zn1   S    
C19   C23   S    
C15   H12   S    
C5    C9    S    
O4    Zn2   S    
C19   O7    A    
C2    C21   S    
C28   H33   S    
C2    C26   S    
C14   H15   S    
C12   N2    S    
C20   C22   S    
C11   H6    S    
C22   H1    S    
C12   H5    S    
C24   H18   S    
C5    H24   S    
C6    H27   S    
C25   H19   S    
C15   H10   S    
C10   H2    S    
C27   H36   S    
C14   N2    S    
C21   C25   S    
C3    C5    S    
C20   H16   S    
C11   C12   S    
C27   H35   S    
N1    Zn2   S    
C3    H20   S    
C4    H23   S    
C26   C27   S    
C15   N1    S    
C13   H8    S    
C1    O1    A    
C10   H3    S    
C28   H34   S    
C16   N2    S    
C23   C25   S    
C28   C29   S    
C16   H13   S    
C9    C18   S    
C22   C23   S    
C29   H31   S    
C7    H28   S    
C12   H7    S    
C21   C22   S    
C11   N1    S    
C4    H21   S    
