data_mof_unit_21626.cif
_audit_creation_date              2012-12-11T14:21:24-0500
_audit_creation_method            fapswitch 2.2
_symmetry_space_group_name_H-M    P1
_symmetry_Int_Tables_number       1
_space_group_crystal_system       triclinic
_cell_length_a                    11.594226
_cell_length_b                    11.6107
_cell_length_c                    19.387845
_cell_angle_alpha                 91.091391
_cell_angle_beta                  91.081308
_cell_angle_gamma                 59.724419
_cell_volume                      2253.42859607

loop_
_atom_site_label
_atom_site_type_symbol
_atom_type_description
_atom_site_fract_x
_atom_site_fract_y
_atom_site_fract_z
_atom_type_partial_charge
C1    C     C_R   0.614928 0.084143 0.605715 0.561493
C2    C     C_1   0.623670 0.111210 0.677100 -0.002531
C3    C     C_R   0.631600 0.723623 0.177080 -0.004418
C4    C     C_R   0.613723 0.745090 0.598160 0.542235
C5    C     C_R   0.512911 0.749684 0.209309 0.012613
C6    C     C_R   0.519666 0.727910 0.280176 0.008412
C7    C     C_R   0.706319 0.768732 0.285629 -0.123910
C8    C     C_R   0.721975 0.749303 0.213781 0.126851
C9    C     C_R   0.403874 0.760089 0.170517 -0.087247
C10   C     C_R   0.333319 0.702711 0.194763 -0.130015
C11   C     C_R   0.354345 0.657996 0.262094 -0.151152
C12   C     C_1   0.643836 0.703017 0.667669 -0.002449
C13   C     C_R   0.442701 0.674732 0.305691 -0.095744
C14   C     C_R   0.609330 0.752642 0.320035 -0.057214
C15   C     C_R   0.156632 0.207018 0.190992 -0.002832
C16   C     C_R   0.241051 0.145736 0.597821 0.538145
C17   C     C_R   0.138220 0.313332 0.235863 0.012086
C18   C     C_R   0.124263 0.300420 0.306552 0.059635
C19   C     C_R   0.235070 0.060237 0.287347 -0.153802
C20   C     C_R   0.211734 0.080189 0.217071 -0.169603
C21   C     C_R   0.133664 0.430843 0.213208 -0.088935
C22   C     C_R   0.093532 0.540008 0.257329 -0.150402
C23   C     C_1   0.126832 0.197490 0.859564 0.004000
C24   C     C_R   0.053388 0.535994 0.323754 -0.108199
C25   C     C_R   0.065325 0.417860 0.348562 0.175121
C26   C     C_R   0.183174 0.169077 0.333121 0.020307
C27   C     C_R   0.723968 0.225798 0.211786 -0.038610
C28   C     C_R   0.645716 0.117701 0.404816 0.587552
C29   C     C_R   0.831363 0.138149 0.256634 -0.024747
C30   C     C_R   0.808360 0.129313 0.327829 0.006145
C31   C     C_R   0.570775 0.284932 0.308665 0.099830
C32   C     C_R   0.597236 0.304983 0.240899 -0.135372
C33   C     C_R   0.960099 0.050312 0.232386 -0.130524
C34   C     C_1   0.171175 0.170897 0.727434 -0.033628
C35   C     C_R   0.055952 0.954275 0.274812 -0.188708
C36   C     C_R   0.040051 0.958519 0.345046 -0.103983
C37   C     C_R   0.919302 0.052314 0.373471 0.172369
C38   C     C_R   0.675815 0.183666 0.349025 0.011114
C39   C     C_R   0.081734 0.230706 0.928898 0.546223
C40   C     C_R   0.587146 0.789286 0.393817 0.543481
C41   C     C_R   0.682767 0.605006 0.929933 0.537678
C42   C     C_R   0.706010 0.205073 0.931342 0.557434
C43   C     C_R   0.087602 0.236424 0.124091 0.536751
C44   C     C_R   0.675882 0.625736 0.119554 0.531423
C45   C     C_1   0.150167 0.181538 0.798944 -0.031875
C46   C     C_R   0.741735 0.236278 0.135679 0.557716
C47   C     C_R   0.240110 0.142747 0.402431 0.567263
C48   C     C_1   0.667731 0.647896 0.860633 0.006888
C49   C     C_1   0.656162 0.683547 0.728465 -0.034839
C50   C     C_1   0.662142 0.667766 0.799987 -0.032176
C51   C     C_3   0.875389 0.441004 0.406410 -0.308919
C52   C     C_3   0.403906 0.439026 0.393744 -0.241616
C53   C     C_3   0.874359 0.186042 0.479253 -0.293075
C54   C     C_3   0.848135 0.862837 0.198214 -0.309514
C55   C     C_1   0.194918 0.162205 0.666925 -0.000551
C56   C     C_1   0.665587 0.180400 0.865456 -0.001569
C57   C     C_1   0.630859 0.133433 0.737284 -0.034623
C58   C     C_1   0.644510 0.158974 0.807123 -0.031965
Cr1   Cr    Cr6+3 0.404720 0.198220 0.499960 1.000967
Cr2   Cr    Cr6+3 0.698290 0.897110 0.500380 1.004649
Cr3   Cr    Cr6+3 0.396970 0.904720 0.499610 0.992167
Cr4   Cr    Cr6+3 0.926180 0.151990 0.028120 1.001763
Cr5   Cr    Cr6+3 0.921330 0.451820 0.027470 1.018629
Cr6   Cr    Cr6+3 0.626260 0.446870 0.028710 1.021697
H1    H     H_    0.772172 0.791492 0.315360 0.144549
H2    H     H_    0.833107 0.448326 0.458264 0.141490
H3    H     H_    0.877133 0.357553 0.376528 0.152553
H4    H     H_    0.810084 0.534761 0.378833 0.169370
H5    H     H_    0.362376 0.392461 0.294034 0.245228
H6    H     H_    0.329757 0.544033 0.383043 0.080237
H7    H     H_    0.494718 0.432887 0.417715 0.134017
H8    H     H_    0.354141 0.408834 0.431711 0.191498
H9    H     H_    0.515176 0.376871 0.209347 0.147043
H10   H     H_    0.123200 0.890361 0.377310 0.107700
H11   H     H_    0.985393 0.980107 0.473035 0.245802
H12   H     H_    0.090496 0.628984 0.239236 0.122677
H13   H     H_    0.855812 0.182334 0.534919 0.162003
H14   H     H_    0.781530 0.267777 0.455981 0.133292
H15   H     H_    0.958659 0.204947 0.474641 0.154273
H16   H     H_    0.388041 0.792820 0.117389 0.119843
H17   H     H_    0.822870 0.748000 0.125712 0.266447
H18   H     H_    0.924232 0.861628 0.163798 0.150533
H19   H     H_    0.887091 0.850620 0.251764 0.156939
H20   H     H_    0.753743 0.959860 0.192882 0.170964
H21   H     H_    0.295415 0.617661 0.280450 0.107445
H22   H     H_    0.288747 0.959488 0.306344 0.148301
H23   H     H_    0.989637 0.046059 0.180235 0.177849
H24   H     H_    0.230465 0.998951 0.182908 0.120126
H25   H     H_    0.148586 0.884571 0.253481 0.134126
H26   H     H_    0.259760 0.696322 0.162227 0.098747
H27   H     H_    0.456559 0.636094 0.356862 0.151701
H28   H     H_    0.166439 0.437845 0.162432 0.144664
H29   H     H_    0.013104 0.624692 0.356071 0.104229
H30   H     H_    0.013104 0.485847 0.448583 0.252232
N1    N     N_2   0.008685 0.420469 0.413297 -0.508962
N2    N     N_2   0.435296 0.355717 0.331842 -0.487496
N3    N     N_2   0.909366 0.059812 0.447061 -0.478815
N4    N     N_2   0.826270 0.754982 0.178645 -0.509183
O1    O     O_R   0.267740 0.231960 0.575440 -0.515253
O2    O     O_R   0.596130 0.579390 0.952730 -0.511856
O3    O     O_R   0.639060 0.321160 0.958670 -0.487337
O4    O     O_R   0.527280 0.186640 0.570530 -0.500595
O5    O     O_R   0.821240 0.124200 0.104370 -0.539540
O6    O     O_R   0.036890 0.167040 0.097840 -0.532631
O7    O     O_R   0.056180 0.349610 0.102880 -0.516801
O8    O     O_R   0.797660 0.564870 0.097950 -0.493098
O9    O     O_R   0.595880 0.584250 0.104270 -0.521174
O10   O     O_R   0.638830 0.325670 0.099150 -0.493388
O11   O     O_3   0.824590 0.350230 0.028100 -0.262622
O12   O     O_R   0.685970 0.784660 0.430010 -0.511069
O13   O     O_R   0.728090 0.003450 0.576380 -0.500495
O14   O     O_R   0.682970 0.789190 0.570490 -0.506545
O15   O     O_R   0.499290 0.771880 0.575530 -0.501802
O16   O     O_R   0.285330 0.030870 0.569730 -0.496253
O17   O     O_R   0.270980 0.227080 0.423890 -0.494079
O18   O     O_R   0.530280 0.182120 0.430050 -0.485522
O19   O     O_R   0.731330 0.998570 0.424830 -0.498629
O20   O     O_R   0.502530 0.767000 0.423990 -0.536137
O21   O     O_R   0.288330 0.026350 0.429250 -0.521745
O22   O     O_3   0.499990 0.000020 0.499980 -0.283905
O23   O     O_R   0.821500 0.119340 0.952830 -0.500898
O24   O     O_R   0.037130 0.162530 0.957360 -0.494410
O25   O     O_R   0.056440 0.344740 0.951340 -0.505155
O26   O     O_R   0.797900 0.560360 0.957470 -0.498374

loop_
_geom_bond_atom_site_label_1
_geom_bond_atom_site_label_2
_ccdc_geom_bond_type
C40   O20   A    
Cr1   O22   S    
C23   C45   T    
C27   C29   A    
Cr1   O1    S    
C35   C36   A    
C18   C26   A    
C22   H12   S    
H5    N2    S    
C37   N3    S    
Cr5   O26   S    
Cr6   O11   S    
C2    C57   T    
C7    C8    A    
C47   O17   A    
C39   O24   A    
Cr2   O14   S    
C41   O26   A    
C36   C37   A    
C53   H15   S    
C28   O19   A    
C5    C6    A    
Cr3   O21   S    
H17   N4    S    
C31   N2    S    
C29   C33   A    
H11   N3    S    
C39   O25   A    
C30   C38   A    
C1    C2    S    
C43   O7    A    
C19   C26   A    
C8    N4    S    
C43   O6    A    
C28   O18   A    
C42   C56   S    
C7    C14   A    
C19   C20   A    
Cr1   O18   S    
C46   O10   A    
Cr6   O10   S    
Cr5   O7    S    
Cr4   O24   S    
C9    C10   A    
C19   H22   S    
C47   O21   A    
C4    O14   A    
C34   C55   T    
C21   C22   A    
C13   H27   S    
Cr3   O22   S    
Cr6   O3    S    
C18   C25   A    
C54   H20   S    
C54   H19   S    
C12   C49   T    
Cr4   O6    S    
C15   C20   A    
C3    C44   S    
C4    O15   A    
Cr2   O12   S    
C24   C25   A    
C3    C8    A    
C32   H9    S    
C40   O12   A    
C53   N3    S    
C17   C21   A    
C30   C37   A    
C9    H16   S    
Cr5   O11   S    
C53   H13   S    
C5    C9    A    
C29   C30   A    
C52   H8    S    
C6    C14   A    
C31   C32   A    
C28   C38   S    
C17   C18   A    
C41   O2    A    
Cr2   O19   S    
C34   C45   S    
C51   H3    S    
Cr5   O8    S    
C36   H10   S    
C26   C47   S    
C35   H25   S    
C27   C46   S    
C25   N1    S    
Cr3   O15   S    
C22   C24   A    
C4    C12   S    
C42   O3    A    
C54   H18   S    
Cr6   O9    S    
Cr4   O5    S    
C44   O9    A    
C15   C17   A    
Cr3   O20   S    
Cr1   O4    S    
C7    H1    S    
C3    C5    A    
C16   O16   A    
Cr5   O25   S    
C16   O1    A    
C44   O8    A    
C46   O5    A    
C31   C38   A    
C53   H14   S    
C33   H23   S    
C16   C55   S    
C15   C43   S    
C52   H7    S    
C24   H29   S    
C1    O13   A    
C6    C13   A    
C11   C13   A    
C57   C58   S    
Cr4   O11   S    
C11   H21   S    
C23   C39   S    
C20   H24   S    
C48   C50   T    
C33   C35   A    
C41   C48   S    
C56   C58   T    
C52   N2    S    
C51   H4    S    
H30   N1    S    
C52   H6    S    
C10   C11   A    
C27   C32   A    
Cr2   O22   S    
C14   C40   S    
Cr6   O2    S    
C10   H26   S    
Cr1   O17   S    
C49   C50   S    
Cr3   O16   S    
Cr2   O13   S    
C54   N4    S    
C1    O4    A    
C51   H2    S    
Cr4   O23   S    
C42   O23   A    
C51   N1    S    
C21   H28   S    
