data_mof_unit_45408.cif
_audit_creation_date              2013-03-05T15:46:45-0500
_audit_creation_method            fapswitch 2.2
_symmetry_space_group_name_H-M    P1
_symmetry_Int_Tables_number       1
_space_group_crystal_system       triclinic
_cell_length_a                    10.24812
_cell_length_b                    10.305491
_cell_length_c                    12.334947
_cell_angle_alpha                 91.464024
_cell_angle_beta                  109.502825
_cell_angle_gamma                 93.609379
_cell_volume                      1224.03585595

loop_
_atom_site_label
_atom_site_type_symbol
_atom_site_description
_atom_site_fract_x
_atom_site_fract_y
_atom_site_fract_z
_atom_type_partial_charge
O1    O     O_R   0.936910 0.692950 0.509080 -0.604201
O2    O     O_R   0.138320 0.658600 0.480130 -0.602893
C1    C     C_R   0.051077 0.736393 0.497328 0.919573
O3    O     O_R   0.002900 0.525670 0.675280 -0.587785
O4    O     O_R   0.204310 0.491320 0.646330 -0.643868
C2    C     C_R   0.133328 0.507122 0.714090 0.909631
Zn1   Zn    Zn3+2 0.865520 0.522940 0.519330 0.978672
Zn2   Zn    Zn3+2 0.134480 0.477060 0.480670 0.978485
O5    O     O_R   0.861680 0.341400 0.519870 -0.547213
O6    O     O_R   0.063090 0.307050 0.490920 -0.652440
O7    O     O_R   0.795690 0.508680 0.353670 -0.624693
O8    O     O_R   0.997100 0.474330 0.324720 -0.568195
C3    C     C_R   0.951361 0.264164 0.507389 0.978346
C4    C     C_R   0.865370 0.484976 0.286089 0.893105
C5    C     C_R   0.732114 0.312911 0.994203 -0.213551
H1    H     H_    0.762230 0.237011 0.947391 0.207425
C6    C     C_R   0.787873 0.454151 0.165332 -0.165450
C7    C     C_R   0.158124 0.583598 0.911158 -0.199810
C8    C     C_R   0.238720 0.604851 0.026212 -0.179630
C9    C     C_R   0.369600 0.557508 0.066694 -0.156445
C10   C     C_R   0.420085 0.483664 0.992429 0.098498
C11   C     C_R   0.329159 0.445232 0.881661 0.007289
C12   C     C_R   0.557829 0.447065 0.024495 0.049001
C13   C     C_R   0.597093 0.355347 0.954995 -0.043576
C14   C     C_R   0.498832 0.304903 0.850596 0.300085
C15   C     C_R   0.366177 0.348706 0.816298 -0.199793
C16   C     C_R   0.658399 0.502390 0.123483 -0.298888
C17   C     C_R   0.828011 0.361441 0.099527 0.456683
C18   C     C_R   0.204522 0.507098 0.837812 -0.039655
H2    H     H_    0.636837 0.581331 0.172639 0.168596
H3    H     H_    0.061251 0.629581 0.878918 0.160079
H4    H     H_    0.427529 0.577455 0.156880 0.144211
H5    H     H_    0.201730 0.661893 0.083395 0.153458
H6    H     H_    0.292658 0.306547 0.736589 0.213303
H7    H     H_    0.020260 0.870758 0.665889 0.171629
C19   C     C_2   0.081724 0.876974 0.518432 -0.381337
C20   C     C_2   0.044220 0.931530 0.603121 -0.137927
H8    H     H_    0.882907 0.065709 0.440296 0.123742
C21   C     C_2   0.935760 0.124639 0.518957 -0.430047
C22   C     C_2   0.021275 0.069826 0.611491 0.346841
H9    H     H_    0.115592 0.935111 0.459163 0.145183
H10   H     H_    0.567641 0.416603 0.422753 0.206393
H11   H     H_    0.435880 0.584529 0.575668 0.099108
N1    N     N_2   0.313640 0.446500 0.454900 0.066111
C23   C     C_2   0.432539 0.512221 0.509115 0.059945
H12   H     H_    0.683671 0.621672 0.606753 0.164440
N2    N     N_2   0.686360 0.553430 0.545150 -0.202085
C24   C     C_2   0.568208 0.489674 0.487808 -0.068045
O9    O     O_3   0.953467 0.306412 0.144352 -0.627752
C25   C     C_3   0.042498 0.342866 0.081977 0.066953
H13   H     H_    0.137795 0.395177 0.142985 0.208639
H14   H     H_    0.998557 0.409222 0.010675 0.146583
C26   C     C_3   0.083994 0.221680 0.032415 -0.688833
H15   H     H_    0.992953 0.173201 0.963567 0.274329
H16   H     H_    0.166372 0.249272 0.995529 0.255643
H17   H     H_    0.123875 0.152086 0.100797 0.236542
O10   O     O_3   0.315721 0.365691 0.367876 -0.573446
C27   C     C_3   0.267213 0.240138 0.386346 0.239153
H18   H     H_    0.155042 0.223389 0.335471 0.191138
H19   H     H_    0.284057 0.223762 0.479046 0.173005
C28   C     C_3   0.346032 0.140236 0.345556 -0.891270
H20   H     H_    0.457279 0.150135 0.400421 0.275555
H21   H     H_    0.302091 0.040439 0.351584 0.218974
H22   H     H_    0.338507 0.155303 0.254960 0.261172
N3    N     N_R   0.533015 0.214780 0.775110 0.193469
O11   O     O_R   0.444367 0.118247 0.722767 -0.378788
O12   O     O_R   0.637684 0.243806 0.740520 -0.393043
N4    N     N_R   0.076203 0.137921 0.722725 0.186666
O13   O     O_R   0.174053 0.089421 0.804942 -0.401610
O14   O     O_R   0.013669 0.234241 0.748164 -0.425386

loop_
_geom_bond_atom_site_label_1
_geom_bond_atom_site_label_2
_geom_bond_distance
_ccdc_geom_bond_type
O4    Zn2   1.924642 S    
C25   H14   1.117592 S    
C12   C13   1.423745 A    
C13   C14   1.405926 A    
C11   C18   1.410453 A    
C12   C16   1.388648 A    
C28   H22   1.109814 S    
C17   O9    1.383287 S    
C8    C9    1.390694 A    
N1    O10   1.348358 S    
Zn2   O8    1.966528 S    
C14   C15   1.390653 A    
C28   H20   1.111227 S    
C27   C28   1.521569 S    
C10   C12   1.411816 A    
C25   H13   1.110385 S    
C5    C17   1.398630 A    
C22   N4    1.441269 S    
C7    C18   1.401470 A    
H10   C24   1.084656 S    
C26   H15   1.109897 S    
N1    C23   1.311302 D    
C16   H2    1.079431 S    
Zn1   O7    1.924642 S    
H11   C23   1.084960 S    
C4    C6    1.450700 S    
C19   H9    1.086073 S    
O4    C2    1.291584 A    
C1    C19   1.460872 S    
O3    Zn1   1.966528 S    
N4    O14   1.301123 A    
C5    C13   1.407112 A    
H7    C20   1.088263 S    
O8    C4    1.285826 A    
O2    C1    1.302028 A    
C20   C22   1.465627 S    
O10   C27   1.408143 S    
C26   H16   1.110603 S    
C8    H5    1.082680 S    
H8    C21   1.086830 S    
O7    C4    1.293647 A    
C3    C21   1.452647 S    
C25   C26   1.521752 S    
N3    O12   1.301474 A    
C27   H19   1.116914 S    
C5    H1    1.080189 S    
C6    C16   1.383119 A    
N2    C24   1.304741 D    
Zn1   O5    1.869024 S    
C2    C18   1.455301 S    
C14   N3    1.437660 S    
C9    C10   1.419985 A    
Zn2   O6    1.879513 S    
N3    O11   1.301385 A    
C9    H4    1.078979 S    
C26   H17   1.109289 S    
C21   C22   1.348068 D    
O9    C25   1.416294 S    
C7    C8    1.386697 A    
O5    C3    1.297010 A    
H12   N2    1.030470 S    
C19   C20   1.349204 D    
C11   C15   1.412172 A    
C7    H3    1.083301 S    
C23   C24   1.528952 S    
O1    Zn1   1.879511 S    
C27   H18   1.110340 S    
C10   C11   1.402772 A    
C6    C17   1.404883 A    
O3    C2    1.289158 A    
C15   H6    1.079559 S    
C28   H21   1.110845 S    
O2    Zn2   1.869022 S    
Zn2   N1    2.007162 S    
N4    O13   1.301474 A    
O1    C1    1.281002 A    
O6    C3    1.282117 A    
Zn1   N2    2.007295 S    
