data_mof_unit_44840.cif
_audit_creation_date              2012-12-11T14:01:14-0500
_audit_creation_method            fapswitch 2.2
_symmetry_space_group_name_H-M    P1
_symmetry_Int_Tables_number       1
_space_group_crystal_system       triclinic
_cell_length_a                    19.030459
_cell_length_b                    10.969139
_cell_length_c                    18.774732
_cell_angle_alpha                 90.284417
_cell_angle_beta                  89.892589
_cell_angle_gamma                 89.966935
_cell_volume                      3919.12721435

loop_
_atom_site_label
_atom_site_type_symbol
_atom_type_description
_atom_site_fract_x
_atom_site_fract_y
_atom_site_fract_z
_atom_type_partial_charge
C1    C     C_R   0.272461 0.042444 0.853547 0.558399
C2    C     C_R   0.727559 0.042124 0.146463 0.557449
C3    C     C_R   0.772461 0.542444 0.853547 0.558397
C4    C     C_R   0.227559 0.542124 0.146463 0.557450
C5    C     C_R   0.479157 0.050892 0.075493 -0.087718
C6    C     C_R   0.504772 0.059725 0.929442 -0.081754
C7    C     C_R   0.979171 0.550902 0.075490 -0.087712
C8    C     C_R   0.004787 0.559718 0.929439 -0.081761
C9    C     C_R   0.978993 0.662515 0.040320 -0.127244
C10   C     C_R   0.994001 0.667223 0.967882 -0.125773
C11   C     C_R   0.478968 0.162508 0.040325 -0.127248
C12   C     C_R   0.493976 0.167225 0.967887 -0.125773
C13   C     C_2   0.248849 0.580120 0.920463 -0.112110
C14   C     C_2   0.751097 0.579359 0.079416 -0.112119
C15   C     C_2   0.748849 0.080120 0.920463 -0.112109
C16   C     C_2   0.251097 0.079359 0.079416 -0.112122
C17   C     C_2   0.250147 0.586294 0.077138 -0.105451
C18   C     C_2   0.749951 0.586924 0.923038 -0.105327
C19   C     C_2   0.750147 0.086294 0.077138 -0.105452
C20   C     C_2   0.249951 0.086925 0.923038 -0.105326
C21   C     C_2   0.294456 0.520029 0.036841 -0.164218
C22   C     C_2   0.705174 0.521175 0.962660 -0.165687
C23   C     C_2   0.794456 0.020030 0.036842 -0.164220
C24   C     C_2   0.205174 0.021175 0.962660 -0.165684
C25   C     C_2   0.303381 0.545202 0.960886 -0.162160
C26   C     C_2   0.696422 0.545493 0.038791 -0.162007
C27   C     C_2   0.803381 0.045203 0.960886 -0.162159
C28   C     C_2   0.196421 0.045494 0.038790 -0.162006
C29   C     C_2   0.486120 0.828688 0.571502 -0.094049
C30   C     C_2   0.487599 0.840055 0.415542 -0.107440
C31   C     C_2   0.986121 0.328688 0.571502 -0.094050
C32   C     C_2   0.987599 0.340056 0.415542 -0.107442
C33   C     C_2   0.467825 0.742283 0.452058 -0.089962
C34   C     C_2   0.453383 0.749367 0.527716 -0.111447
C35   C     C_2   0.967824 0.242283 0.452058 -0.089964
C36   C     C_2   0.953382 0.249368 0.527716 -0.111450
C37   C     C_2   0.246421 0.564154 0.583694 -0.057122
C38   C     C_2   0.753791 0.564749 0.415978 -0.050556
C39   C     C_2   0.746420 0.064154 0.583694 -0.057125
C40   C     C_2   0.253790 0.064749 0.415978 -0.050553
C41   C     C_2   0.238754 0.573282 0.426716 0.383013
C42   C     C_2   0.761046 0.572308 0.573276 0.385830
C43   C     C_2   0.738755 0.073282 0.426716 0.383013
C44   C     C_2   0.261047 0.072308 0.573276 0.385829
C45   C     C_R   0.471894 0.822754 0.852837 0.543211
C46   C     C_R   0.528871 0.821753 0.146619 0.537852
C47   C     C_R   0.971894 0.322753 0.852838 0.543209
C48   C     C_R   0.028870 0.321754 0.146620 0.537854
C49   C     C_2   0.184517 0.555878 0.471813 -0.110379
C50   C     C_2   0.815486 0.556713 0.528058 -0.116304
C51   C     C_2   0.684516 0.055882 0.471813 -0.110380
C52   C     C_2   0.315485 0.056709 0.528058 -0.116302
C53   C     C_2   0.188160 0.585215 0.546804 -0.133062
C54   C     C_2   0.811762 0.586668 0.453277 -0.136018
C55   C     C_2   0.688160 0.085217 0.546804 -0.133064
C56   C     C_2   0.311762 0.086665 0.453277 -0.136017
C57   C     C_R   0.260923 0.636341 0.851436 0.551047
C58   C     C_R   0.739115 0.635934 0.148602 0.548862
C59   C     C_R   0.760923 0.136341 0.851436 0.551047
C60   C     C_R   0.239115 0.135935 0.148602 0.548862
C61   C     C_R   0.273490 0.043411 0.646882 0.583750
C62   C     C_R   0.726574 0.044005 0.353027 0.584862
C63   C     C_R   0.773490 0.543411 0.646882 0.583749
C64   C     C_R   0.226574 0.544005 0.353027 0.584863
C65   C     C_R   0.468022 0.823121 0.646160 0.554335
C66   C     C_R   0.527646 0.824796 0.350641 0.555118
C67   C     C_R   0.968022 0.323121 0.646160 0.554335
C68   C     C_R   0.027646 0.324796 0.350641 0.555118
C69   C     C_R   0.260034 0.633831 0.647510 0.547869
C70   C     C_R   0.740030 0.634044 0.352387 0.554028
C71   C     C_R   0.760033 0.133831 0.647510 0.547868
C72   C     C_R   0.240030 0.134044 0.352387 0.554028
C73   C     C_R   0.502885 0.828562 0.073511 0.003549
C74   C     C_R   0.501594 0.833004 0.924467 -0.001076
C75   C     C_R   0.002880 0.328565 0.073513 0.003545
C76   C     C_R   0.001589 0.333000 0.924469 -0.001072
C77   C     C_R   0.493985 0.941475 0.038232 0.024530
C78   C     C_R   0.500353 0.944864 0.963123 0.025338
C79   C     C_R   0.993989 0.441479 0.038232 0.024533
C80   C     C_R   0.000357 0.444862 0.963123 0.025337
C81   C     C_R   0.509368 0.723083 0.960836 -0.153760
C82   C     C_R   0.508316 0.720592 0.033656 -0.150228
C83   C     C_R   0.009351 0.223079 0.960841 -0.153758
C84   C     C_R   0.008298 0.220592 0.033661 -0.150234
Cr1   Cr    Cr6+3 0.230530 0.836340 0.748870 1.041298
Cr2   Cr    Cr6+3 0.769470 0.836340 0.251130 1.037013
Cr3   Cr    Cr6+3 0.730530 0.336340 0.748870 1.041299
Cr4   Cr    Cr6+3 0.269470 0.336340 0.251130 1.037012
Cr5   Cr    Cr6+3 0.387420 0.989430 0.750820 1.015503
Cr6   Cr    Cr6+3 0.612580 0.989430 0.249180 1.017579
Cr7   Cr    Cr6+3 0.887420 0.489430 0.750820 1.015505
Cr8   Cr    Cr6+3 0.112580 0.489430 0.249180 1.017577
Cr9   Cr    Cr6+3 0.385640 0.677860 0.749230 1.030065
Cr10  Cr    Cr6+3 0.614360 0.677860 0.250770 1.032847
Cr11  Cr    Cr6+3 0.885640 0.177860 0.749230 1.030065
Cr12  Cr    Cr6+3 0.114360 0.177860 0.250770 1.032847
H1    H     H_    0.512253 0.636391 0.933012 0.138192
H2    H     H_    0.514896 0.632443 0.058571 0.137258
H3    H     H_    0.012227 0.136384 0.933019 0.138193
H4    H     H_    0.014868 0.132443 0.058578 0.137260
H5    H     H_    0.133271 0.527805 0.452086 0.101820
H6    H     H_    0.866975 0.529973 0.547626 0.103905
H7    H     H_    0.633270 0.027815 0.452085 0.101821
H8    H     H_    0.366974 0.029964 0.547626 0.103904
H9    H     H_    0.143875 0.634078 0.569873 0.147279
H10   H     H_    0.855805 0.636373 0.430703 0.145893
H11   H     H_    0.643875 0.134080 0.569874 0.147280
H12   H     H_    0.355806 0.136370 0.430703 0.145892
H13   H     H_    0.288570 0.508488 0.561720 0.167012
H14   H     H_    0.711932 0.508276 0.437402 0.174643
H15   H     H_    0.788570 0.008487 0.561720 0.167017
H16   H     H_    0.211931 0.008278 0.437402 0.174641
H17   H     H_    0.466210 0.051018 0.131599 0.129206
H18   H     H_    0.518279 0.067975 0.873730 0.132526
H19   H     H_    0.966223 0.551035 0.131596 0.129208
H20   H     H_    0.018294 0.567961 0.873727 0.132524
H21   H     H_    0.968338 0.745773 0.069611 0.110401
H22   H     H_    0.996472 0.754368 0.941181 0.107495
H23   H     H_    0.468306 0.245762 0.069618 0.110406
H24   H     H_    0.496439 0.254373 0.941188 0.107494
H25   H     H_    0.323686 0.444141 0.059069 0.152137
H26   H     H_    0.675500 0.446081 0.939762 0.153111
H27   H     H_    0.823686 0.944142 0.059069 0.152138
H28   H     H_    0.175499 0.946082 0.939762 0.153110
H29   H     H_    0.356066 0.538031 0.938870 0.154431
H30   H     H_    0.643750 0.538722 0.060785 0.150604
H31   H     H_    0.856066 0.038032 0.938871 0.154428
H32   H     H_    0.143749 0.038724 0.060785 0.150609
H33   H     H_    0.222645 0.664135 0.054860 0.113106
H34   H     H_    0.777846 0.664126 0.945957 0.113263
H35   H     H_    0.722645 0.164136 0.054860 0.113107
H36   H     H_    0.277846 0.164126 0.945957 0.113263
H37   H     H_    0.196005 0.583612 0.942492 0.112142
H38   H     H_    0.803950 0.582345 0.057407 0.113635
H39   H     H_    0.696005 0.083612 0.942492 0.112140
H40   H     H_    0.303950 0.082344 0.057407 0.113637
H41   H     H_    0.467976 0.652013 0.427938 0.186297
H42   H     H_    0.418447 0.679750 0.548684 0.191487
H43   H     H_    0.967975 0.152013 0.427938 0.186299
H44   H     H_    0.918445 0.179754 0.548684 0.191489
H45   H     H_    0.483366 0.931014 0.438409 0.089737
H46   H     H_    0.520989 0.899675 0.552347 0.089930
H47   H     H_    0.983366 0.431015 0.438409 0.089738
H48   H     H_    0.020991 0.399672 0.552347 0.089932
O1    O     O_R   0.215090 0.709860 0.828130 -0.523445
O2    O     O_R   0.784910 0.709860 0.171870 -0.525108
O3    O     O_R   0.715090 0.209860 0.828130 -0.523444
O4    O     O_R   0.284910 0.209860 0.171870 -0.525109
O5    O     O_R   0.445660 0.919250 0.676780 -0.508645
O6    O     O_R   0.554340 0.919250 0.323220 -0.510198
O7    O     O_R   0.945660 0.419250 0.676780 -0.508644
O8    O     O_R   0.054340 0.419250 0.323220 -0.510198
O9    O     O_R   0.456260 0.718170 0.670000 -0.501257
O10   O     O_R   0.543740 0.718170 0.330000 -0.502371
O11   O     O_R   0.956260 0.218170 0.670000 -0.501256
O12   O     O_R   0.043740 0.218170 0.330000 -0.502371
O13   O     O_R   0.320940 0.626760 0.674370 -0.506955
O14   O     O_R   0.679060 0.626760 0.325630 -0.493032
O15   O     O_R   0.820940 0.126760 0.674370 -0.506955
O16   O     O_R   0.179060 0.126760 0.325630 -0.493032
O17   O     O_3   0.334530 0.834540 0.749640 -0.256132
O18   O     O_3   0.665470 0.834540 0.250360 -0.253282
O19   O     O_3   0.834530 0.334540 0.749640 -0.256133
O20   O     O_3   0.165470 0.334540 0.250360 -0.253281
O21   O     O_R   0.236990 0.958390 0.823710 -0.498625
O22   O     O_R   0.763010 0.958390 0.176290 -0.499423
O23   O     O_R   0.736990 0.458390 0.823710 -0.498625
O24   O     O_R   0.263010 0.458390 0.176290 -0.499423
O25   O     O_R   0.332380 0.074750 0.830850 -0.510384
O26   O     O_R   0.667620 0.074750 0.169150 -0.509247
O27   O     O_R   0.832380 0.574750 0.830850 -0.510382
O28   O     O_R   0.167620 0.574750 0.169150 -0.509247
O29   O     O_R   0.445800 0.917770 0.825070 -0.507676
O30   O     O_R   0.554200 0.917770 0.174930 -0.506054
O31   O     O_R   0.945800 0.417770 0.825070 -0.507673
O32   O     O_R   0.054200 0.417770 0.174930 -0.506057
O33   O     O_R   0.456410 0.716580 0.829970 -0.520209
O34   O     O_R   0.543590 0.716580 0.170030 -0.525250
O35   O     O_R   0.956410 0.216580 0.829970 -0.520212
O36   O     O_R   0.043590 0.216580 0.170030 -0.525249
O37   O     O_R   0.321080 0.625290 0.822650 -0.496893
O38   O     O_R   0.678920 0.625290 0.177350 -0.498676
O39   O     O_R   0.821080 0.125290 0.822650 -0.496893
O40   O     O_R   0.178920 0.125290 0.177350 -0.498675
O41   O     O_R   0.214930 0.711450 0.668160 -0.509831
O42   O     O_R   0.785070 0.711450 0.331840 -0.514049
O43   O     O_R   0.714930 0.211450 0.668160 -0.509830
O44   O     O_R   0.285070 0.211450 0.331840 -0.514050
O45   O     O_R   0.236850 0.959870 0.675420 -0.476391
O46   O     O_R   0.763150 0.959870 0.324580 -0.479414
O47   O     O_R   0.736850 0.459870 0.675420 -0.476388
O48   O     O_R   0.263150 0.459870 0.324580 -0.479417
O49   O     O_R   0.332230 0.076350 0.670880 -0.553570
O50   O     O_R   0.667770 0.076350 0.329120 -0.552207
O51   O     O_R   0.832230 0.576350 0.670880 -0.553571
O52   O     O_R   0.167770 0.576350 0.329120 -0.552206
F1    F     F_    0.303314 0.611748 0.448199 -0.677270
F2    F     F_    0.696118 0.609017 0.551998 -0.650290
F3    F     F_    0.803315 0.111740 0.448199 -0.677272
F4    F     F_    0.196119 0.109024 0.551998 -0.650290

loop_
_geom_bond_atom_site_label_1
_geom_bond_atom_site_label_2
_ccdc_geom_bond_type
C16   C28   D    
C69   O41   A    
Cr3   O19   S    
C38   C70   S    
C60   O40   A    
C37   C69   S    
C9    H21   S    
C46   O34   A    
C35   C36   S    
Cr2   O22   S    
C53   H9    S    
Cr5   O29   S    
Cr6   O6    S    
C11   H23   S    
Cr10  O38   S    
C57   O37   A    
C81   C82   A    
C3    O23   A    
C40   H16   S    
C77   C78   A    
Cr8   O32   S    
C31   C67   S    
C50   C54   S    
C30   H45   S    
Cr3   O3    S    
Cr6   O18   S    
Cr11  O15   S    
C7    C79   A    
Cr1   O1    S    
C47   C76   S    
C66   O6    A    
C45   O29   A    
C31   C36   D    
C16   C60   S    
C49   C53   S    
C75   C84   A    
C6    C78   A    
C15   H39   S    
C51   H7    S    
C24   H28   S    
Cr1   O17   S    
C3    C18   S    
C67   O11   A    
C26   H30   S    
C7    H19   S    
C31   H48   S    
C25   H29   S    
C6    H18   S    
C32   H47   S    
C65   O9    A    
C35   H43   S    
C12   H24   S    
C27   H31   S    
C41   C49   D    
C39   C55   D    
C20   C24   D    
C33   H41   S    
C40   C56   D    
Cr6   O50   S    
Cr8   O8    S    
C69   O13   A    
C46   O30   A    
Cr2   O18   S    
Cr9   O17   S    
C38   H14   S    
C4    O28   A    
C9    C10   A    
Cr10  O18   S    
C37   H13   S    
C30   C33   D    
C45   O33   A    
C32   C68   S    
C37   C53   D    
Cr8   O20   S    
Cr5   O5    S    
C28   H32   S    
Cr10  O14   S    
Cr10  O34   S    
C61   O45   A    
C82   H2    S    
C48   C75   S    
Cr7   O19   S    
Cr9   O37   S    
Cr12  O40   S    
Cr2   O2    S    
C76   C83   A    
Cr5   O17   S    
C64   O48   A    
C22   H26   S    
C7    C9    A    
C19   H35   S    
C14   C58   S    
Cr3   O23   S    
Cr2   O46   S    
C54   H10   S    
C67   O7    A    
C84   H4    S    
C32   C35   D    
C76   C80   A    
C42   F2    S    
C41   F1    S    
C21   C25   S    
C66   O10   A    
Cr9   O33   S    
Cr3   O43   S    
C14   H38   S    
C51   C55   S    
Cr4   O24   S    
Cr4   O20   S    
C17   H33   S    
C29   C34   D    
C34   H42   S    
C14   C26   D    
C4    O24   A    
C55   H11   S    
C45   C74   S    
C70   O14   A    
C44   F4    S    
C20   H36   S    
C19   C23   D    
C68   O8    A    
Cr11  O19   S    
C10   H22   S    
Cr7   O51   S    
C57   O1    A    
C83   H3    S    
C15   C27   D    
C83   C84   A    
C38   C54   D    
C1    O21   A    
Cr10  O10   S    
Cr5   O49   S    
Cr6   O26   S    
C33   C34   S    
Cr4   O4    S    
Cr7   O31   S    
C62   O46   A    
Cr12  O36   S    
Cr9   O13   S    
C36   H44   S    
C30   C66   S    
C47   O35   A    
C42   C50   D    
C29   C65   S    
C4    C17   S    
Cr11  O35   S    
Cr12  O16   S    
C2    O26   A    
C50   H6    S    
C23   C27   S    
C3    O27   A    
C5    C11   A    
C72   O44   A    
C63   O51   A    
C18   H34   S    
C75   C79   A    
C62   O50   A    
C74   C81   A    
C5    C77   A    
C16   H40   S    
C6    C12   A    
C61   O49   A    
C73   C82   A    
C48   O36   A    
Cr3   O47   S    
Cr4   O48   S    
C2    O22   A    
C52   H8    S    
C1    C20   S    
C39   C71   S    
C40   C72   S    
Cr11  O39   S    
C5    H17   S    
C2    C19   S    
C18   C22   D    
C13   H37   S    
C24   C28   S    
C71   O43   A    
Cr8   O52   S    
C68   O12   A    
C44   C52   D    
C23   H27   S    
C11   C12   A    
C58   O2    A    
Cr2   O42   S    
C44   C61   S    
C71   O15   A    
Cr6   O30   S    
C72   O16   A    
Cr7   O27   S    
C58   O38   A    
Cr1   O21   S    
Cr7   O7    S    
Cr9   O9    S    
C70   O42   A    
Cr5   O25   S    
Cr1   O41   S    
C49   H5    S    
C39   H15   S    
C43   C51   D    
Cr12  O12   S    
C81   H1    S    
C13   C25   D    
Cr8   O28   S    
C63   O47   A    
C29   H46   S    
C64   O52   A    
C1    O25   A    
Cr11  O11   S    
C65   O5    A    
C15   C59   S    
C8    H20   S    
C79   C80   A    
Cr12  O20   S    
Cr4   O44   S    
C13   C57   S    
C73   C77   A    
C8    C10   A    
C22   C26   S    
C8    C80   A    
C56   H12   S    
C59   O39   A    
C21   H25   S    
C43   F3    S    
C60   O4    A    
C41   C64   S    
Cr1   O45   S    
C42   C63   S    
C46   C73   S    
C47   O31   A    
C52   C56   S    
C43   C62   S    
C59   O3    A    
C74   C78   A    
C48   O32   A    
C17   C21   D    
