data_mof_unit_10153.cif
_audit_creation_date              2012-12-11T15:52:39-0500
_audit_creation_method            fapswitch 2.2
_symmetry_space_group_name_H-M    P1
_symmetry_Int_Tables_number       1
_space_group_crystal_system       triclinic
_cell_length_a                    6.941644
_cell_length_b                    14.557791
_cell_length_c                    16.035565
_cell_angle_alpha                 90.176754
_cell_angle_beta                  90.115121
_cell_angle_gamma                 89.939618
_cell_volume                      1620.46219077

loop_
_atom_site_label
_atom_site_type_symbol
_atom_type_description
_atom_site_fract_x
_atom_site_fract_y
_atom_site_fract_z
_atom_type_partial_charge
O1    O     O_R   0.494400 0.415640 0.412830 -0.548206
O2    O     O_R   0.823920 0.405510 0.586560 -0.511585
O3    O     O_R   0.994250 0.584360 0.587170 -0.498069
C1    C     C_R   0.655339 0.381732 0.614221 0.747208
O4    O     O_R   0.824110 0.404610 0.413450 -0.551286
O5    O     O_R   0.994440 0.583460 0.412820 -0.539435
C2    C     C_R   0.655004 0.382172 0.384382 0.655365
O6    O     O_R   0.494210 0.416540 0.587180 -0.543854
O7    O     O_3   0.660810 0.558680 0.500000 -0.343477
V1    V     V_3+5 0.935650 0.489110 0.500000 1.496164
O8    O     O_R   0.324150 0.594490 0.413440 -0.545336
C3    C     C_R   0.154963 0.616745 0.384499 0.683050
O9    O     O_R   0.323970 0.595390 0.586550 -0.536832
C4    C     C_R   0.154476 0.618436 0.615032 0.743337
V2    V     V_3+5 0.435660 0.510890 0.500000 1.471538
O10   O     O_3   0.160630 0.441320 0.500000 -0.373227
C5    C     C_3   0.056273 0.645998 0.767292 0.052695
H1    H     H_    0.156536 0.590614 0.787610 0.114127
C6    C     C_3   0.045766 0.717921 0.839015 -0.391383
H2    H     H_    0.131204 0.693170 0.893321 0.124784
H3    H     H_    0.894798 0.725736 0.861041 0.184885
H4    H     H_    0.841416 0.837331 0.752865 0.197312
C7    C     C_3   0.033034 0.779340 0.658510 0.055487
C8    C     C_3   0.345559 0.722538 0.710288 -0.362301
C9    C     C_3   0.141254 0.689183 0.685428 -0.048211
H5    H     H_    0.417445 0.750584 0.654454 0.221265
H6    H     H_    0.432107 0.663428 0.731852 0.176994
C10   C     C_3   0.123775 0.812157 0.809811 -0.009779
C11   C     C_3   0.995623 0.842097 0.734881 -0.326890
C12   C     C_3   0.338186 0.796348 0.780149 0.097004
H7    H     H_    0.421952 0.768681 0.834017 0.129119
H8    H     H_    0.129897 0.817898 0.615834 0.124129
H9    H     H_    0.020669 0.915050 0.717941 0.113972
C13   C     C_R   0.953540 0.774632 0.216397 -0.152394
H10   H     H_    0.812929 0.793420 0.192555 0.117424
C14   C     C_R   0.964440 0.711539 0.282055 -0.134936
H11   H     H_    0.831737 0.683550 0.306573 0.122563
C15   C     C_R   0.143783 0.684865 0.315391 -0.041936
C16   C     C_R   0.311886 0.723253 0.281262 -0.147506
H12   H     H_    0.452494 0.704490 0.305129 0.121825
C17   C     C_R   0.300983 0.786361 0.215618 -0.149053
H13   H     H_    0.433684 0.814397 0.191149 0.120127
C18   C     C_R   0.121661 0.812906 0.182166 -0.049882
C19   C     C_R   0.805738 0.253717 0.700727 0.220085
C20   C     C_R   0.791706 0.190534 0.766635 -0.176103
H14   H     H_    0.913990 0.146932 0.780801 0.114292
C21   C     C_R   0.621243 0.181544 0.812881 -0.073849
C22   C     C_R   0.462894 0.237074 0.792356 -0.164752
H15   H     H_    0.329283 0.231756 0.826767 0.135495
C23   C     C_R   0.475830 0.301388 0.728016 -0.184646
H16   H     H_    0.351665 0.344216 0.715172 0.160629
C24   C     C_R   0.646480 0.311275 0.681536 -0.058168
C25   C     C_R   0.811767 0.274198 0.281306 -0.154597
H17   H     H_    0.952361 0.292788 0.305311 0.114735
C26   C     C_R   0.800746 0.210382 0.215797 -0.145937
H18   H     H_    0.933396 0.181701 0.191606 0.119516
C27   C     C_R   0.621454 0.183909 0.182142 -0.047191
C28   C     C_R   0.453504 0.223128 0.216047 -0.152039
H19   H     H_    0.312913 0.204527 0.192048 0.117420
C29   C     C_R   0.464526 0.286950 0.281557 -0.148386
H20   H     H_    0.331882 0.315629 0.305756 0.116275
C30   C     C_R   0.643826 0.313445 0.315188 -0.040313
O11   O     O_R   0.771300 0.080930 0.910090 -0.540191
O12   O     O_R   0.441270 0.092800 0.083770 -0.542408
O13   O     O_R   0.271080 0.913920 0.084380 -0.540153
C31   C     C_R   0.610337 0.115234 0.112897 0.692235
O14   O     O_R   0.441580 0.091910 0.910670 -0.545099
O15   O     O_R   0.271390 0.913020 0.910040 -0.543968
C32   C     C_R   0.610309 0.113840 0.881753 0.696337
O16   O     O_R   0.770990 0.081830 0.084440 -0.539455
O17   O     O_3   0.604750 0.938760 0.997250 -0.372944
V3    V     V_3+5 0.329850 0.008280 0.997210 1.393050
O18   O     O_R   0.941680 0.901940 0.910610 -0.544367
C33   C     C_R   0.110953 0.881108 0.880834 0.681970
O19   O     O_R   0.941370 0.902830 0.083720 -0.542528
C34   C     C_R   0.110529 0.880774 0.112830 0.689918
V4    V     V_3+5 0.829860 0.986420 0.997150 1.394668
O20   O     O_3   0.104830 0.056030 0.997180 -0.367417
I1    I     I_    0.788695 0.572663 0.757617 -0.460472
N1    N     N_3   0.434674 0.880426 0.750965 -0.650909
H21   H     H_    0.336438 0.931781 0.735203 0.227884
H22   H     H_    0.523084 0.906566 0.798260 0.233770
N2    N     N_3   0.979846 0.257749 0.652445 -0.650108
H23   H     H_    0.086408 0.215730 0.678344 0.214806
H24   H     H_    0.948823 0.230471 0.593543 0.215240
I2    I     I_    0.782537 0.769733 0.580414 -0.417123

loop_
_geom_bond_atom_site_label_1
_geom_bond_atom_site_label_2
_ccdc_geom_bond_type
C26   H18   S    
H4    C11   S    
C17   H13   S    
C6    H2    S    
C8    H6    S    
C27   C31   S    
C1    O6    A    
C19   N2    S    
C10   C33   S    
C16   C17   A    
C31   O16   A    
C25   H17   S    
O13   C34   A    
C1    C24   S    
C7    C11   S    
C10   C11   S    
C6    H3    S    
C8    H5    S    
C13   H10   S    
O5    C3    A    
C15   C16   A    
O15   C33   A    
V2    O10   S    
C11   H9    S    
C5    I1    S    
C29   C30   A    
O14   V3    S    
O18   C33   A    
C20   C21   A    
C21   C32   S    
V3    O20   S    
O8    V2    S    
O11   C32   A    
C7    I2    S    
C23   C24   A    
O1    V2    S    
O7    V1    S    
C12   N1    S    
C19   C24   A    
C22   C23   A    
O9    C4    A    
O16   V4    S    
C17   C18   A    
C23   H16   S    
C25   C26   A    
C21   C22   A    
C8    C9    S    
N1    H22   S    
C16   H12   S    
O4    C2    A    
C28   H19   S    
V4    O20   S    
C29   H20   S    
O14   C32   A    
O12   C31   A    
O2    C1    A    
O19   C34   A    
C2    C30   S    
C25   C30   A    
N2    H23   S    
O9    V2    S    
O15   V3    S    
C5    H1    S    
C6    C10   S    
O19   V4    S    
O3    C4    A    
C22   H15   S    
N2    H24   S    
O6    V2    S    
C26   C27   A    
O2    V1    S    
O17   V4    S    
C19   C20   A    
O11   V4    S    
C18   C34   S    
C14   H11   S    
O1    C2    A    
C13   C18   A    
N1    H21   S    
O5    V1    S    
O8    C3    A    
O13   V3    S    
C5    C9    S    
C7    H8    S    
C10   C12   S    
O7    V2    S    
O17   V3    S    
O3    V1    S    
V1    O10   S    
C27   C28   A    
C12   H7    S    
C14   C15   A    
C5    C6    S    
C13   C14   A    
C7    C9    S    
C4    C9    S    
C3    C15   S    
C8    C12   S    
C20   H14   S    
O4    V1    S    
O18   V4    S    
C28   C29   A    
O12   V3    S    
