data_mof_unit_17615.cif
_audit_creation_date              2012-12-11T15:08:47-0500
_audit_creation_method            fapswitch 2.2
_symmetry_space_group_name_H-M    P1
_symmetry_Int_Tables_number       1
_space_group_crystal_system       monoclinic
_cell_length_a                    19.594649
_cell_length_b                    11.281421
_cell_length_c                    18.714319
_cell_angle_alpha                 90.0
_cell_angle_beta                  89.593467
_cell_angle_gamma                 90.0
_cell_volume                      4136.79872433

loop_
_atom_site_label
_atom_site_type_symbol
_atom_type_description
_atom_site_fract_x
_atom_site_fract_y
_atom_site_fract_z
_atom_type_partial_charge
C1    C     C_R   0.272506 0.042700 0.854093 0.533801
C2    C     C_3   0.685673 0.529868 0.954700 -0.225942
C3    C     C_R   0.224845 0.539906 0.355122 0.546491
C4    C     C_R   0.468837 0.823705 0.645465 0.548520
C5    C     C_R   0.531163 0.823705 0.354535 0.548519
C6    C     C_R   0.968837 0.323705 0.645465 0.548520
C7    C     C_R   0.031163 0.323705 0.354535 0.548519
C8    C     C_R   0.261473 0.641035 0.643235 0.537455
C9    C     C_R   0.738527 0.641035 0.356765 0.537456
C10   C     C_R   0.761473 0.141035 0.643235 0.537455
C11   C     C_R   0.238527 0.141035 0.356765 0.537456
C12   C     C_3   0.481454 0.920638 0.036270 -0.003172
C13   C     C_3   0.814326 0.029868 0.045300 -0.225942
C14   C     C_3   0.518546 0.920638 0.963730 -0.003172
C15   C     C_3   0.981454 0.420638 0.036270 -0.003172
C16   C     C_3   0.018546 0.420638 0.963730 -0.003172
C17   C     C_3   0.431766 0.824843 0.009447 -0.187850
C18   C     C_3   0.568234 0.824843 0.990553 -0.187850
C19   C     C_3   0.931766 0.324843 0.009447 -0.187850
C20   C     C_3   0.068234 0.324843 0.990553 -0.187850
C21   C     C_3   0.470125 0.824591 0.936776 0.029649
C22   C     C_3   0.529874 0.824591 0.063224 0.029649
C23   C     C_3   0.970125 0.324591 0.936776 0.029649
C24   C     C_3   0.185673 0.029868 0.954700 -0.225942
C25   C     C_3   0.029874 0.324591 0.063224 0.029649
C26   C     C_1   0.467972 0.032308 0.074386 0.199179
C27   C     C_1   0.532027 0.032308 0.925614 0.199179
C28   C     C_1   0.967972 0.532308 0.074386 0.199179
C29   C     C_1   0.032027 0.532308 0.925614 0.199179
C30   C     C_1   0.358723 0.597772 0.394842 0.148225
C31   C     C_1   0.641277 0.597775 0.605158 0.148225
C32   C     C_1   0.858723 0.097772 0.394842 0.148225
C33   C     C_1   0.141277 0.097775 0.605158 0.148225
C34   C     C_1   0.363551 0.472479 0.927360 0.195112
C35   C     C_3   0.327083 0.567049 0.966571 -0.108793
C36   C     C_1   0.636449 0.472479 0.072640 0.195112
C37   C     C_1   0.863551 0.972479 0.927360 0.195112
C38   C     C_1   0.136449 0.972479 0.072640 0.195112
C39   C     C_3   0.672917 0.567049 0.033429 -0.108793
C40   C     C_3   0.827083 0.067049 0.966571 -0.108793
C41   C     C_3   0.172917 0.067049 0.033429 -0.108793
C42   C     C_3   0.184251 0.515947 0.025370 -0.218119
C43   C     C_3   0.815749 0.515947 0.974630 -0.218119
C44   C     C_3   0.684251 0.015947 0.025370 -0.218119
C45   C     C_R   0.727494 0.042700 0.145907 0.533801
C46   C     C_3   0.315749 0.015947 0.974630 -0.218119
C47   C     C_3   0.239458 0.704639 0.056392 -0.266636
C48   C     C_3   0.760542 0.704639 0.943607 -0.266636
C49   C     C_3   0.739458 0.204639 0.056392 -0.266636
C50   C     C_3   0.260542 0.204639 0.943607 -0.266636
C51   C     C_3   0.242347 0.572167 0.070494 0.043226
C52   C     C_3   0.757653 0.572167 0.929506 0.043226
C53   C     C_3   0.742347 0.072167 0.070494 0.043226
C54   C     C_3   0.257653 0.072167 0.929506 0.043226
C55   C     C_3   0.258002 0.609507 0.932635 0.037621
C56   C     C_R   0.772506 0.542700 0.854093 0.533801
C57   C     C_3   0.741998 0.609507 0.067365 0.037621
C58   C     C_3   0.758002 0.109507 0.932635 0.037621
C59   C     C_3   0.241998 0.109507 0.067365 0.037621
C60   C     C_3   0.204292 0.513645 0.945568 -0.260774
C61   C     C_3   0.795708 0.513645 0.054432 -0.260775
C62   C     C_3   0.704292 0.013645 0.945568 -0.260774
C63   C     C_3   0.295708 0.013645 0.054432 -0.260775
C64   C     C_3   0.234904 0.722321 0.974694 -0.244078
C65   C     C_3   0.765096 0.722321 0.025306 -0.244078
C66   C     C_3   0.734904 0.222321 0.974694 -0.244078
C67   C     C_R   0.227494 0.542700 0.145907 0.533801
C68   C     C_3   0.265096 0.222321 0.025306 -0.244078
C69   C     C_3   0.508747 0.706326 0.461600 -0.239018
C70   C     C_3   0.491253 0.706326 0.538400 -0.239018
C71   C     C_3   0.008747 0.206326 0.461600 -0.239018
C72   C     C_3   0.991253 0.206326 0.538400 -0.239018
C73   C     C_R   0.443438 0.817673 0.862671 0.527158
C74   C     C_R   0.556562 0.817673 0.137329 0.527158
C75   C     C_R   0.943438 0.317673 0.862671 0.527158
C76   C     C_R   0.056562 0.317673 0.137329 0.527158
C77   C     C_3   0.563975 0.908567 0.472728 -0.222922
C78   C     C_3   0.518933 0.728093 0.963843 -0.116015
C79   C     C_3   0.436025 0.908567 0.527272 -0.222922
C80   C     C_3   0.063975 0.408567 0.472728 -0.222922
C81   C     C_3   0.936025 0.408567 0.527272 -0.222922
C82   C     C_3   0.441052 0.887968 0.445360 -0.260770
C83   C     C_3   0.558947 0.887968 0.554639 -0.260770
C84   C     C_3   0.941052 0.387968 0.445360 -0.260770
C85   C     C_3   0.058947 0.387968 0.554639 -0.260770
C86   C     C_3   0.511012 0.832308 0.430933 0.054837
C87   C     C_3   0.488988 0.832308 0.569067 0.054837
C88   C     C_3   0.011012 0.332308 0.430933 0.054837
C89   C     C_3   0.481066 0.728094 0.036157 -0.116015
C90   C     C_3   0.988988 0.332308 0.569067 0.054837
C91   C     C_3   0.179414 0.647002 0.459926 -0.245137
C92   C     C_3   0.820586 0.647002 0.540074 -0.245137
C93   C     C_3   0.679414 0.147002 0.459926 -0.245137
C94   C     C_3   0.320586 0.147002 0.540074 -0.245137
C95   C     C_3   0.185150 0.659984 0.539035 -0.229321
C96   C     C_3   0.814850 0.659984 0.460965 -0.229321
C97   C     C_3   0.685150 0.159985 0.539035 -0.229321
C98   C     C_3   0.314850 0.159984 0.460965 -0.229321
C99   C     C_3   0.249280 0.452974 0.474175 -0.225162
C100  C     C_3   0.018933 0.228093 0.963843 -0.116015
C101  C     C_3   0.750720 0.452974 0.525825 -0.225161
C102  C     C_3   0.749280 0.952974 0.474175 -0.225162
C103  C     C_3   0.250720 0.952974 0.525825 -0.225161
C104  C     C_3   0.303084 0.645690 0.440182 -0.135730
C105  C     C_3   0.696916 0.645691 0.559817 -0.135730
C106  C     C_3   0.803084 0.145690 0.440182 -0.135730
C107  C     C_3   0.196916 0.145691 0.559817 -0.135730
C108  C     C_3   0.238784 0.570735 0.430181 0.059128
C109  C     C_3   0.761216 0.570735 0.569819 0.059129
C110  C     C_3   0.738784 0.070735 0.430181 0.059128
C111  C     C_3   0.981066 0.228094 0.036157 -0.116015
C112  C     C_3   0.261216 0.070736 0.569819 0.059129
C113  C     C_3   0.252960 0.605543 0.567285 0.051697
C114  C     C_3   0.747040 0.605543 0.432715 0.051697
C115  C     C_3   0.752960 0.105543 0.567285 0.051697
C116  C     C_3   0.247040 0.105543 0.432715 0.051697
C117  C     C_3   0.245377 0.472513 0.555852 -0.268609
C118  C     C_3   0.754622 0.472513 0.444149 -0.268608
C119  C     C_3   0.745377 0.972513 0.555852 -0.268609
C120  C     C_3   0.254622 0.972513 0.444149 -0.268608
C121  C     C_R   0.262902 0.642965 0.855320 0.531467
C122  C     C_3   0.314327 0.529868 0.045300 -0.225942
C123  C     C_R   0.737097 0.642965 0.144680 0.531467
C124  C     C_R   0.762902 0.142965 0.855320 0.531467
C125  C     C_R   0.237097 0.142965 0.144680 0.531467
C126  C     C_3   0.317372 0.644186 0.521884 -0.225223
C127  C     C_3   0.682628 0.644187 0.478116 -0.225223
C128  C     C_3   0.817372 0.144186 0.521884 -0.225223
C129  C     C_3   0.182628 0.144187 0.478116 -0.225223
C130  C     C_R   0.275155 0.039906 0.644878 0.546492
C131  C     C_R   0.724844 0.039906 0.355122 0.546491
C132  C     C_R   0.775155 0.539906 0.644878 0.546492
Cr1   Cr    Cr6+3 0.229620 0.836040 0.749110 1.041479
Cr2   Cr    Cr6+3 0.613980 0.676590 0.250790 1.043499
Cr3   Cr    Cr6+3 0.886020 0.176590 0.749210 1.043499
Cr4   Cr    Cr6+3 0.113980 0.176590 0.250790 1.043499
Cr5   Cr    Cr6+3 0.770380 0.836040 0.250890 1.041479
Cr6   Cr    Cr6+3 0.729620 0.336040 0.749110 1.041479
Cr7   Cr    Cr6+3 0.270380 0.336040 0.250890 1.041479
Cr8   Cr    Cr6+3 0.387630 0.990680 0.750730 1.038435
Cr9   Cr    Cr6+3 0.612370 0.990680 0.249270 1.038435
Cr10  Cr    Cr6+3 0.887630 0.490680 0.750730 1.038435
Cr11  Cr    Cr6+3 0.112370 0.490680 0.249270 1.038435
Cr12  Cr    Cr6+3 0.386020 0.676590 0.749210 1.043499
H1    H     H_    0.377977 0.816118 0.025192 0.091919
H2    H     H_    0.714072 0.744662 0.920785 0.103947
H3    H     H_    0.213021 0.924176 0.416647 0.114911
H4    H     H_    0.319198 0.433542 0.052204 0.140290
H5    H     H_    0.680802 0.433542 0.947796 0.140290
H6    H     H_    0.819198 0.933542 0.052204 0.140290
H7    H     H_    0.180802 0.933543 0.947796 0.140290
H8    H     H_    0.354194 0.569775 0.079754 0.114450
H9    H     H_    0.645806 0.569775 0.920246 0.114450
H10   H     H_    0.854194 0.069775 0.079754 0.114450
H11   H     H_    0.145806 0.069775 0.920246 0.114450
H12   H     H_    0.362290 0.643106 0.965701 0.113405
H13   H     H_    0.785928 0.244662 0.079215 0.103947
H14   H     H_    0.637710 0.643106 0.034299 0.113405
H15   H     H_    0.862290 0.143106 0.965701 0.113405
H16   H     H_    0.137710 0.143106 0.034299 0.113405
H17   H     H_    0.668416 0.931262 0.047843 0.090706
H18   H     H_    0.331583 0.931262 0.952157 0.090706
H19   H     H_    0.168416 0.431262 0.047843 0.090706
H20   H     H_    0.831583 0.431262 0.952157 0.090706
H21   H     H_    0.726233 0.928089 0.930722 0.117958
H22   H     H_    0.273767 0.928089 0.069278 0.117958
H23   H     H_    0.226233 0.428089 0.930722 0.117958
H24   H     H_    0.214072 0.244662 0.920785 0.103947
H25   H     H_    0.773767 0.428089 0.069278 0.117958
H26   H     H_    0.265729 0.796836 0.958211 0.106511
H27   H     H_    0.734271 0.796836 0.041789 0.106511
H28   H     H_    0.765729 0.296836 0.958211 0.106511
H29   H     H_    0.234271 0.296837 0.041789 0.106511
H30   H     H_    0.180881 0.742122 0.961203 0.164171
H31   H     H_    0.819119 0.742122 0.038797 0.164171
H32   H     H_    0.680881 0.242122 0.961203 0.164171
H33   H     H_    0.622023 0.816118 0.974808 0.091919
H34   H     H_    0.319119 0.242122 0.038797 0.164171
H35   H     H_    0.636991 0.070234 0.030944 0.163852
H36   H     H_    0.363009 0.070234 0.969056 0.163852
H37   H     H_    0.136991 0.570234 0.030944 0.163852
H38   H     H_    0.863009 0.570234 0.969056 0.163852
H39   H     H_    0.159780 0.527500 0.911070 0.155064
H40   H     H_    0.840220 0.527500 0.088929 0.155064
H41   H     H_    0.659780 0.027500 0.911070 0.155064
H42   H     H_    0.340220 0.027500 0.088929 0.155064
H43   H     H_    0.556245 0.660733 0.452839 0.131884
H44   H     H_    0.877977 0.316119 0.025192 0.091919
H45   H     H_    0.443755 0.660733 0.547161 0.131883
H46   H     H_    0.056245 0.160733 0.452839 0.131884
H47   H     H_    0.943755 0.160733 0.547161 0.131883
H48   H     H_    0.472383 0.651476 0.434145 0.170679
H49   H     H_    0.527617 0.651476 0.565855 0.170678
H50   H     H_    0.972383 0.151476 0.434145 0.170679
H51   H     H_    0.027617 0.151476 0.565855 0.170678
H52   H     H_    0.615308 0.897462 0.451879 0.113087
H53   H     H_    0.384692 0.897461 0.548121 0.113087
H54   H     H_    0.115308 0.397462 0.451879 0.113087
H55   H     H_    0.122023 0.316118 0.974808 0.091919
H56   H     H_    0.884692 0.397462 0.548121 0.113087
H57   H     H_    0.599881 0.828203 0.572958 0.120101
H58   H     H_    0.400119 0.828202 0.427042 0.120100
H59   H     H_    0.099881 0.328203 0.572958 0.120101
H60   H     H_    0.900119 0.328202 0.427042 0.120100
H61   H     H_    0.436354 0.972962 0.415984 0.114962
H62   H     H_    0.563646 0.972962 0.584016 0.114962
H63   H     H_    0.936354 0.472962 0.415984 0.114962
H64   H     H_    0.063646 0.472962 0.584016 0.114962
H65   H     H_    0.450510 0.001752 0.536932 0.123933
H66   H     H_    0.194740 0.745544 0.082866 0.178454
H67   H     H_    0.549490 0.001752 0.463067 0.123933
H68   H     H_    0.950510 0.501752 0.536932 0.123933
H69   H     H_    0.049490 0.501752 0.463067 0.123933
H70   H     H_    0.129382 0.611496 0.447269 0.138816
H71   H     H_    0.870618 0.611496 0.552731 0.138816
H72   H     H_    0.629382 0.111496 0.447269 0.138816
H73   H     H_    0.370618 0.111496 0.552731 0.138816
H74   H     H_    0.179311 0.735797 0.434386 0.117582
H75   H     H_    0.820689 0.735797 0.565614 0.117582
H76   H     H_    0.679311 0.235797 0.434386 0.117582
H77   H     H_    0.805260 0.745544 0.917134 0.178454
H78   H     H_    0.320689 0.235797 0.565614 0.117582
H79   H     H_    0.178857 0.752937 0.552595 0.142332
H80   H     H_    0.821143 0.752936 0.447405 0.142332
H81   H     H_    0.678857 0.252937 0.552595 0.142332
H82   H     H_    0.321143 0.252936 0.447405 0.142332
H83   H     H_    0.140667 0.616912 0.565325 0.125351
H84   H     H_    0.859333 0.616912 0.434675 0.125351
H85   H     H_    0.640667 0.116912 0.565325 0.125351
H86   H     H_    0.359333 0.116912 0.434675 0.125351
H87   H     H_    0.718742 0.879332 0.455938 0.103684
H88   H     H_    0.694739 0.245544 0.082866 0.178454
H89   H     H_    0.281257 0.879332 0.544062 0.103684
H90   H     H_    0.218742 0.379333 0.455938 0.103684
H91   H     H_    0.781257 0.379333 0.544062 0.103684
H92   H     H_    0.696466 0.940066 0.578225 0.113378
H93   H     H_    0.303534 0.940066 0.421775 0.113378
H94   H     H_    0.196466 0.440067 0.578225 0.113378
H95   H     H_    0.803534 0.440066 0.421775 0.113378
H96   H     H_    0.294129 0.737670 0.422100 0.095621
H97   H     H_    0.705871 0.737671 0.577899 0.095622
H98   H     H_    0.794129 0.237670 0.422100 0.095621
H99   H     H_    0.305260 0.245544 0.917134 0.178454
H100  H     H_    0.205871 0.237671 0.577899 0.095622
H101  H     H_    0.533884 0.646199 0.934919 0.146746
H102  H     H_    0.466115 0.646200 0.065081 0.146745
H103  H     H_    0.033884 0.146199 0.934919 0.146746
H104  H     H_    0.966115 0.146200 0.065081 0.146745
H105  H     H_    0.339024 0.727491 0.540073 0.097494
H106  H     H_    0.660976 0.727491 0.459927 0.097494
H107  H     H_    0.839024 0.227491 0.540073 0.097494
H108  H     H_    0.160976 0.227491 0.459927 0.097494
H109  H     H_    0.355884 0.574245 0.531646 0.124540
H110  H     H_    0.285928 0.744662 0.079215 0.103947
H111  H     H_    0.644116 0.574245 0.468355 0.124539
H112  H     H_    0.855884 0.074245 0.531646 0.124540
H113  H     H_    0.144116 0.074245 0.468355 0.124539
H114  H     H_    0.302147 0.425398 0.463321 0.134428
H115  H     H_    0.697852 0.425399 0.536679 0.134427
H116  H     H_    0.802147 0.925398 0.463321 0.134428
H117  H     H_    0.197852 0.925399 0.536679 0.134427
H118  H     H_    0.286979 0.424176 0.583353 0.114911
H119  H     H_    0.713021 0.424176 0.416647 0.114911
H120  H     H_    0.786979 0.924176 0.583353 0.114911
N1    N     N_1   0.458515 0.120741 0.104226 -0.276644
N2    N     N_1   0.606368 0.400453 0.103624 -0.284529
N3    N     N_1   0.893632 0.900453 0.896376 -0.284529
N4    N     N_1   0.106368 0.900453 0.103624 -0.284529
N5    N     N_1   0.541485 0.120741 0.895773 -0.276644
N6    N     N_1   0.958515 0.620741 0.104226 -0.276644
N7    N     N_1   0.041485 0.620741 0.895773 -0.276644
N8    N     N_1   0.398960 0.556953 0.356416 -0.283276
N9    N     N_1   0.601040 0.556957 0.643586 -0.283275
N10   N     N_1   0.898960 0.056953 0.356416 -0.283276
N11   N     N_1   0.101040 0.056957 0.643586 -0.283275
N12   N     N_1   0.393632 0.400453 0.896376 -0.284529
O1    O     O_R   0.214130 0.708570 0.829890 -0.508331
O2    O     O_R   0.542830 0.717300 0.331620 -0.509089
O3    O     O_R   0.957170 0.217300 0.668380 -0.509089
O4    O     O_R   0.042830 0.217300 0.331620 -0.509089
O5    O     O_R   0.320870 0.624890 0.673130 -0.508720
O6    O     O_R   0.679130 0.624890 0.326870 -0.508719
O7    O     O_R   0.820870 0.124890 0.673130 -0.508720
O8    O     O_R   0.179130 0.124890 0.326870 -0.508719
O9    O     O_3   0.334430 0.834430 0.749680 -0.311467
O10   O     O_3   0.665570 0.834430 0.250320 -0.311466
O11   O     O_3   0.834430 0.334430 0.749680 -0.311467
O12   O     O_R   0.785870 0.708570 0.170110 -0.508332
O13   O     O_3   0.165570 0.334430 0.250320 -0.311466
O14   O     O_R   0.236050 0.959150 0.825270 -0.508435
O15   O     O_R   0.763950 0.959150 0.174730 -0.508435
O16   O     O_R   0.736050 0.459150 0.825270 -0.508435
O17   O     O_R   0.263950 0.459150 0.174730 -0.508435
O18   O     O_R   0.332100 0.076650 0.832310 -0.513408
O19   O     O_R   0.667900 0.076650 0.167690 -0.513408
O20   O     O_R   0.832100 0.576650 0.832310 -0.513408
O21   O     O_R   0.167900 0.576650 0.167690 -0.513408
O22   O     O_R   0.446500 0.918620 0.826240 -0.485318
O23   O     O_R   0.714130 0.208570 0.829890 -0.508331
O24   O     O_R   0.553500 0.918620 0.173760 -0.485318
O25   O     O_R   0.946500 0.418620 0.826240 -0.485318
O26   O     O_R   0.053500 0.418620 0.173760 -0.485318
O27   O     O_R   0.457310 0.715830 0.831280 -0.504577
O28   O     O_R   0.542690 0.715830 0.168720 -0.504577
O29   O     O_R   0.957310 0.215830 0.831280 -0.504577
O30   O     O_R   0.042690 0.215830 0.168720 -0.504577
O31   O     O_R   0.321000 0.623520 0.824130 -0.504785
O32   O     O_R   0.679000 0.623520 0.175870 -0.504785
O33   O     O_R   0.821000 0.123520 0.824130 -0.504785
O34   O     O_R   0.285870 0.208570 0.170110 -0.508332
O35   O     O_R   0.179000 0.123520 0.175870 -0.504785
O36   O     O_R   0.213990 0.710040 0.667000 -0.524540
O37   O     O_R   0.786010 0.710040 0.333000 -0.524540
O38   O     O_R   0.713990 0.210040 0.667000 -0.524540
O39   O     O_R   0.286010 0.210040 0.333000 -0.524540
O40   O     O_R   0.235920 0.960520 0.674260 -0.486669
O41   O     O_R   0.764080 0.960520 0.325740 -0.486668
O42   O     O_R   0.735920 0.460520 0.674260 -0.486669
O43   O     O_R   0.264080 0.460520 0.325740 -0.486668
O44   O     O_R   0.331960 0.078120 0.669410 -0.535491
O45   O     O_R   0.446360 0.919990 0.675230 -0.508686
O46   O     O_R   0.668040 0.078120 0.330590 -0.535491
O47   O     O_R   0.831960 0.578120 0.669410 -0.535491
O48   O     O_R   0.168040 0.578120 0.330590 -0.535491
O49   O     O_R   0.553640 0.919990 0.324770 -0.508686
O50   O     O_R   0.946360 0.419990 0.675230 -0.508686
O51   O     O_R   0.053640 0.419990 0.324770 -0.508686
O52   O     O_R   0.457170 0.717300 0.668380 -0.509089

loop_
_geom_bond_atom_site_label_1
_geom_bond_atom_site_label_2
_ccdc_geom_bond_type
C118  H95   S    
C107  C112  S    
C83   C87   S    
C107  C129  S    
C79   C87   S    
C4    C87   S    
C1    O18   A    
C93   H76   S    
Cr11  O48   S    
C14   C21   S    
C121  O1    A    
C83   H62   S    
Cr5   O37   S    
Cr4   O13   S    
C92   C109  S    
Cr10  O20   S    
C78   H101  S    
Cr1   O1    S    
C34   C35   S    
C44   C53   S    
Cr11  O13   S    
C63   H22   S    
C18   H33   S    
C111  H104  S    
C3    O43   A    
C48   C65   S    
C97   C115  S    
C72   H47   S    
C120  H93   S    
C84   H60   S    
C65   H31   S    
C24   C41   S    
C45   O19   A    
C66   H32   S    
C11   O8    A    
C44   H35   S    
C105  H97   S    
Cr6   O38   S    
Cr7   O43   S    
C78   C89   S    
Cr8   O44   S    
C28   N6    T    
C128  H107  S    
C17   C89   S    
C23   C75   S    
C47   C64   S    
C82   H58   S    
C71   H50   S    
C99   H114  S    
C17   C21   S    
C103  C112  S    
C19   C23   S    
C24   H7    S    
C19   H44   S    
C57   C123  S    
C7    C88   S    
C16   C20   S    
C63   H42   S    
C109  C132  S    
C103  H117  S    
C124  O33   A    
Cr2   O6    S    
C124  O23   A    
C2    C52   S    
C47   H110  S    
C117  H118  S    
Cr10  O25   S    
Cr9   O46   S    
C61   H25   S    
C44   H17   S    
C9    C114  S    
C64   H30   S    
Cr7   O13   S    
C43   C61   S    
C104  H96   S    
C5    O49   A    
C35   C122  S    
C84   C88   S    
C85   C90   S    
C57   C61   S    
C19   C111  S    
C59   C63   S    
C25   C76   S    
C40   C58   S    
C80   C88   S    
C100  H103  S    
Cr7   O34   S    
C70   H49   S    
C49   C53   S    
C101  H115  S    
Cr2   O10   S    
C22   C89   S    
C102  H116  S    
C71   H46   S    
C69   C70   S    
Cr4   O8    S    
C95   H83   S    
C13   H10   S    
C123  O12   A    
Cr3   O33   S    
C71   C88   S    
Cr4   O30   S    
C48   C52   S    
C100  C111  S    
Cr12  O5    S    
Cr1   O40   S    
C24   C54   S    
C102  C119  S    
C55   C121  S    
C40   H15   S    
C74   O24   A    
C81   H56   S    
C99   C108  S    
Cr9   O49   S    
C126  H105  S    
C127  H111  S    
C101  C118  S    
C96   H84   S    
C37   C40   S    
C129  H113  S    
C43   C52   S    
C15   C25   S    
C10   C115  S    
C21   C73   S    
C4    O52   A    
C92   H71   S    
C6    O50   A    
Cr2   O32   S    
C98   H86   S    
C118  H119  S    
C75   O25   A    
C69   H43   S    
Cr1   O36   S    
Cr12  O31   S    
Cr10  O11   S    
C43   H20   S    
C56   O20   A    
C23   C100  S    
C45   C53   S    
C121  O31   A    
C93   H72   S    
C31   C105  S    
C49   H13   S    
Cr5   O41   S    
C70   C87   S    
C9    O37   A    
Cr9   O24   S    
C130  O40   A    
C60   H23   S    
C49   C66   S    
C105  C127  S    
C29   N7    T    
C132  O42   A    
C30   N8    T    
C38   C41   S    
C50   H99   S    
C113  C126  S    
C6    C90   S    
Cr6   O11   S    
C94   H73   S    
C95   H79   S    
C115  C128  S    
C116  C120  S    
C12   C26   S    
C123  O32   A    
C122  H8    S    
C21   C78   S    
C92   H75   S    
Cr10  O47   S    
C99   C117  S    
C41   H16   S    
C72   C90   S    
C119  H120  S    
C8    O36   A    
C45   O15   A    
C51   C67   S    
Cr6   O42   S    
Cr7   O39   S    
Cr12  O27   S    
C27   N5    T    
C16   C23   S    
C115  C119  S    
C39   H14   S    
C7    O51   A    
C4    O45   A    
Cr8   O9    S    
C113  C117  S    
C22   C74   S    
C93   C97   S    
C105  C109  S    
C76   O26   A    
C61   H40   S    
C18   C22   S    
C36   C39   S    
C5    O2    A    
C79   C82   S    
C68   H29   S    
C80   H69   S    
C3    C108  S    
C59   C125  S    
C93   C110  S    
C46   C63   S    
C49   H88   S    
Cr6   O23   S    
C71   C72   S    
C50   H24   S    
Cr5   O10   S    
C94   C112  S    
C128  H112  S    
C9    O6    A    
C64   H26   S    
C131  O46   A    
C25   C111  S    
C91   C95   S    
C122  H4    S    
Cr3   O11   S    
C103  H89   S    
C94   H78   S    
C112  C130  S    
C58   C62   S    
C97   H81   S    
Cr8   O45   S    
C103  C120  S    
C96   C114  S    
C15   C19   S    
C50   C54   S    
Cr3   O3    S    
Cr4   O4    S    
C13   H6    S    
C20   C25   S    
C94   C98   S    
C101  C109  S    
C106  C128  S    
C13   C40   S    
Cr6   O16   S    
Cr11  O26   S    
C12   C17   S    
C73   O27   A    
C74   O28   A    
C14   C27   S    
C76   O30   A    
Cr12  O52   S    
C60   H39   S    
C42   H37   S    
C55   C60   S    
C67   O21   A    
C106  H98   S    
C6    O3    A    
C69   H48   S    
C13   C53   S    
Cr2   O2    S    
C46   H36   S    
Cr3   O7    S    
C99   H90   S    
C47   C51   S    
C33   N11   T    
Cr5   O12   S    
C82   C86   S    
C34   N12   T    
C10   O7    A    
C17   H1    S    
C80   C85   S    
C56   O16   A    
C20   C100  S    
C80   H54   S    
C46   C54   S    
C11   C116  S    
Cr10  O50   S    
C8    C113  S    
Cr4   O35   S    
C10   O38   A    
C130  O44   A    
C117  H94   S    
Cr1   O9    S    
C131  O41   A    
C102  H87   S    
C107  H100  S    
C102  C110  S    
C7    O4    A    
C31   N9    T    
C104  C108  S    
Cr11  O21   S    
C79   H65   S    
C73   O22   A    
C91   C108  S    
C57   C65   S    
C127  H106  S    
Cr1   O14   S    
C91   H74   S    
C114  C127  S    
C15   C28   S    
C68   H34   S    
C1    O14   A    
C85   H59   S    
C119  H92   S    
C81   H68   S    
C120  H3    S    
C51   C122  S    
C125  O34   A    
C50   C68   S    
C70   H45   S    
C132  O47   A    
C79   H53   S    
C12   C22   S    
Cr11  O51   S    
C14   C18   S    
C33   C107  S    
C92   C96   S    
C83   H57   S    
C72   H51   S    
C65   H27   S    
C66   H28   S    
C77   H52   S    
C91   H70   S    
Cr8   O18   S    
C75   O29   A    
Cr9   O19   S    
C48   H77   S    
C77   C83   S    
C15   C16   S    
C39   C57   S    
C89   H102  S    
C37   N3    T    
Cr5   O15   S    
C38   N4    T    
C2    C39   S    
C58   C66   S    
C97   H85   S    
C116  C129  S    
C96   H80   S    
C48   H2    S    
C101  H91   S    
C24   H11   S    
C18   C78   S    
C42   C51   S    
C26   N1    T    
C2    H5    S    
C129  H108  S    
C32   C106  S    
Cr2   O28   S    
C35   C55   S    
C110  C131  S    
C35   H12   S    
C41   C59   S    
C42   C60   S    
Cr7   O17   S    
C42   H19   S    
Cr8   O22   S    
C44   C62   S    
C16   C29   S    
C1    C54   S    
C20   H55   S    
C59   C68   S    
C98   C116  S    
C3    O48   A    
C55   C64   S    
C67   O17   A    
C114  C118  S    
C62   H41   S    
C5    C86   S    
C12   C14   S    
C77   C86   S    
C2    H9    S    
C125  O35   A    
C81   C90   S    
Cr9   O10   S    
C81   C84   S    
Cr3   O29   S    
C106  C110  S    
Cr12  O9    S    
C36   N2    T    
C43   H38   S    
C58   C124  S    
C8    O5    A    
C84   H63   S    
C95   C113  S    
C11   O39   A    
C126  H109  S    
C32   N10   T    
C77   H67   S    
C62   H21   S    
C104  C126  S    
C46   H18   S    
C47   H66   S    
C30   C104  S    
C82   H61   S    
C69   C86   S    
C52   C56   S    
C85   H64   S    
C98   H82   S    
