data_mof_unit_32590.cif
_audit_creation_date              2012-10-26T20:18:12-0400
_audit_creation_method            fapswitch 2.2
_symmetry_space_group_name_H-M    P1
_symmetry_Int_Tables_number       1
_space_group_crystal_system       triclinic
_cell_length_a                    23.5661
_cell_length_b                    8.660316
_cell_length_c                    7.521253
_cell_angle_alpha                 103.061205
_cell_angle_beta                  95.120261
_cell_angle_gamma                 94.038213
_cell_volume                      1482.8266418

loop_
_atom_site_label
_atom_site_type_symbol
_atom_type_description
_atom_site_fract_x
_atom_site_fract_y
_atom_site_fract_z
_atom_type_partial_charge
Br1   Br    Br    0.048844 0.038665 0.218050 -0.387089
Br2   Br    Br    0.952773 0.009977 0.706032 -0.366555
Br3   Br    Br    0.351116 0.785364 0.331321 -0.354645
Br4   Br    Br    0.646631 0.313249 0.100392 -0.325501
Br5   Br    Br    0.318288 0.209989 0.600618 -0.328056
Br6   Br    Br    0.691551 0.661926 0.882410 -0.329701
Br7   Br    Br    0.433959 0.284631 0.904742 -0.255495
Br8   Br    Br    0.568006 0.710322 0.100831 -0.261065
C1    C     C_R   0.498072 0.199820 0.453123 0.554840
C2    C     C_R   0.711667 0.557339 0.646874 0.130465
C3    C     C_R   0.235468 0.422300 0.559185 -0.036973
C4    C     C_R   0.770165 0.554431 0.635170 -0.037913
C5    C     C_R   0.210428 0.537492 0.482587 0.162561
C6    C     C_R   0.791484 0.501141 0.467255 0.165757
C7    C     C_2   0.496576 0.031405 0.427359 -0.080580
C8    C     C_2   0.504000 0.968715 0.572644 -0.085768
C9    C     C_R   0.391274 0.501545 0.500247 0.589820
C10   C     C_R   0.609138 0.497680 0.497946 0.568816
C11   C     C_R   0.884095 0.654085 0.514857 0.426094
C12   C     C_R   0.502180 0.800227 0.546888 0.554971
C13   C     C_R   0.116146 0.400609 0.376084 0.424436
C14   C     C_R   0.878075 0.371109 0.412164 0.410199
C15   C     C_R   0.124607 0.667867 0.555687 0.411515
C16   C     C_R   0.936921 0.376360 0.398640 0.008266
C17   C     C_R   0.064988 0.668577 0.541982 0.010047
C18   C     C_R   0.970618 0.522664 0.460621 -0.063745
C19   C     C_R   0.030645 0.526390 0.460132 -0.061494
C20   C     C_R   0.944516 0.664107 0.526583 0.040425
C21   C     C_R   0.056329 0.387398 0.381729 0.043725
C22   C     C_R   0.962564 0.237723 0.327864 -0.043475
C23   C     C_R   0.245107 0.640653 0.407082 0.162247
C24   C     C_R   0.039351 0.807272 0.612741 -0.044814
C25   C     C_R   0.021262 0.241759 0.315146 0.188321
C26   C     C_R   0.979965 0.807897 0.602245 0.187514
C27   C     C_R   0.753208 0.443918 0.307124 0.171348
C28   C     C_R   0.304694 0.633819 0.421980 0.177491
C29   C     C_R   0.694043 0.430415 0.319639 0.196776
C30   C     C_R   0.329405 0.515942 0.498627 0.001877
C31   C     C_R   0.672043 0.493414 0.489448 -0.010880
C32   C     C_R   0.293576 0.405035 0.557519 0.123812
Cu1   Cu    Cu3+1 0.506340 0.517380 0.684380 1.197891
Cu2   Cu    Cu3+1 0.493660 0.482620 0.315620 1.193828
H1    H     H_    0.936816 0.124671 0.280058 0.215252
H2    H     H_    0.796309 0.305943 0.116924 0.289654
H3    H     H_    0.065567 0.917409 0.675017 0.213881
H4    H     H_    0.208574 0.337711 0.608355 0.190374
H5    H     H_    0.799852 0.600287 0.757491 0.178386
H6    H     H_    0.488973 0.958750 0.287816 0.178636
H7    H     H_    0.511643 0.041347 0.712173 0.175313
H8    H     H_    0.188348 0.678804 0.205581 0.258110
H9    H     H_    0.202461 0.834635 0.391404 0.305421
H10   H     H_    0.800666 0.502237 0.115409 0.251392
N1    N     N_R   0.852496 0.509023 0.461376 -0.412786
N2    N     N_R   0.149031 0.537245 0.467708 -0.410413
N3    N     N_2   0.484110 0.456420 0.038520 0.015945
N4    N     N_2   0.515890 0.543580 0.961480 0.023265
N5    N     N_3   0.220483 0.744601 0.303838 -0.503459
N6    N     N_3   0.773466 0.405936 0.129311 -0.523769
O1    O     O_R   0.504120 0.286130 0.619770 -0.490787
O2    O     O_2   0.141722 0.279194 0.279971 -0.404221
O3    O     O_2   0.846707 0.229036 0.378964 -0.439231
O4    O     O_2   0.157835 0.795343 0.659502 -0.452605
O5    O     O_R   0.495880 0.713870 0.380230 -0.488711
O6    O     O_R   0.493410 0.256770 0.308360 -0.477160
O7    O     O_R   0.506590 0.743230 0.691640 -0.483505
O8    O     O_R   0.423230 0.514630 0.655730 -0.469837
O9    O     O_R   0.576770 0.485370 0.344270 -0.462410
O10   O     O_R   0.412530 0.485280 0.344320 -0.464410
O11   O     O_R   0.587470 0.514720 0.655680 -0.448821
O12   O     O_2   0.856675 0.786861 0.555347 -0.392799

loop_
_geom_bond_atom_site_label_1
_geom_bond_atom_site_label_2
_ccdc_geom_bond_type
Br6   C2    S    
Cu2   O10   S    
C10   C31   S    
Cu1   N4    S    
C13   C21   A    
Cu1   O8    S    
H9    N5    S    
Cu2   O6    S    
Cu2   N3    S    
C17   C19   A    
C1    O6    A    
C24   H3    S    
C18   C20   A    
Cu1   O7    S    
C13   O2    S    
Br7   N3    S    
C8    C12   S    
C11   N1    A    
N3    N4    D    
C28   C30   A    
C9    O8    A    
C20   C26   A    
C29   C31   A    
C8    H7    S    
C14   O3    S    
C30   C32   A    
Br8   N4    S    
C3    C5    A    
Br2   C26   S    
C18   C19   A    
C13   N2    A    
H10   N6    S    
Br3   C28   S    
C12   O5    A    
C4    H5    S    
C7    H6    S    
C27   C29   A    
C16   C18   A    
C14   N1    A    
C2    C4    A    
C9    C30   S    
C15   C17   A    
C11   C20   A    
Cu2   O9    S    
C14   C16   A    
C22   H1    S    
C16   C22   A    
C19   C21   A    
Br1   C25   S    
C3    C32   A    
C21   C25   A    
C12   O7    A    
C6    N1    S    
Br4   C29   S    
Cu1   O1    S    
C15   N2    A    
Cu1   O11   S    
C5    N2    S    
Cu1   Cu2   S    
Br5   C32   S    
H2    N6    S    
C6    C27   A    
C23   C28   A    
C9    O10   A    
C27   N6    S    
C22   C25   A    
C1    O1    A    
C10   O9    A    
C11   O12   S    
H8    N5    S    
C10   O11   A    
Cu2   O5    S    
C5    C23   A    
C15   O4    S    
C23   N5    S    
C7    C8    D    
C1    C7    S    
C4    C6    A    
C2    C31   A    
C3    H4    S    
C17   C24   A    
C24   C26   A    
