data_mof_unit_31811.cif
_audit_creation_date              2012-12-11T18:11:29-0500
_audit_creation_method            fapswitch 2.2
_symmetry_space_group_name_H-M    P1
_symmetry_Int_Tables_number       1
_space_group_crystal_system       triclinic
_cell_length_a                    8.258064
_cell_length_b                    12.766113
_cell_length_c                    18.687045
_cell_angle_alpha                 99.446449
_cell_angle_beta                  91.235622
_cell_angle_gamma                 99.156624
_cell_volume                      1916.27150504

loop_
_atom_site_label
_atom_site_type_symbol
_atom_type_description
_atom_site_fract_x
_atom_site_fract_y
_atom_site_fract_z
_atom_type_partial_charge
Ba1   Ba    Ba6+2 0.852780 0.548340 0.465070 1.704624
Ba2   Ba    Ba6+2 0.337060 0.451750 0.534940 1.743358
C1    C     C_3   0.640205 0.814315 0.148478 -0.364857
C2    C     C_R   0.900629 0.381035 0.095110 -0.014349
C3    C     C_R   0.768784 0.400580 0.951615 -0.077007
C4    C     C_3   0.180967 0.820420 0.263721 0.374034
C5    C     C_R   0.934768 0.438605 0.974718 0.027902
C6    C     C_R   0.710642 0.404295 0.882008 -0.086529
C7    C     C_R   0.814476 0.446699 0.831843 -0.105036
C8    C     C_R   0.978356 0.493191 0.854633 -0.009892
C9    C     C_R   0.039363 0.488231 0.926101 0.038557
C10   C     C_R   0.759607 0.442605 0.759270 -0.058476
C11   C     C_R   0.868796 0.481937 0.709762 0.300301
C12   C     C_3   0.594115 0.778318 0.220597 0.342684
C13   C     C_R   0.025489 0.538649 0.732405 -0.022525
C14   C     C_R   0.080686 0.545332 0.806285 -0.108156
C15   C     C_R   0.163899 0.474478 0.066766 0.005720
C16   C     C_3   0.273735 0.927901 0.248162 -0.388685
C17   C     C_R   0.224218 0.475165 0.139357 -0.057640
C18   C     C_R   0.116964 0.435112 0.190651 -0.024508
C19   C     C_R   0.959528 0.382332 0.165430 -0.026654
C20   C     C_R   0.234731 0.601932 0.833717 -0.001609
C21   C     C_R   0.297401 0.593511 0.902103 -0.079648
C22   C     C_R   0.204818 0.532219 0.948106 0.029246
C23   C     C_3   0.445202 0.272215 0.314431 0.286024
C24   C     C_R   0.269819 0.518648 0.016708 -0.060758
C25   C     C_R   0.438975 0.544653 0.036303 -0.153183
C26   C     C_R   0.391248 0.516377 0.160525 -0.098807
C27   C     C_R   0.499148 0.540912 0.105966 0.532470
C28   C     C_3   0.225820 0.797818 0.629055 0.829523
C29   C     C_R   0.441916 0.533516 0.235437 0.005354
C30   C     C_R   0.329619 0.502050 0.286158 -0.311100
C31   C     C_R   0.170477 0.448992 0.265103 0.031211
C32   C     C_R   0.766115 0.182048 0.525588 -0.258523
C33   C     C_R   0.431595 0.807365 0.468339 -0.229986
C34   C     C_3   0.403262 0.231072 0.233951 -0.415155
C35   C     C_R   0.399112 0.984504 0.447535 -0.115723
C36   C     C_R   0.340357 0.875110 0.439718 -0.041403
C37   C     C_R   0.578796 0.848794 0.508904 0.147040
C38   C     C_R   0.640418 0.961409 0.517637 -0.054306
C39   C     C_R   0.550043 0.029228 0.484945 -0.054078
C40   C     C_3   0.150101 0.899527 0.638328 -0.259106
C41   C     C_R   0.615142 0.139669 0.489041 0.011240
C42   C     C_R   0.855985 0.116946 0.557350 -0.006202
C43   C     C_R   0.791669 0.008139 0.555368 -0.113688
C44   C     C_3   0.846435 0.206933 0.310030 0.343058
C45   C     C_3   0.049988 0.232362 0.733770 0.359200
C46   C     C_3   0.836453 0.100255 0.258952 -0.259390
C47   C     C_3   0.735490 0.706883 0.682453 0.319950
C48   C     C_3   0.792413 0.748042 0.762159 -0.254560
C49   C     C_3   0.901694 0.016660 0.295812 -0.164882
C50   C     C_3   0.796585 0.985039 0.357285 -0.329702
C51   C     C_3   0.671353 0.812016 0.803620 -0.137921
C52   C     C_3   0.715052 0.835399 0.885063 -0.463609
C53   C     C_3   0.079604 0.755221 0.195583 -0.119399
C54   C     C_3   0.168320 0.744997 0.124520 -0.516297
C55   C     C_3   0.062788 0.203986 0.809363 -0.371899
C56   C     C_3   0.540282 0.177355 0.694556 0.333424
C57   C     C_3   0.567134 0.082768 0.730745 -0.389370
C58   C     C_R   0.997484 0.431792 0.045339 0.045053
F1    F     F_    0.819222 0.469096 0.638856 -0.713051
F2    F     F_    0.664240 0.559531 0.118218 -0.727547
F3    F     F_    0.392923 0.828219 0.632118 -0.766185
H1    H     H_    0.575743 0.848977 0.260309 0.001022
H2    H     H_    0.625989 0.643212 0.679674 0.084977
H3    H     H_    0.531061 0.832955 0.120610 0.065120
H4    H     H_    0.914591 0.800092 0.764806 0.109199
H5    H     H_    0.805951 0.678071 0.788666 0.037325
H6    H     H_    0.475146 0.724828 0.212010 -0.063566
H7    H     H_    0.688879 0.750602 0.111847 0.175636
H8    H     H_    0.335127 0.298293 0.339872 0.058324
H9    H     H_    0.546477 0.342149 0.320316 0.029472
H10   H     H_    0.292532 0.167745 0.227009 0.123046
H11   H     H_    0.378103 0.297525 0.206270 0.065833
H12   H     H_    0.210384 0.957982 0.685532 0.124765
H13   H     H_    0.507316 0.197030 0.207865 0.107716
H14   H     H_    0.734424 0.887656 0.156996 0.079473
H15   H     H_    0.369645 0.915661 0.208893 0.082594
H16   H     H_    0.128364 0.311629 0.733706 0.076385
H17   H     H_    0.919980 0.238127 0.721501 -0.071718
H18   H     H_    0.192772 0.201740 0.824600 0.144389
H19   H     H_    0.016820 0.265092 0.849495 0.072203
H20   H     H_    0.987887 0.123978 0.810635 0.107970
H21   H     H_    0.658774 0.208406 0.672389 -0.047065
H22   H     H_    0.447828 0.148429 0.648691 0.092005
H23   H     H_    0.165269 0.936402 0.588713 0.097982
H24   H     H_    0.665822 0.109394 0.774255 0.097513
H25   H     H_    0.604097 0.018379 0.690038 0.133562
H26   H     H_    0.452668 0.049981 0.755105 0.140652
H27   H     H_    0.582452 0.372840 0.868383 0.107309
H28   H     H_    0.876943 0.342709 0.199619 0.059317
H29   H     H_    0.310742 0.651424 0.802063 0.090486
H30   H     H_    0.368782 0.515559 0.343017 0.061977
H31   H     H_    0.678660 0.367586 0.986147 0.076615
H32   H     H_    0.777155 0.339256 0.081833 0.055953
H33   H     H_    0.418140 0.638438 0.918636 0.053507
H34   H     H_    0.018262 0.880164 0.648737 0.055514
H35   H     H_    0.269719 0.771288 0.280852 -0.059720
H36   H     H_    0.528624 0.565686 0.997634 0.100910
H37   H     H_    0.323389 0.033637 0.424956 0.107410
H38   H     H_    0.863314 0.960908 0.581428 0.097098
H39   H     H_    0.817634 0.265744 0.526569 0.113513
H40   H     H_    0.382040 0.722584 0.463118 0.051634
H41   H     H_    0.188747 0.973651 0.224670 0.100922
H42   H     H_    0.334376 0.977312 0.298679 0.112077
H43   H     H_    0.183572 0.748917 0.575182 -0.030996
H44   H     H_    0.849906 0.035102 0.408854 0.114505
H45   H     H_    0.772610 0.253335 0.281584 0.014174
H46   H     H_    0.667807 0.996753 0.348725 0.086322
H47   H     H_    0.794796 0.899302 0.361362 0.183605
H48   H     H_    0.901657 0.944850 0.254205 0.144592
H49   H     H_    0.030177 0.047211 0.317119 0.153551
H50   H     H_    0.709659 0.758985 0.906763 0.139622
H51   H     H_    0.840424 0.883093 0.896086 0.138679
H52   H     H_    0.626050 0.882262 0.913501 0.124848
H53   H     H_    0.673513 0.889632 0.783783 0.152220
H54   H     H_    0.545188 0.765908 0.794043 0.125082
H55   H     H_    0.204232 0.824606 0.107812 0.133614
H56   H     H_    0.791191 0.195003 0.361745 0.021306
H57   H     H_    0.277198 0.706380 0.129140 0.131712
H58   H     H_    0.083720 0.694016 0.080890 0.165356
H59   H     H_    0.033117 0.673068 0.206430 0.157966
H60   H     H_    0.972245 0.793754 0.185866 0.151296
H61   H     H_    0.706804 0.069691 0.239102 0.085025
H62   H     H_    0.909204 0.113092 0.210816 0.075616
H63   H     H_    0.836357 0.672381 0.654313 0.020695
O1    O     O_2   0.873090 0.425890 0.325140 -0.491756
O2    O     O_2   0.193160 0.122967 0.550507 -0.487038
O3    O     O_3   0.103971 0.152200 0.683639 -0.608010
O4    O     O_3   0.122420 0.434370 0.414380 -0.461390
O5    O     O_3   0.578370 0.633800 0.536380 -0.462436
O6    O     O_2   0.341510 0.231850 0.465510 -0.445251
O7    O     O_3   0.493289 0.188880 0.345905 -0.669867
O8    O     O_2   0.420819 0.451769 0.756926 -0.506230
O9    O     O_3   0.481421 0.254709 0.745555 -0.607067
O10   O     O_3   0.659500 0.627100 0.368810 -0.490081
O11   O     O_2   0.780411 0.541482 0.248049 -0.412585
O12   O     O_3   0.697203 0.792338 0.650619 -0.595127
O13   O     O_3   0.011562 0.253725 0.325865 -0.652891
O14   O     O_3   0.720999 0.732513 0.248266 -0.562742
O15   O     O_2   0.848200 0.768190 0.534530 -0.498596
O16   O     O_3   0.081160 0.685950 0.404810 -0.464189
O17   O     O_2   0.011996 0.876365 0.454284 -0.489837
O18   O     O_3   0.068131 0.843429 0.317357 -0.591704
O19   O     O_2   0.316610 0.574140 0.674900 -0.467505
O20   O     O_3   0.067290 0.565720 0.585630 -0.433814
O21   O     O_3   0.530210 0.372990 0.631200 -0.395914
O22   O     O_3   0.184787 0.745833 0.688018 -0.675133
O23   O     O_3   0.611340 0.366290 0.463630 -0.450961
O24   O     O_3   0.108550 0.314140 0.595200 -0.458289
P1    P     P_3+3 0.041040 0.394770 0.336330 0.976410
P2    P     P_3+3 0.672880 0.754030 0.556100 1.064867
P3    P     P_3+3 0.130407 0.822374 0.403234 0.956648
P4    P     P_3+3 0.148670 0.605320 0.663680 1.030245
P5    P     P_3+3 0.064202 0.175660 0.595820 0.970245
P6    P     P_3+3 0.646121 0.607931 0.273738 1.043786
P7    P     P_3+3 0.520274 0.230224 0.439998 0.935685
P8    P     P_3+3 0.547782 0.382934 0.724683 1.003824

loop_
_geom_bond_atom_site_label_1
_geom_bond_atom_site_label_2
_ccdc_geom_bond_type
Ba2   O24   S    
C53   C54   S    
C49   H49   S    
C25   C27   A    
C54   H57   S    
C17   C18   A    
C45   H16   S    
C4    C53   S    
C3    H31   S    
O5    P2    S    
C51   C52   S    
Ba2   O19   S    
C5    C9    A    
C47   H63   S    
C25   H36   S    
C40   H12   S    
C32   H39   S    
C47   H2    S    
C45   O3    S    
C15   C24   A    
C4    H35   S    
C26   C27   A    
C22   C24   A    
C33   H40   S    
O10   P6    S    
C51   H54   S    
O17   P3    D    
C13   C14   A    
C52   H50   S    
C9    C22   A    
C21   H33   S    
Ba1   P2    S    
Ba1   Ba2   S    
C57   H26   S    
O18   P3    S    
C57   H25   S    
C13   P4    S    
Ba1   O16   S    
C34   H13   S    
O2    P5    D    
O1    P1    D    
C46   H62   S    
C46   C49   S    
C50   H44   S    
C6    C7    A    
C44   H45   S    
Ba2   O6    S    
C21   C22   A    
C55   H20   S    
Ba1   O23   S    
C23   H8    S    
C49   H48   S    
Ba1   O10   S    
C23   O7    S    
C48   H4    S    
C51   H53   S    
Ba2   O23   S    
C30   H30   S    
C53   H59   S    
Ba2   P4    S    
O9    P8    S    
C47   O12   S    
C28   H43   S    
C39   C41   A    
Ba1   O20   S    
O22   P4    S    
C45   H17   S    
C7    C8    A    
C29   P6    S    
C53   H60   S    
C38   C43   A    
C4    C16   S    
C44   C46   S    
C48   C51   S    
C49   C50   S    
C33   C36   A    
C32   C42   A    
Ba1   O4    S    
C31   P1    S    
C40   H34   S    
C37   C38   A    
O3    P5    S    
C15   C58   A    
C41   P7    S    
C56   C57   S    
C37   P2    S    
O11   P6    D    
C33   C37   A    
C35   C36   A    
C56   H21   S    
C45   C55   S    
C2    H32   S    
C29   C30   A    
O20   P4    S    
C50   H47   S    
C16   H15   S    
C12   H1    S    
C52   H52   S    
C2    C58   A    
Ba2   O5    S    
C24   C25   A    
C23   H9    S    
C16   H41   S    
C1    H7    S    
C18   C19   A    
C17   C26   A    
C1    C12   S    
C43   H38   S    
O14   P6    S    
C40   H23   S    
O19   P4    D    
C38   C39   A    
O8    P8    D    
C12   O14   S    
O24   P5    S    
C11   C13   A    
C12   H6    S    
C55   H18   S    
C1    H3    S    
C6    H27   S    
C18   C31   A    
C4    O18   S    
C1    H14   S    
C56   H22   S    
C5    C58   A    
Ba2   O4    S    
C42   C43   A    
C3    C5    A    
C19   H28   S    
C27   F2    S    
C34   H11   S    
C14   C20   A    
C55   H19   S    
C42   P5    S    
C54   H55   S    
C26   C29   A    
C32   C41   A    
Ba1   O1    S    
Ba1   O5    S    
C46   H61   S    
C3    C6    A    
C28   O22   S    
C56   O9    S    
Ba2   O20   S    
O6    P7    D    
O12   P2    S    
C54   H58   S    
Ba2   O21   S    
C16   H42   S    
C8    C14   A    
C30   C31   A    
C2    C19   A    
O23   P7    S    
C50   H46   S    
C52   H51   S    
O13   P1    S    
C15   C17   A    
C44   H56   S    
Ba1   P1    S    
O7    P7    S    
O16   P3    S    
C35   C39   A    
C7    C10   A    
C57   H24   S    
Ba1   O15   S    
C34   H10   S    
C23   C34   S    
C11   F1    S    
C10   C11   A    
C47   C48   S    
C8    C9    A    
C20   H29   S    
C20   C21   A    
C28   C40   S    
O4    P1    S    
C36   P3    S    
C10   P8    S    
C28   F3    S    
O21   P8    S    
C48   H5    S    
C35   H37   S    
O15   P2    D    
C44   O13   S    
