data_mof_unit_16339.cif
_audit_creation_date              2012-12-10T18:50:00-0500
_audit_creation_method            fapswitch 2.2
_symmetry_space_group_name_H-M    P1
_symmetry_Int_Tables_number       1
_space_group_crystal_system       triclinic
_cell_length_a                    10.712107
_cell_length_b                    9.8374
_cell_length_c                    10.688379
_cell_angle_alpha                 90.748086
_cell_angle_beta                  89.548794
_cell_angle_gamma                 90.003305
_cell_volume                      1126.20277111

loop_
_atom_site_label
_atom_site_type_symbol
_atom_type_description
_atom_site_fract_x
_atom_site_fract_y
_atom_site_fract_z
_atom_type_partial_charge
C1    C     C_R   0.260378 0.499985 0.500091 0.884664
C2    C     C_R   0.550713 0.929460 0.597012 -0.060222
C3    C     C_R   0.448710 0.926659 0.403262 -0.051035
C4    C     C_R   0.448551 0.070411 0.403535 -0.046494
C5    C     C_R   0.502868 0.499516 0.257449 0.834994
C6    C     C_R   0.740171 0.499574 0.501125 0.870750
C7    C     C_R   0.502271 0.501057 0.741934 0.862310
C8    C     C_3   0.527620 0.649135 0.071408 -0.188308
C9    C     C_3   0.373850 0.457164 0.069238 -0.194337
C10   C     C_3   0.523258 0.649778 0.928352 -0.433495
C11   C     C_3   0.379966 0.444297 0.925953 -0.425024
C12   C     C_3   0.615460 0.414195 0.921191 -0.457174
C13   C     C_3   0.612305 0.401186 0.065435 0.013501
C14   C     C_3   0.506319 0.499140 0.120033 -0.011042
C15   C     C_3   0.504969 0.502757 0.877381 0.104731
C16   C     C_1   0.642862 0.716346 0.116414 0.232052
C17   C     C_1   0.317719 0.333458 0.122650 0.195488
C18   C     C_1   0.736886 0.435677 0.115184 0.143041
C19   C     C_1   0.590795 0.256865 0.096842 0.210871
C20   C     C_1   0.879367 0.278387 0.377353 0.226447
C21   C     C_1   0.875889 0.702532 0.647594 0.185317
C22   C     C_R   0.067047 0.393865 0.440715 -0.219882
C23   C     C_R   0.065849 0.602192 0.566165 -0.224658
C24   C     C_R   0.939051 0.391187 0.441629 -0.009825
C25   C     C_R   0.937635 0.601118 0.569789 -0.002328
C26   C     C_R   0.873467 0.497529 0.503935 -0.117582
C27   C     C_R   0.128857 0.499547 0.501299 -0.052013
C28   C     C_R   0.551260 0.073318 0.596755 -0.059754
H1    H     H_    0.449646 0.714861 0.106091 0.143505
H2    H     H_    0.371698 0.336085 0.894629 0.192738
H3    H     H_    0.704188 0.461482 0.887874 0.163585
H4    H     H_    0.612554 0.312089 0.874700 0.173256
H5    H     H_    0.118847 0.314321 0.391715 0.166443
H6    H     H_    0.116862 0.680769 0.616484 0.155840
H7    H     H_    0.306671 0.539968 0.093593 0.135275
H8    H     H_    0.444203 0.715206 0.898599 0.178829
H9    H     H_    0.299932 0.500270 0.885038 0.154565
H10   H     H_    0.592504 0.128744 0.674090 0.130102
H11   H     H_    0.590502 0.876220 0.674982 0.143772
H12   H     H_    0.407469 0.871285 0.325893 0.129890
H13   H     H_    0.407410 0.123512 0.326716 0.159027
H14   H     H_    0.610042 0.694164 0.887421 0.189350
N1    N     N_R   0.499970 0.857200 0.499970 -0.086559
N2    N     N_R   0.499970 0.142800 0.499970 -0.087180
N3    N     N_1   0.732442 0.769753 0.151724 -0.169115
N4    N     N_1   0.271616 0.237045 0.163136 -0.226880
N5    N     N_1   0.834848 0.463346 0.152644 -0.199607
N6    N     N_1   0.574816 0.143695 0.120630 -0.207843
N7    N     N_1   0.831950 0.187929 0.326228 -0.172438
N8    N     N_1   0.827205 0.783572 0.710406 -0.228859
O1    O     O_R   0.316750 0.614620 0.499990 -0.622964
O2    O     O_R   0.316750 0.385380 0.499990 -0.619374
O3    O     O_R   0.499970 0.614670 0.314790 -0.631054
O4    O     O_R   0.499970 0.385330 0.314790 -0.613695
O5    O     O_R   0.683220 0.614710 0.500010 -0.598815
O6    O     O_R   0.683220 0.385290 0.500010 -0.617438
O7    O     O_R   0.500010 0.614660 0.685200 -0.636474
O8    O     O_R   0.500010 0.385340 0.685200 -0.636977
Zn1   Zn    Zn3+2 0.499980 0.653120 0.500000 0.962288
Zn2   Zn    Zn3+2 0.499980 0.346880 0.500000 0.965819

loop_
_geom_bond_atom_site_label_1
_geom_bond_atom_site_label_2
_ccdc_geom_bond_type
C16   N3    T    
C8    C14   S    
C9    C14   S    
C11   H9    S    
C20   N7    T    
O5    Zn1   S    
C10   H14   S    
C9    C11   S    
C2    N1    A    
C7    O8    A    
C12   C15   S    
N1    Zn1   S    
C6    O5    A    
C22   C27   A    
C23   H6    S    
C18   N5    T    
C7    C15   S    
O3    Zn1   S    
C8    C16   S    
O4    Zn2   S    
C13   C14   S    
C12   C13   S    
C7    O7    A    
C1    O1    A    
C3    N1    A    
C5    C14   S    
C6    C26   S    
C13   C18   S    
N2    Zn2   S    
C8    H1    S    
C5    O3    A    
C21   N8    T    
C25   C26   A    
C24   C26   A    
C3    H12   S    
C23   C27   A    
C10   C15   S    
C23   C25   A    
C12   H3    S    
C1    O2    A    
C22   C24   A    
O7    Zn1   S    
O1    Zn1   S    
C4    H13   S    
C13   C19   S    
O8    Zn2   S    
C3    C4    A    
C20   C24   S    
C5    O4    A    
O2    Zn2   S    
C17   N4    T    
C8    C10   S    
C9    C17   S    
C1    C27   S    
C22   H5    S    
C21   C25   S    
C19   N6    T    
C9    H7    S    
C2    C28   A    
C4    N2    A    
C28   H10   S    
C11   C15   S    
C2    H11   S    
C28   N2    A    
C12   H4    S    
O6    Zn2   S    
C11   H2    S    
C6    O6    A    
C10   H8    S    
