data_mof_unit_7949.cif
_audit_creation_date              2013-03-05T15:50:48-0500
_audit_creation_method            fapswitch 2.2
_symmetry_space_group_name_H-M    P1
_symmetry_Int_Tables_number       1
_space_group_crystal_system       triclinic
_cell_length_a                    14.30623
_cell_length_b                    14.785932
_cell_length_c                    33.200995
_cell_angle_alpha                 97.579459
_cell_angle_beta                  90.523772
_cell_angle_gamma                 118.988707
_cell_volume                      6067.82582986

loop_
_atom_site_label
_atom_site_type_symbol
_atom_site_description
_atom_site_fract_x
_atom_site_fract_y
_atom_site_fract_z
_atom_type_partial_charge
O1    O     O_R   0.318160 0.824460 0.443680 -0.455983
O2    O     O_R   0.525040 0.857250 0.449830 -0.473626
C1    C     C_R   0.617810 0.908788 0.437180 0.562890
O3    O     O_R   0.684760 0.998800 0.456360 -0.467134
O4    O     O_R   0.647540 0.166310 0.470260 -0.467709
C2    C     C_R   0.594892 0.207016 0.457049 0.553516
O5    O     O_R   0.500960 0.181750 0.467450 -0.512534
O6    O     O_R   0.331100 0.981120 0.457080 -0.508657
C3    C     C_R   0.294413 0.892322 0.434598 0.557961
O7    O     O_R   0.315560 0.821140 0.532010 -0.462374
O8    O     O_R   0.522630 0.854180 0.531710 -0.467405
C4    C     C_R   0.615013 0.903922 0.550945 0.549761
O9    O     O_R   0.682160 0.995480 0.544690 -0.515735
O10   O     O_R   0.645130 0.163230 0.552140 -0.500441
C5    C     C_R   0.590713 0.200774 0.570696 0.561748
O11   O     O_R   0.498360 0.178430 0.555780 -0.476108
O12   O     O_R   0.328690 0.978040 0.538950 -0.506578
C6    C     C_R   0.287688 0.886101 0.548077 0.555531
Cr1   Cr    Cr6+3 0.424820 0.846020 0.489780 1.134928
Cr2   Cr    Cr6+3 0.657880 0.078580 0.505700 1.091469
Cr3   Cr    Cr6+3 0.417280 0.075360 0.504550 1.066428
O13   O     O_3   0.499990 0.999990 0.500010 -0.277948
C7    C     C_R   0.739526 0.452262 0.106154 0.019560
C8    C     C_R   0.646555 0.422201 0.126978 -0.117349
C9    C     C_R   0.648699 0.411140 0.167889 -0.115733
C10   C     C_R   0.743713 0.429829 0.188698 0.025811
C11   C     C_R   0.834791 0.453205 0.167323 -0.101636
C12   C     C_R   0.832740 0.464317 0.126304 -0.111396
C13   C     C_R   0.793508 0.374020 0.249424 -0.080841
C14   C     C_R   0.785783 0.361912 0.290414 -0.080888
C15   C     C_R   0.731856 0.402836 0.315218 0.035501
C16   C     C_R   0.692314 0.462089 0.299267 -0.093130
C17   C     C_R   0.700234 0.474375 0.258387 -0.098590
C18   C     C_R   0.747497 0.427300 0.232842 0.033666
C19   C     C_R   0.596449 0.328934 0.364764 -0.119690
C20   C     C_R   0.563881 0.281284 0.399230 -0.133843
C21   C     C_R   0.747238 0.323905 0.417596 0.091126
C22   C     C_R   0.778839 0.370535 0.382523 -0.081559
C23   C     C_R   0.703310 0.370576 0.355403 0.002048
C24   C     C_R   0.637387 0.274130 0.425184 0.024093
H1    H     H_    0.573452 0.411868 0.112223 0.140629
H2    H     H_    0.905865 0.488030 0.111098 0.148974
H3    H     H_    0.862169 0.405061 0.375961 0.164593
H4    H     H_    0.815951 0.315039 0.302046 0.124678
H5    H     H_    0.666679 0.518171 0.246415 0.122617
H6    H     H_    0.479491 0.245009 0.404271 0.141276
H7    H     H_    0.908853 0.467700 0.182794 0.147220
H8    H     H_    0.194473 0.737959 0.099590 0.155403
C25   C     C_R   0.246488 0.880212 0.393211 0.005408
C26   C     C_R   0.280750 0.972019 0.375909 -0.148386
C27   C     C_R   0.257439 0.967227 0.334870 -0.143869
C28   C     C_R   0.198890 0.870791 0.310064 0.025377
C29   C     C_R   0.156979 0.777284 0.326872 0.136302
C30   C     C_R   0.180018 0.781741 0.368918 0.114223
C31   C     C_R   0.203963 0.808389 0.161229 0.108319
C32   C     C_R   0.174922 0.789582 0.119455 -0.100255
C33   C     C_R   0.089315 0.896726 0.130172 -0.126579
C34   C     C_R   0.117564 0.915143 0.171975 -0.134574
C35   C     C_R   0.170847 0.867596 0.187735 0.039949
C36   C     C_1   0.181023 0.870835 0.230967 0.033405
C37   C     C_1   0.187882 0.870406 0.267038 0.039750
C38   C     C_R   0.112945 0.829330 0.103868 -0.005836
H9    H     H_    0.040896 0.927626 0.119054 0.168177
H10   H     H_    0.289039 0.039311 0.322101 0.127878
H11   H     H_    0.810986 0.004965 0.192257 0.137119
H12   H     H_    0.815446 0.983587 0.324667 0.148066
C39   C     C_R   0.639141 0.874713 0.395553 -0.004309
C40   C     C_R   0.555815 0.788410 0.368932 0.074773
C41   C     C_R   0.562312 0.782370 0.326302 0.111218
C42   C     C_R   0.654141 0.857123 0.310788 -0.010521
C43   C     C_R   0.742222 0.930745 0.337027 -0.125656
C44   C     C_R   0.736624 0.939394 0.379062 0.073600
C45   C     C_R   0.757784 0.932521 0.172439 -0.092248
C46   C     C_R   0.776746 0.919364 0.131324 0.082399
C47   C     C_R   0.621693 0.744387 0.122246 -0.138114
C48   C     C_R   0.603599 0.758890 0.163058 -0.099088
C49   C     C_R   0.674141 0.851072 0.188506 0.017642
C50   C     C_1   0.666566 0.857028 0.231630 0.010977
C51   C     C_1   0.660866 0.857895 0.267740 0.023719
C52   C     C_R   0.711664 0.821495 0.106172 0.023756
H13   H     H_    0.537808 0.695792 0.175237 0.158358
H14   H     H_    0.742619 0.211605 0.694541 0.127362
H15   H     H_    0.716777 0.170454 0.620894 0.143564
C53   C     C_R   0.624845 0.249796 0.613842 0.004705
C54   C     C_R   0.586316 0.313501 0.634728 0.103584
C55   C     C_R   0.599757 0.335016 0.677837 0.118882
C56   C     C_R   0.654058 0.295568 0.699199 0.021761
C57   C     C_R   0.699837 0.241100 0.678167 -0.144405
C58   C     C_R   0.685589 0.218529 0.635983 -0.151365
C59   C     C_R   0.748919 0.324460 0.845472 -0.095211
C60   C     C_R   0.760129 0.349948 0.888018 0.076334
C61   C     C_R   0.595353 0.359642 0.884755 -0.138120
C62   C     C_R   0.585187 0.334249 0.842508 -0.109465
C63   C     C_R   0.664282 0.321124 0.822785 0.013674
C64   C     C_1   0.661776 0.311199 0.779274 0.001793
C65   C     C_1   0.659061 0.304958 0.742803 0.019645
C66   C     C_R   0.686215 0.374699 0.907958 0.023988
H16   H     H_    0.518402 0.330190 0.825117 0.148588
H17   H     H_    0.535724 0.375355 0.898822 0.171356
C67   C     C_R   0.060267 0.748915 0.906833 0.020843
C68   C     C_R   0.096991 0.846824 0.894438 -0.133694
C69   C     C_R   0.110464 0.856865 0.853460 -0.117649
C70   C     C_R   0.086403 0.768880 0.824330 0.027913
C71   C     C_R   0.055326 0.672280 0.837206 -0.113342
C72   C     C_R   0.043264 0.662601 0.878162 -0.107833
C73   C     C_R   0.128621 0.721192 0.754688 -0.095703
C74   C     C_R   0.134195 0.729907 0.713511 -0.090408
C75   C     C_R   0.102509 0.794995 0.697544 0.027258
C76   C     C_R   0.061665 0.848582 0.722951 -0.116768
C77   C     C_R   0.055186 0.839182 0.764161 -0.121713
C78   C     C_R   0.090285 0.776710 0.780517 0.028208
C79   C     C_R   0.188183 0.920770 0.649524 -0.113608
C80   C     C_R   0.234205 0.942333 0.612878 -0.136738
C81   C     C_R   0.147189 0.755844 0.586909 0.097996
C82   C     C_R   0.102236 0.735042 0.623981 -0.091826
C83   C     C_R   0.126388 0.816964 0.655948 0.003334
C84   C     C_R   0.219033 0.860387 0.582095 0.026233
H18   H     H_    0.013237 0.585808 0.886850 0.160931
H19   H     H_    0.168286 0.689814 0.694526 0.147180
H20   H     H_    0.157651 0.673707 0.766526 0.127065
H21   H     H_    0.137058 0.932816 0.844438 0.120243
H22   H     H_    0.036836 0.899115 0.711039 0.111291
H23   H     H_    0.023259 0.881193 0.783212 0.099412
H24   H     H_    0.207966 0.985084 0.673954 0.133452
H25   H     H_    0.035115 0.602877 0.815427 0.114718
C85   C     C_R   0.716038 0.704462 0.900728 0.022576
C86   C     C_R   0.613243 0.639802 0.879522 0.080052
C87   C     C_R   0.601138 0.634733 0.837191 -0.088473
C88   C     C_R   0.689055 0.693126 0.815485 0.013877
C89   C     C_R   0.790746 0.753870 0.836464 -0.117153
C90   C     C_R   0.803816 0.759241 0.878355 -0.140699
C91   C     C_R   0.586973 0.710451 0.758357 -0.065436
C92   C     C_R   0.580002 0.732530 0.719212 0.121762
C93   C     C_R   0.661033 0.744696 0.693162 0.038873
C94   C     C_R   0.745567 0.729911 0.705955 -0.116092
C95   C     C_R   0.751761 0.707140 0.745053 -0.100720
C96   C     C_R   0.674024 0.700029 0.772025 0.023108
C97   C     C_R   0.599666 0.712428 0.619851 -0.056348
C98   C     C_R   0.587938 0.749836 0.584659 0.089055
C99   C     C_R   0.707685 0.927870 0.618147 -0.133713
C100  C     C_R   0.719138 0.889607 0.652951 -0.113582
C101  C     C_R   0.662628 0.782149 0.654307 0.015062
C102  C     C_R   0.639094 0.859213 0.584195 0.028234
H26   H     H_    0.883399 0.808535 0.893582 0.139143
H27   H     H_    0.768036 0.944137 0.679558 0.124172
H28   H     H_    0.527038 0.706897 0.778748 0.136617
H29   H     H_    0.522123 0.586659 0.821290 0.146464
H30   H     H_    0.808245 0.738961 0.686090 0.125896
H31   H     H_    0.818678 0.697637 0.754579 0.125783
H32   H     H_    0.557058 0.629123 0.620828 0.179391
H33   H     H_    0.748234 0.011780 0.618649 0.128531
O14   O     O_R   0.828710 0.851830 0.052170 -0.467246
O15   O     O_R   0.005980 0.823990 0.047210 -0.491513
C103  C     C_R   0.052941 0.781577 0.063567 0.543366
O16   O     O_R   0.031900 0.688850 0.050170 -0.507426
O17   O     O_R   0.830940 0.518420 0.048680 -0.492152
C104  C     C_R   0.744252 0.487091 0.066332 0.545225
O18   O     O_R   0.668160 0.499860 0.053480 -0.514520
O19   O     O_R   0.689170 0.693840 0.050110 -0.501606
C105  C     C_R   0.742612 0.789651 0.066454 0.568106
O20   O     O_R   0.803860 0.812940 0.962540 -0.493828
O21   O     O_R   0.982950 0.787950 0.964120 -0.528434
C106  C     C_R   0.020691 0.731550 0.947157 0.530806
O22   O     O_R   0.007050 0.649970 0.960540 -0.489554
O23   O     O_R   0.807910 0.482370 0.965590 -0.468077
C107  C     C_R   0.711628 0.436441 0.949421 0.548567
O24   O     O_R   0.643310 0.460980 0.963840 -0.512625
O25   O     O_R   0.666140 0.657800 0.967020 -0.455800
C108  C     C_R   0.739855 0.717612 0.945259 0.564683
Cr4   Cr    Cr6+3 0.903360 0.812540 0.006510 1.054618
Cr5   Cr    Cr6+3 0.914630 0.587050 0.006280 1.066497
Cr6   Cr    Cr6+3 0.673560 0.582680 0.008540 1.059516
O26   O     O_3   0.830520 0.660760 0.007110 -0.283665
I1    I     I_    0.872078 0.335774 0.456972 -0.196793
I2    I     I_    0.288840 0.737449 0.182861 -0.321233
I3    I     I_    0.062200 0.631217 0.287891 -0.291156
I4    I     I_    0.110408 0.641626 0.395699 -0.194861
H34   H     H_    0.331418 0.048526 0.393627 0.145548
H35   H     H_    0.092125 0.961299 0.192228 0.131588
I5    I     I_    0.907096 0.051360 0.111951 -0.344794
I6    I     I_    0.883002 0.051016 0.413881 -0.263001
I7    I     I_    0.423850 0.661103 0.391421 -0.173699
H36   H     H_    0.568493 0.669391 0.103972 0.146985
I8    I     I_    0.433443 0.663581 0.284352 -0.265995
I9    I     I_    0.891492 0.349782 0.918473 -0.325490
H37   H     H_    0.808402 0.310881 0.830016 0.135110
I10   I     I_    0.512914 0.380835 0.601656 -0.257885
I11   I     I_    0.534628 0.422008 0.711463 -0.356363
H38   H     H_    0.110436 0.914337 0.916118 0.130919
H39   H     H_    0.051935 0.654630 0.628501 0.136229
H40   H     H_    0.287989 0.023246 0.609860 0.153451
I12   I     I_    0.101918 0.624739 0.540554 -0.214084
I13   I     I_    0.469300 0.553628 0.907391 -0.332670
H41   H     H_    0.830454 0.337256 0.230265 0.125805
I14   I     I_    0.449506 0.754444 0.702371 -0.385284
I15   I     I_    0.493260 0.634849 0.534023 -0.212616
H42   H     H_    0.859888 0.801072 0.820824 0.111142
H43   H     H_    0.576641 0.390337 0.183579 0.120394
H44   H     H_    0.651563 0.495299 0.318061 0.132076
H45   H     H_    0.536527 0.327448 0.344088 0.126375

loop_
_geom_bond_atom_site_label_1
_geom_bond_atom_site_label_2
_geom_bond_distance
_ccdc_geom_bond_type
O23   Cr5   1.916219 S    
C56   C57   1.391527 A    
O14   C105  1.270986 A    
C54   I10   2.140144 S    
O23   C107  1.276839 A    
C31   C35   1.404165 A    
C64   C65   1.201008 T    
C17   H5    1.083303 S    
C45   C46   1.400958 A    
C106  O22   1.267023 A    
C99   C102  1.405859 A    
C17   C18   1.404262 A    
C31   C32   1.396178 A    
C47   H36   1.083065 S    
C87   C88   1.405319 A    
C81   C82   1.394897 A    
C59   C60   1.399988 A    
C94   C95   1.395828 A    
O4    Cr2   1.916888 S    
C49   C50   1.431185 S    
C97   H32   1.083031 S    
C55   I11   2.137964 S    
C4    O9    1.271197 A    
Cr5   O26   1.974925 S    
O8    Cr1   1.914941 S    
C10   C11   1.402118 A    
C62   C63   1.392740 A    
C61   C62   1.390673 A    
O17   C104  1.274417 A    
C26   H34   1.083053 S    
C21   C22   1.398209 A    
C44   I6    2.132627 S    
C88   C89   1.399381 A    
C16   H44   1.083356 S    
C68   H38   1.083232 S    
C28   C37   1.434700 S    
C86   I13   2.126714 S    
C79   H24   1.083385 S    
C14   C15   1.404335 A    
C76   H22   1.083283 S    
C52   C105  1.485097 S    
C73   C74   1.389443 A    
C82   C83   1.400557 A    
H11   C45   1.083648 S    
C75   C76   1.400795 A    
C70   C78   1.473793 S    
C39   C44   1.420797 A    
C77   C78   1.406132 A    
C71   C72   1.389580 A    
C9    H43   1.083249 S    
C70   C71   1.403419 A    
C21   I1    2.126656 S    
C40   C41   1.413122 A    
C82   H39   1.083401 S    
C98   C102  1.418051 A    
C10   C18   1.472189 S    
C104  O18   1.270717 A    
C71   H25   1.082760 S    
O19   C105  1.275033 A    
C91   C92   1.395260 A    
O15   Cr4   1.916356 S    
C19   H45   1.083323 S    
C7    C8    1.403376 A    
C8    C9    1.391170 A    
C33   H9    1.082306 S    
C42   C43   1.389953 A    
C42   C51   1.434547 S    
C89   H42   1.082137 S    
C47   C52   1.411409 A    
C100  H27   1.083492 S    
O20   C108  1.296313 A    
C60   I9    2.127097 S    
C35   C36   1.433532 S    
C25   C30   1.417353 A    
C46   C52   1.421048 A    
Cr3   O13   1.975311 S    
C8    H1    1.083098 S    
C14   H4    1.083154 S    
C107  O24   1.273798 A    
C63   C64   1.430987 S    
H15   C58   1.083006 S    
C74   H19   1.083445 S    
C79   C80   1.388879 A    
C60   C66   1.419282 A    
C88   C96   1.480895 S    
C61   C66   1.410210 A    
C59   C63   1.396977 A    
C2    O5    1.273023 A    
C73   C78   1.403315 A    
C22   C23   1.400446 A    
C80   H40   1.083585 S    
O1    Cr1   2.032174 S    
C81   I12   2.126907 S    
O19   Cr6   1.922586 S    
C99   H33   1.082980 S    
C27   C28   1.390321 A    
C68   C69   1.393046 A    
O10   Cr2   1.922110 S    
C33   C38   1.404402 A    
Cr1   O13   1.967491 S    
C3    C25   1.479563 S    
C53   C54   1.417694 A    
C97   C101  1.397427 A    
C55   C56   1.408870 A    
O6    C3    1.273918 A    
C59   H37   1.083605 S    
C26   C27   1.384233 A    
C9    C10   1.403467 A    
C54   C55   1.415022 A    
O11   Cr3   2.031682 S    
C13   C18   1.402640 A    
O12   Cr3   1.916678 S    
C1    O3    1.274318 A    
C39   C40   1.428050 A    
C36   C37   1.201805 T    
C19   C20   1.388233 A    
C98   I15   2.126927 S    
C19   C23   1.399865 A    
C47   C48   1.390195 A    
H12   C43   1.084150 S    
C13   C14   1.394346 A    
O16   Cr5   2.032906 S    
C77   H23   1.082215 S    
C93   C101  1.465646 S    
O14   Cr4   2.043232 S    
C15   C16   1.401904 A    
O21   Cr4   1.924839 S    
C20   C24   1.405301 A    
O7    Cr1   2.040395 S    
C92   I14   2.125548 S    
C40   I7    2.148719 S    
C56   C65   1.433781 S    
O12   C6    1.273927 A    
C67   C72   1.403007 A    
O1    C3    1.273390 A    
C7    C12   1.406959 A    
C99   C100  1.393206 A    
C20   H6    1.083039 S    
C5    C53   1.478538 S    
C6    C84   1.468492 S    
C31   I2    2.123146 S    
C103  O16   1.266839 A    
C34   H35   1.083752 S    
C80   C84   1.405036 A    
O20   Cr4   2.032216 S    
O25   C108  1.301817 A    
Cr2   O13   1.969353 S    
C94   H30   1.083837 S    
C92   C93   1.407635 A    
C32   C38   1.405806 A    
C72   H18   1.082999 S    
C34   C35   1.399398 A    
C53   C58   1.405941 A    
C74   C75   1.402056 A    
C86   C87   1.402141 A    
C69   H21   1.082712 S    
C79   C83   1.399091 A    
C28   C29   1.410166 A    
O21   C106  1.273667 A    
C11   H7    1.083200 S    
H8    C32   1.083201 S    
C95   H31   1.082967 S    
O9    Cr2   2.032534 S    
C73   H20   1.082747 S    
O2    Cr1   1.924751 S    
C50   C51   1.201184 T    
C1    C39   1.493378 S    
C27   H10   1.084319 S    
C95   C96   1.406964 A    
O6    Cr3   1.914575 S    
C48   H13   1.084047 S    
O8    C4    1.270443 A    
C4    C102  1.476700 S    
C87   H29   1.083081 S    
C29   C30   1.417040 A    
O24   Cr6   2.038811 S    
C21   C24   1.417741 A    
O17   Cr5   1.917014 S    
C30   I4    2.139343 S    
C91   H28   1.082888 S    
C16   C17   1.391366 A    
C75   C83   1.465880 S    
O2    C1    1.277828 A    
C91   C96   1.405250 A    
C66   C107  1.482645 S    
C22   H3    1.083267 S    
C85   C108  1.480060 S    
O5    Cr3   2.034136 S    
C100  C101  1.398070 A    
C48   C49   1.391915 A    
O18   Cr6   2.030805 S    
C33   C34   1.395391 A    
O4    C2    1.274740 A    
C85   C90   1.405217 A    
O7    C6    1.267314 A    
C85   C86   1.418859 A    
H14   C57   1.084223 S    
C5    O11   1.273502 A    
C7    C104  1.471521 S    
C12   H2    1.083083 S    
C67   C68   1.401795 A    
C15   C23   1.470857 S    
C89   C90   1.388312 A    
C67   C106  1.463734 S    
C2    C24   1.475636 S    
C69   C70   1.405082 A    
C93   C94   1.400768 A    
C41   C42   1.402843 A    
C81   C84   1.414056 A    
C97   C98   1.398609 A    
C41   I8    2.143100 S    
Cr6   O26   1.970037 S    
O3    Cr2   2.040666 S    
C38   C103  1.472428 S    
O25   Cr6   1.913310 S    
C46   I5    2.127362 S    
C57   C58   1.385647 A    
C61   H17   1.081933 S    
C25   C26   1.406706 A    
C11   C12   1.394813 A    
C45   C49   1.396835 A    
O10   C5    1.277203 A    
O22   Cr5   2.033961 S    
C43   C44   1.391159 A    
O15   C103  1.277157 A    
C76   C77   1.392803 A    
C62   H16   1.083990 S    
C90   H26   1.082124 S    
C13   H41   1.082999 S    
C29   I3    2.137765 S    
Cr4   O26   1.966770 S    
