data_mof_unit_27911.cif
_audit_creation_date              2012-12-10T17:48:56-0500
_audit_creation_method            fapswitch 2.2
_symmetry_space_group_name_H-M    P1
_symmetry_Int_Tables_number       1
_space_group_crystal_system       triclinic
_cell_length_a                    10.715704
_cell_length_b                    14.726425
_cell_length_c                    14.887223
_cell_angle_alpha                 64.246076
_cell_angle_beta                  104.586274
_cell_angle_gamma                 102.819819
_cell_volume                      2030.59559339

loop_
_atom_site_label
_atom_site_type_symbol
_atom_type_description
_atom_site_fract_x
_atom_site_fract_y
_atom_site_fract_z
_atom_type_partial_charge
C1    C     C_R   0.474859 0.120124 0.312460 0.784265
C2    C     C_R   0.426658 0.363150 0.080646 0.087523
C3    C     C_R   0.368892 0.324464 0.005460 0.159269
C4    C     C_R   0.259909 0.000665 0.498970 0.745137
C5    C     C_R   0.446421 0.469863 0.053938 0.060802
C6    C     C_R   0.423665 0.536823 0.949925 0.057063
C7    C     C_R   0.361363 0.495367 0.877619 -0.179295
C8    C     C_R   0.333534 0.391068 0.905392 -0.220694
C9    C     C_R   0.487725 0.511827 0.127633 -0.222621
C10   C     C_R   0.520127 0.615868 0.099847 -0.226556
C11   C     C_R   0.514793 0.681318 0.998151 0.163391
C12   C     C_3   0.877530 0.000202 0.498249 0.154837
C13   C     C_R   0.465584 0.642737 0.922001 0.087455
C14   C     C_R   0.559994 0.785029 0.971794 -0.201757
C15   C     C_R   0.561983 0.850452 0.870734 -0.195749
C16   C     C_R   0.518190 0.880182 0.687490 0.809388
C17   C     C_R   0.466850 0.710766 0.820641 -0.247571
C18   C     C_R   0.746548 0.300517 0.638565 -0.314441
C19   C     C_R   0.698031 0.210551 0.625610 0.073010
C20   C     C_R   0.514353 0.284285 0.509012 0.006625
C21   C     C_R   0.557741 0.377995 0.519450 -0.026003
C22   C     C_R   0.678008 0.384705 0.584805 0.167467
C23   C     C_3   0.958081 0.976515 0.606357 -0.380310
C24   C     C_R   0.488055 0.464922 0.467755 0.075479
C25   C     C_R   0.536258 0.553216 0.489181 0.088661
C26   C     C_R   0.663939 0.560035 0.543495 -0.203438
C27   C     C_R   0.731716 0.476568 0.592929 -0.191020
C28   C     C_R   0.739728 0.000245 0.499132 0.783330
C29   C     C_R   0.374624 0.468483 0.393853 -0.241152
C30   C     C_R   0.310836 0.555118 0.344265 -0.185185
C31   C     C_R   0.350827 0.637677 0.372524 0.154461
C32   C     C_R   0.458823 0.634870 0.450318 -0.073439
C33   C     C_R   0.282180 0.722065 0.325598 -0.318489
C34   C     C_3   0.933848 0.105638 0.424978 -0.381743
C35   C     C_R   0.318626 0.801707 0.357868 0.044262
C36   C     C_R   0.480594 0.711355 0.489375 0.110634
C37   C     C_3   0.033842 0.918609 0.463039 -0.381028
C38   C     C_3   0.890945 0.918606 0.462646 -0.367812
C39   C     C_3   0.102245 0.977183 0.606286 -0.378907
C40   C     C_3   0.077916 0.105840 0.424776 -0.382097
C41   C     C_3   0.121584 0.000700 0.498257 0.165768
C42   C     C_2   0.550308 0.687632 0.594707 0.854217
C43   C     C_R   0.444587 0.188930 0.205414 -0.054336
C44   C     C_R   0.517195 0.813110 0.794747 -0.071043
C45   C     C_R   0.347696 0.219298 0.031131 -0.196822
C46   C     C_R   0.384466 0.151814 0.130732 -0.201043
C47   C     C_R   0.467522 0.293790 0.179482 -0.256448
Cu1   Cu    Cu3+1 0.465900 0.918260 0.475680 0.950486
Cu2   Cu    Cu3+1 0.534100 0.081740 0.524320 0.925189
H1    H     H_    0.062251 0.841852 0.514631 0.176375
H2    H     H_    0.364862 0.070869 0.149344 0.150023
H3    H     H_    0.519981 0.319844 0.237568 0.153985
H4    H     H_    0.045925 0.933589 0.385464 0.163751
H5    H     H_    0.330022 0.541537 0.798874 0.167128
H6    H     H_    0.493858 0.466216 0.207768 0.145855
H7    H     H_    0.596537 0.815086 0.029621 0.132080
H8    H     H_    0.827604 0.484349 0.637195 0.140492
H9    H     H_    0.267837 0.867997 0.319229 0.128269
H10   H     H_    0.226745 0.556082 0.285530 0.141303
H11   H     H_    0.838538 0.304995 0.688594 0.135053
H12   H     H_    0.926306 0.166099 0.448495 0.177423
H13   H     H_    0.752833 0.146469 0.664247 0.118702
H14   H     H_    0.426038 0.273460 0.458816 0.118775
H15   H     H_    0.834261 0.934068 0.384849 0.164324
H16   H     H_    0.714871 0.630930 0.546244 0.152536
H17   H     H_    0.335630 0.406731 0.370134 0.128698
H18   H     H_    0.201214 0.726790 0.263749 0.138875
H19   H     H_    0.851896 0.841706 0.513544 0.209727
H20   H     H_    0.133457 0.901959 0.660145 0.153246
H21   H     H_    0.919343 0.900806 0.659874 0.164064
H22   H     H_    0.138784 0.166600 0.447846 0.169059
H23   H     H_    0.163336 0.035310 0.633197 0.172629
H24   H     H_    0.090890 0.123861 0.346657 0.150969
H25   H     H_    0.877050 0.123990 0.346871 0.151899
H26   H     H_    0.705813 0.719146 0.690667 0.314963
H27   H     H_    0.950288 0.033966 0.633826 0.162261
H28   H     H_    0.286615 0.362396 0.847575 0.146427
H29   H     H_    0.431959 0.685509 0.760176 0.187392
H30   H     H_    0.599519 0.929877 0.852262 0.154224
H31   H     H_    0.553410 0.644893 0.158631 0.148688
H32   H     H_    0.302318 0.189274 0.974134 0.131205
N1    N     N_R   0.585360 0.204570 0.560800 -0.177253
N2    N     N_R   0.414550 0.795430 0.439160 -0.212602
O1    O     O_R   0.455060 0.022100 0.338110 -0.592012
O2    O     O_R   0.666955 0.745452 0.615811 -0.778697
O3    O     O_R   0.512640 0.160150 0.379180 -0.587040
O4    O     O_R   0.288900 0.930980 0.479450 -0.596023
O5    O     O_R   0.346480 0.069030 0.520520 -0.590869
O6    O     O_R   0.487360 0.839850 0.620820 -0.562737
O7    O     O_R   0.544940 0.977900 0.661890 -0.587491
O8    O     O_R   0.653520 0.930970 0.479480 -0.542905
O9    O     O_R   0.711100 0.069020 0.520550 -0.598449
O10   O     O_2   0.509365 0.611861 0.663109 -0.634041

loop_
_geom_bond_atom_site_label_1
_geom_bond_atom_site_label_2
_ccdc_geom_bond_type
C14   H7    S    
C16   O7    A    
C40   H22   S    
C20   N1    A    
C42   O10   D    
C36   C42   S    
C23   H21   S    
C23   H27   S    
C7    C8    A    
C39   C41   S    
C4    O4    A    
C45   C46   A    
C1    O1    A    
C12   C23   S    
C26   C27   A    
C37   C38   S    
C12   C28   S    
C35   H9    S    
C34   C40   S    
C32   C36   A    
C15   C44   A    
C30   C31   A    
C11   C14   A    
C4    C41   S    
C36   N2    A    
C40   H24   S    
C18   C19   A    
C24   C29   A    
H26   O2    S    
C15   H30   S    
Cu1   O8    S    
C39   H23   S    
C31   C33   A    
C9    H6    S    
C19   N1    A    
C9    C10   A    
Cu2   O7    S    
C37   H4    S    
C25   C32   A    
C16   O6    A    
C21   C22   A    
C37   C41   S    
Cu2   O5    S    
C1    C43   S    
C38   H15   S    
C24   C25   A    
C3    C8    A    
C27   H8    S    
C10   H31   S    
C25   C26   A    
C46   H2    S    
C3    C45   A    
C34   H12   S    
Cu1   O1    S    
Cu2   N1    S    
C5    C9    A    
C29   C30   A    
C31   C32   A    
C30   H10   S    
C39   H20   S    
Cu1   O4    S    
C28   O9    A    
C42   O2    S    
C6    C7    A    
C34   H25   S    
C18   H11   S    
Cu1   Cu2   S    
C38   H19   S    
Cu1   O6    S    
C8    H28   S    
C2    C5    A    
Cu2   O9    S    
C12   C34   S    
C33   H18   S    
C1    O3    A    
C16   C44   S    
C40   C41   S    
C35   N2    A    
C18   C22   A    
C26   H16   S    
Cu2   O3    S    
C45   H32   S    
C47   H3    S    
C4    O5    A    
C2    C47   A    
Cu1   N2    S    
C13   C17   A    
C22   C27   A    
C20   H14   S    
C2    C3    A    
C17   C44   A    
C6    C13   A    
C37   H1    S    
C11   C13   A    
C5    C6    A    
C23   C39   S    
C17   H29   S    
C33   C35   A    
C28   O8    A    
C12   C38   S    
C43   C46   A    
C10   C11   A    
C29   H17   S    
C20   C21   A    
C21   C24   A    
C14   C15   A    
C19   H13   S    
C7    H5    S    
C43   C47   A    
