data_mof_unit_28175.cif
_audit_creation_date              2012-10-26T17:11:05-0400
_audit_creation_method            fapswitch 2.2
_symmetry_space_group_name_H-M    P1
_symmetry_Int_Tables_number       1
_space_group_crystal_system       triclinic
_cell_length_a                    27.964005
_cell_length_b                    18.676619
_cell_length_c                    16.81806
_cell_angle_alpha                 90.155314
_cell_angle_beta                  62.837961
_cell_angle_gamma                 90.266655
_cell_volume                      7814.86730125

loop_
_atom_site_label
_atom_site_type_symbol
_atom_type_description
_atom_site_fract_x
_atom_site_fract_y
_atom_site_fract_z
_atom_type_partial_charge
C1    C     C_R   0.294806 0.727992 0.329685 0.567153
C2    C     C_R   0.463438 0.129252 0.454977 -0.097158
C3    C     C_R   0.926664 0.097404 0.066217 0.563966
C4    C     C_R   0.426595 0.402566 0.066173 0.565447
C5    C     C_R   0.573240 0.597649 0.933959 0.564573
C6    C     C_R   0.573281 0.402523 0.933826 0.564433
C7    C     C_R   0.426664 0.597404 0.066217 0.563966
C8    C     C_R   0.056849 0.500534 0.478329 0.021023
C9    C     C_R   0.964484 0.500354 0.449778 0.020942
C10   C     C_R   0.556849 0.000534 0.478329 0.021023
C11   C     C_R   0.464484 0.000354 0.449778 0.020942
C12   C     C_R   0.025393 0.562805 0.494848 -0.006193
C13   C     C_R   0.476342 0.875470 0.408509 -0.132847
C14   C     C_R   0.994869 0.437117 0.434738 -0.001167
C15   C     C_R   0.983263 0.564613 0.470173 -0.010420
C16   C     C_R   0.043911 0.439138 0.441968 0.000214
C17   C     C_R   0.525393 0.062805 0.494848 -0.006193
C18   C     C_R   0.494869 0.937117 0.434738 -0.001167
C19   C     C_R   0.483263 0.064613 0.470173 -0.010420
C20   C     C_R   0.543911 0.939138 0.441968 0.000214
C21   C     C_R   0.135603 0.439265 0.474706 0.042821
C22   C     C_R   0.890914 0.566371 0.441738 0.018348
C23   C     C_R   0.892841 0.435145 0.432825 0.047012
C24   C     C_R   0.535118 0.120298 0.539617 -0.135803
C25   C     C_R   0.115570 0.562437 0.531013 0.046935
C26   C     C_R   0.635603 0.939265 0.474706 0.042821
C27   C     C_R   0.390914 0.066371 0.441738 0.018348
C28   C     C_R   0.392841 0.935145 0.432825 0.047012
C29   C     C_R   0.615570 0.062437 0.531013 0.046934
C30   C     C_R   0.175923 0.436577 0.504712 -0.010216
C31   C     C_R   0.837010 0.565864 0.452386 -0.036110
C32   C     C_R   0.837786 0.434545 0.448965 -0.011215
C33   C     C_R   0.165855 0.564281 0.534599 -0.009196
C34   C     C_R   0.675923 0.936577 0.504712 -0.010216
C35   C     C_R   0.081947 0.383796 0.409902 -0.133294
C36   C     C_R   0.337010 0.065864 0.452386 -0.036110
C37   C     C_R   0.337786 0.934545 0.448965 -0.011215
C38   C     C_R   0.665855 0.064281 0.534599 -0.009196
C39   C     C_R   0.192082 0.499950 0.529498 -0.190216
C40   C     C_R   0.811652 0.500025 0.457068 -0.182914
C41   C     C_R   0.692082 0.999950 0.529498 -0.190216
C42   C     C_R   0.311652 0.000025 0.457068 -0.182914
C43   C     C_R   0.102429 0.500559 0.495362 -0.023596
C44   C     C_R   0.915593 0.500444 0.442615 -0.013190
C45   C     C_R   0.602429 0.000559 0.495362 -0.023596
C46   C     C_R   0.963438 0.629252 0.454977 -0.097158
C47   C     C_R   0.415593 0.000444 0.442615 -0.013190
C48   C     C_R   0.628451 0.885294 0.421463 0.105300
C49   C     C_R   0.422669 0.129340 0.428770 0.124407
C50   C     C_R   0.427365 0.874766 0.404009 0.106951
C51   C     C_R   0.577665 0.118946 0.561963 0.112411
C52   C     C_R   0.128452 0.385294 0.421463 0.105300
C53   C     C_R   0.922669 0.629340 0.428770 0.124406
C54   C     C_R   0.927365 0.374766 0.404009 0.106950
C55   C     C_R   0.077665 0.618946 0.561963 0.112412
C56   C     C_R   0.976342 0.375470 0.408509 -0.132847
C57   C     C_R   0.035118 0.620298 0.539617 -0.135803
C58   C     C_R   0.221890 0.765933 0.951466 0.023177
C59   C     C_R   0.777549 0.233229 0.049065 0.023395
C60   C     C_R   0.777489 0.764491 0.049687 0.023622
C61   C     C_R   0.705180 0.271983 0.670329 0.565296
C62   C     C_R   0.221063 0.237648 0.951720 0.024216
C63   C     C_R   0.721890 0.265932 0.951466 0.023176
C64   C     C_R   0.277550 0.733230 0.049064 0.023396
C65   C     C_R   0.277489 0.264492 0.049687 0.023620
C66   C     C_R   0.721062 0.737651 0.951721 0.024216
C67   C     C_R   0.218627 0.696917 0.985866 -0.117893
C68   C     C_R   0.780790 0.302247 0.014695 -0.118910
C69   C     C_R   0.795772 0.712092 0.982676 -0.120328
C70   C     C_R   0.202732 0.290014 0.018814 -0.120052
C71   C     C_R   0.718626 0.196917 0.985869 -0.117893
C72   C     C_R   0.705055 0.728251 0.670442 0.567470
C73   C     C_R   0.280789 0.802248 0.014696 -0.118910
C74   C     C_R   0.295766 0.212080 0.982690 -0.120329
C75   C     C_R   0.702726 0.790005 0.018829 -0.120050
C76   C     C_R   0.246255 0.680679 0.034750 -0.117124
C77   C     C_R   0.753166 0.318483 0.965816 -0.118109
C78   C     C_R   0.767688 0.698819 0.933717 -0.119556
C79   C     C_R   0.230826 0.303295 0.067798 -0.122047
C80   C     C_R   0.746254 0.180678 0.034752 -0.117124
C81   C     C_R   0.253166 0.818484 0.965817 -0.118109
C82   C     C_R   0.267683 0.198805 0.933731 -0.119555
C83   C     C_R   0.294957 0.271708 0.329571 0.566670
C84   C     C_R   0.730820 0.803284 0.067813 -0.122045
C85   C     C_R   0.143654 0.825973 0.946598 0.100968
C86   C     C_R   0.855903 0.173329 0.053734 0.100795
C87   C     C_R   0.855767 0.825772 0.053808 0.101285
C88   C     C_R   0.143017 0.176101 0.947138 0.101193
C89   C     C_R   0.643654 0.325972 0.946598 0.100968
C90   C     C_R   0.355903 0.673330 0.053734 0.100795
C91   C     C_R   0.355767 0.325771 0.053808 0.101285
C92   C     C_R   0.643017 0.676101 0.947139 0.101194
C93   C     C_R   0.117560 0.850511 0.896667 0.022404
C94   C     C_R   0.794806 0.227992 0.329685 0.567153
C95   C     C_R   0.882263 0.149234 0.103450 0.022055
C96   C     C_R   0.882290 0.850267 0.103306 0.022389
C97   C     C_R   0.117203 0.150446 0.897050 0.021974
C98   C     C_R   0.617560 0.350511 0.896667 0.022404
C99   C     C_R   0.382263 0.649234 0.103450 0.022055
C100  C     C_R   0.382291 0.350266 0.103306 0.022389
C101  C     C_R   0.617203 0.650446 0.897050 0.021974
C102  C     C_R   0.136888 0.829706 0.807510 -0.167415
C103  C     C_R   0.863089 0.170295 0.192489 -0.167672
C104  C     C_R   0.863421 0.829060 0.192186 -0.168497
C105  C     C_R   0.205180 0.771983 0.670329 0.565297
C106  C     C_R   0.136483 0.170977 0.807850 -0.168719
C107  C     C_R   0.636888 0.329706 0.807510 -0.167414
C108  C     C_R   0.363089 0.670295 0.192489 -0.167672
C109  C     C_R   0.363421 0.329061 0.192187 -0.168497
C110  C     C_R   0.636483 0.670977 0.807850 -0.168718
C111  C     C_R   0.182763 0.787486 0.766113 -0.022036
C112  C     C_R   0.817128 0.212340 0.233972 -0.021227
C113  C     C_R   0.817352 0.786910 0.233895 -0.018459
C114  C     C_R   0.182379 0.213477 0.766332 -0.024687
C115  C     C_R   0.682763 0.287486 0.766113 -0.022036
C116  C     C_R   0.205055 0.228251 0.670442 0.567470
C117  C     C_R   0.317128 0.712341 0.233972 -0.021227
C118  C     C_R   0.317351 0.286911 0.233896 -0.018458
C119  C     C_R   0.682378 0.713478 0.766332 -0.024687
C120  C     C_R   0.209527 0.764948 0.814782 -0.140222
C121  C     C_R   0.790157 0.234521 0.185498 -0.140037
C122  C     C_R   0.790328 0.764045 0.185627 -0.142867
C123  C     C_R   0.208882 0.237206 0.815099 -0.141580
C124  C     C_R   0.709527 0.264948 0.814783 -0.140222
C125  C     C_R   0.290157 0.734522 0.185498 -0.140037
C126  C     C_R   0.290327 0.264046 0.185628 -0.142866
C127  C     C_R   0.794957 0.771708 0.329571 0.566670
C128  C     C_R   0.708880 0.737208 0.815100 -0.141582
C129  C     C_R   0.190596 0.784678 0.904140 -0.008817
C130  C     C_R   0.808923 0.214539 0.096270 -0.008831
C131  C     C_R   0.809293 0.783156 0.096196 -0.008689
C132  C     C_R   0.189432 0.218861 0.904922 -0.007673
C133  C     C_R   0.690596 0.284678 0.904140 -0.008818
C134  C     C_R   0.308924 0.714539 0.096270 -0.008831
C135  C     C_R   0.309293 0.283156 0.096196 -0.008691
C136  C     C_R   0.689430 0.718863 0.904923 -0.007670
C137  C     C_R   0.196516 0.631563 0.527268 0.581832
C138  C     C_R   0.581947 0.883796 0.409902 -0.133294
C139  C     C_R   0.804100 0.368036 0.469697 0.580982
C140  C     C_R   0.803538 0.631743 0.471749 0.550343
C141  C     C_R   0.201306 0.369142 0.511867 0.594438
C142  C     C_R   0.696516 0.131563 0.527268 0.581832
C143  C     C_R   0.304100 0.868036 0.469697 0.580982
C144  C     C_R   0.303538 0.131743 0.471749 0.550343
C145  C     C_R   0.701306 0.869142 0.511867 0.594438
C146  C     C_R   0.926595 0.902566 0.066173 0.565448
C147  C     C_R   0.073240 0.097649 0.933959 0.564572
C148  C     C_R   0.073281 0.902523 0.933826 0.564433
Cu1   Cu    Cu3+1 0.209920 0.785290 0.495070 0.927385
Cu2   Cu    Cu3+1 0.504760 0.500000 0.075850 0.965187
Cu3   Cu    Cu3+1 0.995240 0.000000 0.924150 0.965673
Cu4   Cu    Cu3+1 0.004760 0.000000 0.075850 0.965187
Cu5   Cu    Cu3+1 0.790080 0.214710 0.504930 0.926841
Cu6   Cu    Cu3+1 0.790080 0.785290 0.504930 0.904791
Cu7   Cu    Cu3+1 0.209920 0.214710 0.495070 0.921406
Cu8   Cu    Cu3+1 0.709920 0.285290 0.495070 0.927386
Cu9   Cu    Cu3+1 0.290080 0.714710 0.504930 0.926840
Cu10  Cu    Cu3+1 0.290080 0.285290 0.504930 0.904791
Cu11  Cu    Cu3+1 0.709920 0.714710 0.495070 0.921406
Cu12  Cu    Cu3+1 0.495240 0.500000 0.924150 0.965673
H1    H     H_    0.226843 0.499699 0.541933 0.158466
H2    H     H_    0.984509 0.678987 0.450902 0.117175
H3    H     H_    0.999165 0.326512 0.390526 0.097700
H4    H     H_    0.007541 0.664969 0.563018 0.099818
H5    H     H_    0.255782 0.872081 0.939633 0.110750
H6    H     H_    0.743639 0.127084 0.060943 0.111658
H7    H     H_    0.716732 0.844420 0.118893 0.104616
H8    H     H_    0.281767 0.157629 0.882702 0.112012
H9    H     H_    0.755783 0.372080 0.939631 0.110752
H10   H     H_    0.243641 0.627084 0.060940 0.111657
H11   H     H_    0.216744 0.344441 0.118867 0.104620
H12   H     H_    0.769898 0.499737 0.470515 0.161337
H13   H     H_    0.781776 0.657653 0.882678 0.112014
H14   H     H_    0.194318 0.656129 0.975641 0.113058
H15   H     H_    0.805100 0.343039 0.024913 0.111842
H16   H     H_    0.831924 0.682097 0.967977 0.107816
H17   H     H_    0.166583 0.320009 0.033498 0.107559
H18   H     H_    0.694316 0.156129 0.975644 0.113059
H19   H     H_    0.305099 0.843041 0.024915 0.111840
H20   H     H_    0.331913 0.182076 0.968002 0.107818
H21   H     H_    0.666572 0.819991 0.033524 0.107556
H22   H     H_    0.117195 0.848579 0.769065 0.156990
H23   H     H_    0.726843 0.999699 0.541933 0.158466
H24   H     H_    0.882975 0.151762 0.230781 0.156493
H25   H     H_    0.883426 0.847882 0.230367 0.158140
H26   H     H_    0.116961 0.151316 0.769284 0.158085
H27   H     H_    0.617195 0.348579 0.769065 0.156990
H28   H     H_    0.382975 0.651761 0.230781 0.156493
H29   H     H_    0.383426 0.347883 0.230367 0.158140
H30   H     H_    0.616961 0.651315 0.769284 0.158085
H31   H     H_    0.246077 0.733774 0.782831 0.140024
H32   H     H_    0.753574 0.265626 0.217509 0.140226
H33   H     H_    0.753685 0.732715 0.217805 0.135305
H34   H     H_    0.269898 0.999737 0.470515 0.161337
H35   H     H_    0.245485 0.268624 0.783040 0.139155
H36   H     H_    0.746077 0.233773 0.782831 0.140025
H37   H     H_    0.253574 0.765626 0.217509 0.140226
H38   H     H_    0.253684 0.232717 0.217806 0.135306
H39   H     H_    0.745483 0.768627 0.783041 0.139154
H40   H     H_    0.683710 0.849729 0.301036 0.208652
H41   H     H_    0.656031 0.785419 0.379236 0.237959
H42   H     H_    0.400331 0.174925 0.338772 0.246670
H43   H     H_    0.412877 0.234277 0.405492 0.252026
H44   H     H_    0.420241 0.768626 0.386924 0.235893
H45   H     H_    0.578556 0.840803 0.369792 0.095114
H46   H     H_    0.447812 0.816712 0.291658 0.216520
H47   H     H_    0.542751 0.163021 0.685211 0.217654
H48   H     H_    0.576279 0.221579 0.601822 0.235920
H49   H     H_    0.183710 0.349729 0.301036 0.208653
H50   H     H_    0.156031 0.285419 0.379236 0.237960
H51   H     H_    0.900331 0.674925 0.338772 0.246670
H52   H     H_    0.912877 0.734277 0.405492 0.252026
H53   H     H_    0.920241 0.268626 0.386924 0.235893
H54   H     H_    0.947812 0.316712 0.291658 0.216521
H55   H     H_    0.042751 0.663021 0.685211 0.217654
H56   H     H_    0.484509 0.178987 0.450902 0.117175
H57   H     H_    0.076279 0.721579 0.601822 0.235919
H58   H     H_    0.116049 0.794872 0.075767 0.234097
H59   H     H_    0.150646 0.873535 0.049722 0.231233
H60   H     H_    0.848621 0.125180 0.951193 0.231635
H61   H     H_    0.883119 0.203921 0.924462 0.231578
H62   H     H_    0.884895 0.800133 0.922423 0.224390
H63   H     H_    0.844064 0.873027 0.955273 0.235403
H64   H     H_    0.153838 0.130361 0.047369 0.234851
H65   H     H_    0.112882 0.203147 0.078257 0.222150
H66   H     H_    0.616049 0.294872 0.075768 0.234097
H67   H     H_    0.499165 0.826512 0.390526 0.097700
H68   H     H_    0.650646 0.373535 0.049722 0.231233
H69   H     H_    0.348622 0.625180 0.951192 0.231634
H70   H     H_    0.383119 0.703922 0.924461 0.231578
H71   H     H_    0.384894 0.300125 0.922426 0.224392
H72   H     H_    0.344068 0.373024 0.955269 0.235401
H73   H     H_    0.653840 0.630362 0.047367 0.234853
H74   H     H_    0.612879 0.703142 0.078259 0.222147
H75   H     H_    0.507541 0.164969 0.563018 0.099819
H76   H     H_    0.078556 0.340803 0.369792 0.095115
N1    N     N_3   0.671281 0.837695 0.368327 -0.590291
N2    N     N_3   0.876819 0.156292 0.960483 -0.593258
N3    N     N_3   0.874766 0.846231 0.961995 -0.595132
N4    N     N_3   0.123367 0.156645 0.039412 -0.596845
N5    N     N_3   0.622508 0.342654 0.039982 -0.592045
N6    N     N_3   0.376819 0.656293 0.960482 -0.593259
N7    N     N_3   0.374769 0.346225 0.961993 -0.595130
N8    N     N_3   0.623368 0.656642 0.039411 -0.596847
N9    N     N_3   0.424420 0.186178 0.369911 -0.618605
N10   N     N_3   0.417346 0.816681 0.357615 -0.592660
N11   N     N_3   0.577876 0.170300 0.625354 -0.598463
N12   N     N_3   0.171281 0.337694 0.368326 -0.590292
N13   N     N_3   0.924420 0.686178 0.369911 -0.618605
N14   N     N_3   0.917347 0.316681 0.357615 -0.592660
N15   N     N_3   0.077876 0.670300 0.625354 -0.598463
N16   N     N_3   0.122508 0.842654 0.039982 -0.592045
O1    O     O_R   0.255040 0.869590 0.478480 -0.518590
O2    O     O_R   0.817950 0.203450 0.375560 -0.506298
O3    O     O_R   0.817950 0.796550 0.375560 -0.522602
O4    O     O_R   0.182050 0.203450 0.624440 -0.507824
O5    O     O_R   0.682050 0.296550 0.624440 -0.507936
O6    O     O_R   0.317950 0.703450 0.375560 -0.506297
O7    O     O_R   0.317950 0.296550 0.375560 -0.522603
O8    O     O_R   0.682050 0.703450 0.624440 -0.507824
O9    O     O_R   0.250530 0.763330 0.367210 -0.516678
O10   O     O_R   0.749470 0.236670 0.632790 -0.515577
O11   O     O_R   0.749470 0.763330 0.632790 -0.510077
O12   O     O_R   0.744960 0.130410 0.521520 -0.517362
O13   O     O_R   0.250530 0.236670 0.367210 -0.510192
O14   O     O_R   0.750530 0.263330 0.367210 -0.516678
O15   O     O_R   0.249470 0.736670 0.632790 -0.515577
O16   O     O_R   0.249470 0.263330 0.632790 -0.510077
O17   O     O_R   0.750530 0.736670 0.367210 -0.510192
O18   O     O_R   0.177260 0.690030 0.513710 -0.479606
O19   O     O_R   0.822740 0.309970 0.486290 -0.478341
O20   O     O_R   0.822740 0.690030 0.486290 -0.514874
O21   O     O_R   0.177260 0.309970 0.513710 -0.481338
O22   O     O_R   0.677260 0.190030 0.513710 -0.479606
O23   O     O_R   0.744960 0.869590 0.521520 -0.515544
O24   O     O_R   0.322740 0.809970 0.486290 -0.478341
O25   O     O_R   0.322740 0.190030 0.486290 -0.514874
O26   O     O_R   0.677260 0.809970 0.513710 -0.481338
O27   O     O_R   0.051640 0.926880 0.885090 -0.528338
O28   O     O_R   0.948360 0.073120 0.114910 -0.528757
O29   O     O_R   0.948360 0.926880 0.114910 -0.525849
O30   O     O_R   0.051640 0.073120 0.885090 -0.526869
O31   O     O_R   0.551640 0.426880 0.885090 -0.528337
O32   O     O_R   0.448360 0.573120 0.114910 -0.528758
O33   O     O_R   0.448360 0.426880 0.114910 -0.525849
O34   O     O_R   0.255040 0.130410 0.478480 -0.509432
O35   O     O_R   0.551640 0.573120 0.885090 -0.526869
O36   O     O_R   0.940620 0.926560 0.986760 -0.465887
O37   O     O_R   0.059380 0.073440 0.013240 -0.466472
O38   O     O_R   0.059380 0.926560 0.013240 -0.465426
O39   O     O_R   0.940620 0.073440 0.986760 -0.465550
O40   O     O_R   0.440620 0.426560 0.986760 -0.465888
O41   O     O_R   0.559380 0.573440 0.013240 -0.466471
O42   O     O_R   0.559380 0.426560 0.013240 -0.465425
O43   O     O_R   0.440620 0.573440 0.986760 -0.465552
O44   O     O_R   0.755040 0.369590 0.478480 -0.518590
O45   O     O_R   0.244960 0.630410 0.521520 -0.517362
O46   O     O_R   0.244960 0.369590 0.521520 -0.515544
O47   O     O_R   0.755040 0.630410 0.478480 -0.509432
O48   O     O_R   0.182050 0.796550 0.624440 -0.507936

loop_
_geom_bond_atom_site_label_1
_geom_bond_atom_site_label_2
_ccdc_geom_bond_type
C28   C47   A    
C2    H56   S    
C36   C42   A    
C121  H32   S    
C48   N1    S    
C7    C99   S    
C124  C133  A    
C63   C133  S    
C145  O23   A    
C94   O2    A    
C16   C35   A    
C116  O4    A    
C90   C134  A    
Cu10  O7    S    
C62   C70   A    
C37   C42   A    
Cu5   O12   S    
H40   N1    S    
Cu6   O11   S    
C85   C129  A    
C113  C122  A    
C33   C137  S    
C61   C115  S    
Cu2   O33   S    
C91   C100  A    
Cu8   O22   S    
C88   C97   A    
C119  C128  A    
C24   C51   A    
C70   C79   A    
C100  C109  A    
C8    C16   A    
Cu7   Cu10  S    
H55   N15   S    
C67   C76   A    
H60   N2    S    
C102  C111  A    
Cu5   O19   S    
Cu6   O20   S    
C52   N12   S    
C80   H6    S    
C138  H45   S    
C109  C118  A    
Cu6   O3    S    
C5    C101  S    
Cu2   O42   S    
C62   C132  S    
C83   O13   A    
C89   C133  A    
C106  H26   S    
C32   C139  S    
Cu10  O25   S    
C101  C110  A    
C110  H30   S    
C29   C45   A    
C103  C112  A    
C51   N11   S    
H51   N13   S    
Cu5   Cu8   S    
C76   H10   S    
Cu7   O13   S    
C146  O29   A    
C66   C136  S    
C13   C18   A    
C63   C71   A    
H59   N16   S    
C96   C104  A    
C143  O24   A    
C1    O6    A    
C147  O37   A    
C68   C77   A    
H42   N9    S    
C72   O11   A    
C2    C19   A    
C108  H28   S    
Cu4   O38   S    
C25   C55   A    
H47   N11   S    
C59   C80   A    
C13   H67   S    
C94   O14   A    
Cu1   O48   S    
C4    O33   A    
C148  O27   A    
C48   C138  A    
C36   C144  S    
C128  H39   S    
H63   N3    S    
H69   N6    S    
C46   C53   A    
C86   N2    S    
C9    C15   A    
C86   C95   A    
C58   C67   A    
Cu8   O14   S    
C3    C95   S    
Cu9   O45   S    
C50   N10   S    
H74   N8    S    
Cu11  O17   S    
C11   C18   A    
C65   C79   A    
C123  C132  A    
H72   N7    S    
C79   H11   S    
C137  O45   A    
H50   N12   S    
C121  C130  A    
C25   C43   A    
Cu9   O24   S    
C99   C108  A    
C30   C141  S    
C127  O3    A    
Cu1   O18   S    
C139  O44   A    
C75   C84   A    
C58   C129  S    
Cu1   O1    S    
H62   N3    S    
C87   C131  A    
C26   C45   A    
C85   C93   A    
C29   C38   A    
C64   C73   A    
C144  O25   A    
C126  H38   S    
C97   C147  S    
Cu11  O47   S    
Cu12  O40   S    
C95   C103  A    
C87   N3    S    
C144  O34   A    
C120  C129  A    
C38   C41   A    
C120  H31   S    
C10   C20   A    
C147  O30   A    
C86   C130  A    
C65   C74   A    
H70   N6    S    
Cu7   O4    S    
C8    C12   A    
C148  O38   A    
C124  H36   S    
C10   C45   A    
C1    C117  S    
H64   N4    S    
H49   N12   S    
C114  C123  A    
C90   N6    S    
C12   C57   A    
C90   C99   A    
Cu8   O5    S    
C29   C51   A    
C27   C47   A    
C108  C117  A    
C116  O16   A    
C110  C119  A    
C114  C116  S    
C70   H17   S    
C105  O15   A    
C96   C146  S    
C89   C98   A    
Cu12  O35   S    
Cu6   Cu11  S    
C60   C69   A    
C94   C112  S    
C30   C39   A    
C14   C16   A    
C105  C111  S    
C104  C113  A    
C127  O17   A    
H57   N15   S    
C15   C46   A    
C31   C140  S    
C117  C125  A    
C49   N9    S    
C27   C49   A    
C25   C33   A    
C125  C134  A    
C122  C131  A    
C11   C47   A    
C6    O31   A    
C8    C43   A    
C61   O5    A    
C82   H8    S    
C11   C19   A    
Cu2   Cu12  S    
C6    C98   S    
C71   H18   S    
H46   N10   S    
C128  C136  A    
C88   N4    S    
C31   C40   A    
C93   C148  S    
C20   C138  A    
Cu10  O46   S    
H68   N5    S    
Cu4   O37   S    
C78   H13   S    
Cu3   Cu4   S    
C83   O7    A    
C105  O48   A    
C141  O21   A    
C26   C48   A    
C62   C82   A    
C123  H35   S    
C92   C136  A    
C34   C41   A    
C142  O12   A    
C74   C82   A    
C60   C131  S    
C68   H15   S    
C140  O47   A    
C64   C134  S    
C66   C78   A    
C55   N15   S    
C103  H24   S    
Cu12  O43   S    
C23   C44   A    
C5    O35   A    
C102  H22   S    
C9    C14   A    
C4    O40   A    
C5    O41   A    
H73   N8    S    
H43   N9    S    
C12   C15   A    
C54   N14   S    
Cu2   O32   S    
Cu7   O34   S    
C92   C101  A    
C73   C81   A    
C97   C106  A    
C126  C135  A    
Cu3   O30   S    
C122  H33   S    
C40   H12   S    
C115  C124  A    
C37   C143  S    
Cu2   O41   S    
Cu1   O9    S    
C93   C102  A    
C137  O18   A    
C27   C36   A    
C21   C30   A    
H61   N2    S    
C23   C32   A    
C84   H7    S    
C3    O28   A    
C66   C75   A    
C13   C50   A    
Cu3   O39   S    
C146  O36   A    
C98   C107  A    
C112  C121  A    
C91   C135  A    
C35   C52   A    
H65   N4    S    
C41   H23   S    
C67   H14   S    
Cu1   Cu9   S    
H44   N10   S    
C7    O32   A    
C14   C56   A    
Cu5   O2    S    
C59   C130  S    
Cu11  O8    S    
Cu12  O31   S    
C92   N8    S    
C145  O26   A    
C3    O39   A    
Cu7   O21   S    
Cu3   O36   S    
C104  H25   S    
C56   H3    S    
C33   C39   A    
C106  C114  A    
C28   C37   A    
C83   C118  S    
C61   O10   A    
C34   C145  S    
C65   C135  S    
C10   C17   A    
C107  H27   S    
C42   H34   S    
Cu3   O27   S    
Cu4   O28   S    
C21   C43   A    
C28   C50   A    
C26   C34   A    
C22   C44   A    
C109  H29   S    
H54   N14   S    
C69   H16   S    
C39   H1    S    
C142  O22   A    
C125  H37   S    
C38   C142  S    
C69   C78   A    
C71   C80   A    
C22   C53   A    
Cu9   O15   S    
C54   C56   A    
C17   C24   A    
Cu10  O16   S    
C22   C31   A    
Cu8   O44   S    
C7    O43   A    
H66   N5    S    
C139  O19   A    
C140  O20   A    
C111  C120  A    
H71   N7    S    
C2    C49   A    
C59   C68   A    
Cu9   O6    S    
C87   C96   A    
C64   C76   A    
H53   N14   S    
C53   N13   S    
Cu5   O10   S    
C107  C115  A    
C1    O9    A    
C141  O46   A    
C91   N7    S    
C72   O8    A    
C4    C100  S    
C143  O1    A    
C89   N5    S    
C88   C132  A    
C75   H21   S    
Cu4   O29   S    
C23   C54   A    
C63   C77   A    
C58   C81   A    
C9    C44   A    
H58   N16   S    
C6    O42   A    
H41   N1    S    
C113  C127  S    
C55   C57   A    
H48   N11   S    
C24   H75   S    
C60   C84   A    
C57   H4    S    
C72   C119  S    
C17   C19   A    
C18   C20   A    
C32   C40   A    
Cu6   O23   S    
C73   H19   S    
C74   H20   S    
C85   N16   S    
C77   H9    S    
C46   H2    S    
Cu11  O26   S    
C81   H5    S    
C35   H76   S    
C118  C126  A    
H52   N13   S    
C21   C52   A    
