data_mof_unit_44429.cif
_audit_creation_date              2013-03-05T15:54:53-0500
_audit_creation_method            fapswitch 2.2
_symmetry_space_group_name_H-M    P1
_symmetry_Int_Tables_number       1
_space_group_crystal_system       triclinic
_cell_length_a                    12.374402
_cell_length_b                    13.271402
_cell_length_c                    14.366466
_cell_angle_alpha                 93.240979
_cell_angle_beta                  108.72641
_cell_angle_gamma                 117.046284
_cell_volume                      1931.87211956

loop_
_atom_site_label
_atom_site_type_symbol
_atom_site_description
_atom_site_fract_x
_atom_site_fract_y
_atom_site_fract_z
_atom_type_partial_charge
O1    O     O_R   0.545970 0.684450 0.528810 -0.593777
O2    O     O_R   0.687130 0.639470 0.490120 -0.575335
C1    C     C_R   0.651731 0.714319 0.509838 0.823669
O3    O     O_R   0.519670 0.535100 0.660030 -0.580051
O4    O     O_R   0.660830 0.490120 0.621340 -0.573099
C2    C     C_R   0.612302 0.507624 0.685140 0.818250
Cu1   Cu    Cu3+1 0.416420 0.526630 0.522910 0.945365
Cu2   Cu    Cu3+1 0.583580 0.473370 0.477090 0.950840
O5    O     O_R   0.312870 0.360530 0.509880 -0.593220
O6    O     O_R   0.454030 0.315550 0.471190 -0.598343
O7    O     O_R   0.339170 0.509880 0.378660 -0.576220
O8    O     O_R   0.480330 0.464900 0.339970 -0.595926
C3    C     C_R   0.345894 0.285368 0.485870 0.790765
C4    C     C_R   0.378788 0.480328 0.313158 0.787466
C5    C     C_R   0.658623 0.487040 0.786442 -0.060626
C6    C     C_R   0.303778 0.460111 0.204899 -0.059266
C7    C     C_R   0.647026 0.467138 0.949865 -0.133589
C8    C     C_R   0.607240 0.496486 0.858025 -0.192552
C9    C     C_R   0.747997 0.446610 0.807816 -0.174034
C10   C     C_R   0.803783 0.432871 0.904332 0.067152
C11   C     C_R   0.747331 0.437412 0.975206 0.074357
C12   C     C_R   0.916433 0.418559 0.932660 0.063969
C13   C     C_R   0.974585 0.414038 0.033894 0.049919
C14   C     C_R   0.903521 0.398724 0.096617 -0.276527
C15   C     C_R   0.790354 0.408782 0.067785 -0.019898
C16   C     C_R   0.977696 0.415746 0.865153 -0.178623
C17   C     C_R   0.096531 0.417081 0.897794 -0.189570
C18   C     C_R   0.161158 0.424983 0.999092 0.151109
C19   C     C_R   0.101942 0.425002 0.068845 0.099213
C20   C     C_R   0.286804 0.436880 0.031809 -0.168502
C21   C     C_R   0.357431 0.453944 0.133979 -0.174677
C22   C     C_R   0.176532 0.444667 0.172212 -0.238400
H1    H     H_    0.139464 0.452451 0.229077 0.155117
H2    H     H_    0.455297 0.465158 0.157648 0.176065
H3    H     H_    0.533204 0.522524 0.841796 0.158644
H4    H     H_    0.770933 0.424018 0.746883 0.185693
H5    H     H_    0.938406 0.414269 0.786326 0.178814
H6    H     H_    0.331921 0.435936 0.978619 0.131392
C23   C     C_R   0.150573 0.962560 0.378521 -0.161128
H7    H     H_    0.328343 0.100199 0.376623 0.149343
H8    H     H_    0.147939 0.901967 0.323151 0.173877
C24   C     C_R   0.254110 0.161795 0.470331 -0.042042
C25   C     C_R   0.759926 0.917942 0.603746 -0.203361
C26   C     C_R   0.878254 0.021357 0.652990 -0.175654
C27   C     C_R   0.985496 0.047612 0.625975 -0.001980
C28   C     C_R   0.965386 0.979764 0.534583 0.012088
C29   C     C_R   0.845434 0.872937 0.486357 0.075148
C30   C     C_R   0.060081 0.013090 0.489921 0.073619
C31   C     C_R   0.048581 0.930653 0.414251 0.068686
C32   C     C_R   0.930326 0.823431 0.369502 -0.047894
C33   C     C_R   0.827144 0.800616 0.400257 -0.244940
C34   C     C_R   0.157768 0.129684 0.510424 -0.177481
C35   C     C_R   0.254226 0.076794 0.408473 -0.197424
C36   C     C_R   0.747362 0.838441 0.527185 -0.051545
H9    H     H_    0.684611 0.894046 0.634398 0.151800
C37   C     C_R   0.259833 0.725419 0.599008 -0.266718
H10   H     H_    0.303045 0.816523 0.634523 0.151703
N1    N     N_R   0.290690 0.566960 0.557640 -0.184592
C38   C     C_R   0.650743 0.324719 0.384126 0.064194
C39   C     C_R   0.725615 0.279801 0.365096 -0.172753
C40   C     C_R   0.862305 0.347415 0.403881 -0.172348
C41   C     C_R   0.926598 0.461462 0.463426 0.005522
C42   C     C_R   0.846579 0.503951 0.484075 0.209175
C43   C     C_R   0.067751 0.533698 0.506800 -0.017578
C44   C     C_R   0.123140 0.652827 0.551269 0.156979
C45   C     C_R   0.042080 0.696747 0.556437 -0.260833
C46   C     C_R   0.914077 0.619451 0.546053 -0.014836
C47   C     C_R   0.157340 0.493863 0.509129 0.030152
C48   C     C_R   0.341908 0.679923 0.603363 0.083407
N2    N     N_R   0.709100 0.433710 0.442970 -0.218285
H11   H     H_    0.544677 0.270948 0.352480 0.131935
C49   C     C_2   0.714744 0.380605 0.133096 0.823758
O9    O     O_2   0.667915 0.282591 0.147482 -0.601523
O10   O     O_R   0.697496 0.464913 0.178479 -0.752850
H12   H     H_    0.644340 0.434525 0.221502 0.331567
C50   C     C_2   0.907301 0.737253 0.285057 0.868870
O11   O     O_2   0.813710 0.705485 0.204683 -0.563854
O12   O     O_R   0.991649 0.691587 0.297817 -0.766851
H13   H     H_    0.966540 0.634292 0.234527 0.344053
H14   H     H_    0.155203 0.197660 0.553118 0.144229
C51   C     C_2   0.117936 0.131960 0.704032 0.818149
O13   O     O_2   0.209947 0.113992 0.718364 -0.580147
O14   O     O_R   0.136362 0.229742 0.763838 -0.792911
H15   H     H_    0.230599 0.280032 0.814569 0.324669
H16   H     H_    0.890283 0.074290 0.719830 0.178792
H17   H     H_    0.732665 0.723484 0.357298 0.174472
H18   H     H_    0.447467 0.736876 0.638473 0.126087
H19   H     H_    0.087986 0.787322 0.595753 0.178135
H20   H     H_    0.123145 0.406228 0.471351 0.116796
H21   H     H_    0.915337 0.309389 0.384623 0.131899
H22   H     H_    0.677156 0.192211 0.319132 0.171750
C52   C     C_2   0.903153 0.643255 0.642780 0.915237
O15   O     O_2   0.921777 0.587144 0.704296 -0.642818
O16   O     O_R   0.896200 0.741742 0.671691 -0.766554
H23   H     H_    0.896042 0.751397 0.742146 0.324453
H24   H     H_    0.141311 0.417961 0.844021 0.179066
H25   H     H_    0.601002 0.471139 0.001322 0.179573
H26   H     H_    0.933504 0.377276 0.168452 0.154156

loop_
_geom_bond_atom_site_label_1
_geom_bond_atom_site_label_2
_geom_bond_distance
_ccdc_geom_bond_type
C5    C8    1.398351 A    
C49   O10   1.395215 S    
C9    C10   1.400308 A    
C51   O13   1.223753 D    
Cu1   Cu2   2.713487 S    
C23   H8    1.080597 S    
C23   C35   1.390029 A    
C27   C28   1.431565 A    
C26   C27   1.399508 A    
C6    C21   1.399981 A    
Cu1   O7    1.934049 S    
C38   H11   1.080278 S    
C16   C17   1.383919 A    
C14   H26   1.080345 S    
C43   C47   1.421549 A    
C18   C19   1.418728 A    
C50   O12   1.398324 S    
C19   C22   1.407952 A    
C9    H4    1.069572 S    
C24   C35   1.396873 A    
C45   H19   1.087600 S    
O4    C2    1.308013 A    
O7    C4    1.307309 A    
C37   C44   1.399310 A    
C37   H10   1.084074 S    
C20   H6    1.083974 S    
C31   C32   1.406536 A    
O5    C3    1.305114 A    
C52   O15   1.219999 D    
C41   C43   1.438406 A    
C2    C5    1.474088 S    
C13   C14   1.411932 A    
C8    H3    1.083033 S    
Cu1   N1    2.044896 S    
C48   H18   1.080704 S    
C45   C46   1.391688 A    
C38   C39   1.391028 A    
C17   H24   1.083513 S    
O16   H23   1.013783 S    
O3    Cu1   1.937503 S    
C33   H17   1.082825 S    
C3    C24   1.459878 S    
C51   O14   1.397598 S    
C32   C33   1.393891 A    
C28   C30   1.422654 A    
C42   C46   1.429653 A    
O10   H12   1.012576 S    
C14   C15   1.397943 A    
O3    C2    1.306330 A    
O12   H13   1.013428 S    
C29   C33   1.411012 A    
C7    C11   1.414281 A    
C39   C40   1.390929 A    
O1    C1    1.309065 A    
C5    C9    1.394836 A    
C25   C26   1.387668 A    
C41   C42   1.436631 A    
C32   C50   1.478461 S    
C25   C36   1.398921 A    
O14   H15   1.013883 S    
C42   N2    1.400830 A    
Cu2   O8    1.937503 S    
C52   O16   1.397192 S    
C7    C8    1.396543 A    
C21   H2    1.081810 S    
C16   H5    1.074497 S    
C15   C49   1.476742 S    
C50   O11   1.222521 D    
C29   C36   1.417244 A    
N1    C47   1.370790 A    
C30   C31   1.422531 A    
C23   C31   1.410747 A    
C10   C12   1.424831 A    
H7    C35   1.083267 S    
C4    C6    1.466930 S    
C26   H16   1.083788 S    
C13   C19   1.425503 A    
C40   H21   1.078816 S    
C39   H22   1.082563 S    
C25   H9    1.083333 S    
Cu1   O5    1.940821 S    
C11   C15   1.408267 A    
C28   C29   1.417064 A    
O1    Cu1   1.950167 S    
C27   C51   1.485298 S    
O8    C4    1.304316 A    
C49   O9    1.221628 D    
O6    C3    1.303376 A    
O4    Cu2   1.934049 S    
N1    C48   1.355706 A    
C6    C22   1.400964 A    
Cu2   N2    2.032988 S    
C22   H1    1.078252 S    
C18   C20   1.400844 A    
O2    C1    1.304786 A    
C43   C44   1.413035 A    
C20   C21   1.388642 A    
C46   C52   1.469339 S    
C1    C36   1.472224 S    
C44   C45   1.387823 A    
C40   C41   1.406104 A    
C38   N2    1.359499 A    
C30   C34   1.400400 A    
C10   C11   1.420018 A    
Cu2   O6    1.950167 S    
C37   C48   1.386066 A    
C12   C16   1.417884 A    
O2    Cu2   1.940822 S    
C17   C18   1.388380 A    
C12   C13   1.419072 A    
C47   H20   1.076983 S    
C34   H14   1.080300 S    
C7    H25   1.080306 S    
C24   C34   1.393308 A    
