data_mof_unit_39202.cif
_audit_creation_date              2012-12-11T16:45:53-0500
_audit_creation_method            fapswitch 2.2
_symmetry_space_group_name_H-M    P1
_symmetry_Int_Tables_number       1
_space_group_crystal_system       triclinic
_cell_length_a                    19.861768
_cell_length_b                    17.193479
_cell_length_c                    15.346557
_cell_angle_alpha                 90.141699
_cell_angle_beta                  52.847971
_cell_angle_gamma                 89.683605
_cell_volume                      4176.88310864

loop_
_atom_site_label
_atom_site_type_symbol
_atom_type_description
_atom_site_fract_x
_atom_site_fract_y
_atom_site_fract_z
_atom_type_partial_charge
C1    C     C_R   0.873258 0.693358 0.994072 -0.126609
C2    C     C_R   0.210171 0.346902 0.978333 0.128085
C3    C     C_R   0.297898 0.841697 0.005128 0.134578
C4    C     C_R   0.710171 0.846902 0.978333 0.128085
C5    C     C_R   0.811133 0.641257 0.324893 0.053634
C6    C     C_R   0.110457 0.684068 0.697618 0.042202
C7    C     C_R   0.311133 0.141257 0.324893 0.053634
C8    C     C_R   0.610457 0.184068 0.697618 0.042202
C9    C     C_R   0.717842 0.641154 0.526864 0.117570
C10   C     C_R   0.157990 0.708927 0.510845 0.119159
C11   C     C_R   0.217842 0.141154 0.526864 0.117569
C12   C     C_R   0.129751 0.691842 0.000039 -0.104572
C13   C     C_R   0.657990 0.208927 0.510845 0.119158
C14   C     C_R   0.733647 0.665536 0.428964 0.041571
C15   C     C_R   0.133759 0.737880 0.611648 0.043409
C16   C     C_R   0.233647 0.165536 0.428964 0.041571
C17   C     C_R   0.633759 0.237880 0.611648 0.043409
C18   C     C_R   0.178158 0.219995 0.435018 -0.209798
C19   C     C_R   0.654126 0.314921 0.617130 -0.192825
C20   C     C_R   0.678158 0.719995 0.435018 -0.209798
C21   C     C_R   0.154126 0.814921 0.617130 -0.192826
C22   C     C_R   0.123050 0.262294 0.532081 -0.131713
C23   C     C_R   0.373258 0.193358 0.994072 -0.126609
C24   C     C_R   0.717616 0.351868 0.520714 -0.158340
C25   C     C_R   0.623050 0.762294 0.532081 -0.131713
C26   C     C_R   0.217616 0.851868 0.520714 -0.158339
C27   C     C_R   0.127055 0.252215 0.620161 0.050112
C28   C     C_R   0.759367 0.310980 0.420979 0.060660
C29   C     C_R   0.627055 0.752215 0.620161 0.050112
C30   C     C_R   0.259366 0.810980 0.420979 0.060660
C31   C     C_R   0.665426 0.684097 0.621056 0.161903
C32   C     C_R   0.220315 0.745586 0.416319 0.160433
C33   C     C_R   0.165426 0.184097 0.621056 0.161903
C34   C     C_R   0.629751 0.191842 0.000039 -0.104572
C35   C     C_R   0.720315 0.245586 0.416319 0.160432
C36   C     C_3   0.719764 0.670093 0.657081 -0.526814
C37   C     C_3   0.257263 0.671206 0.353618 -0.535227
C38   C     C_3   0.219764 0.170093 0.657081 -0.526813
C39   C     C_3   0.757263 0.171206 0.353618 -0.535227
C40   C     C_R   0.869330 0.314455 0.219498 -0.209996
C41   C     C_R   0.097902 0.301754 0.793646 -0.238637
C42   C     C_R   0.369330 0.814455 0.219498 -0.209996
C43   C     C_R   0.597902 0.801754 0.793646 -0.238637
C44   C     C_3   0.777181 0.622968 0.554074 -0.459462
C45   C     C_R   0.838557 0.337494 0.323500 0.000134
C46   C     C_3   0.189957 0.630212 0.457190 -0.437202
C47   C     C_3   0.277180 0.122968 0.554074 -0.459462
C48   C     C_3   0.689957 0.130212 0.457190 -0.437202
C49   C     C_2   0.702230 0.233687 0.078927 -0.197083
C50   C     C_2   0.304029 0.235108 0.908772 -0.193980
C51   C     C_2   0.202230 0.733687 0.078927 -0.197082
C52   C     C_2   0.804029 0.735108 0.908772 -0.193980
C53   C     C_2   0.228165 0.800407 0.022867 -0.186177
C54   C     C_2   0.783220 0.806019 0.955382 -0.190365
C55   C     C_2   0.728165 0.300407 0.022867 -0.186177
C56   C     C_R   0.107507 0.314411 0.698022 -0.025624
C57   C     C_2   0.283220 0.306019 0.955382 -0.190365
C58   C     C_R   0.834766 0.407814 0.942094 -0.111802
C59   C     C_R   0.169482 0.410162 0.049297 -0.105916
C60   C     C_R   0.334766 0.907814 0.942094 -0.111802
C61   C     C_R   0.669482 0.910162 0.049297 -0.105916
C62   C     C_R   0.860821 0.581176 0.315016 -0.140877
C63   C     C_R   0.088948 0.608411 0.699945 -0.104017
C64   C     C_R   0.360821 0.081176 0.315016 -0.140877
C65   C     C_R   0.588948 0.108411 0.699945 -0.104017
C66   C     C_R   0.848132 0.314372 0.032381 -0.112232
C67   C     C_R   0.338557 0.837494 0.323500 0.000134
C68   C     C_R   0.159073 0.320197 0.952008 -0.107112
C69   C     C_R   0.348132 0.814373 0.032381 -0.112232
C70   C     C_R   0.659073 0.820197 0.952008 -0.107112
C71   C     C_R   0.851235 0.673215 0.221437 -0.118041
C72   C     C_R   0.103560 0.697530 0.791351 -0.106999
C73   C     C_R   0.351235 0.173214 0.221437 -0.118041
C74   C     C_R   0.603560 0.197530 0.791351 -0.106999
C75   C     C_R   0.882701 0.402733 0.314988 0.391180
C76   C     C_R   0.091981 0.393243 0.696580 0.455441
C77   C     C_R   0.382701 0.902733 0.314988 0.391180
C78   C     C_R   0.607507 0.814411 0.698022 -0.025624
C79   C     C_R   0.591981 0.893243 0.696580 0.455441
C80   C     C_R   0.863763 0.602027 0.898526 -0.153457
C81   C     C_R   0.138295 0.601898 0.098425 -0.151050
C82   C     C_R   0.363763 0.102027 0.898526 -0.153457
C83   C     C_R   0.638295 0.101898 0.098425 -0.151050
C84   C     C_R   0.844540 0.678786 0.933705 0.149067
C85   C     C_R   0.159693 0.677355 0.058824 0.146351
C86   C     C_R   0.344540 0.178786 0.933705 0.149067
C87   C     C_R   0.659693 0.177355 0.058824 0.146351
C88   C     C_R   0.797898 0.341697 0.005128 0.134578
Cl1   Cl    Cl    0.911542 0.422591 0.401155 -0.699903
Cl2   Cl    Cl    0.071309 0.438823 0.612935 -0.755175
Cl3   Cl    Cl    0.411542 0.922591 0.401155 -0.699903
Cl4   Cl    Cl    0.571309 0.938823 0.612935 -0.755175
H1    H     H_    0.879752 0.748977 0.020934 0.085033
H2    H     H_    0.249087 0.664853 0.288374 0.188093
H3    H     H_    0.250426 0.223611 0.658268 0.209483
H4    H     H_    0.749086 0.164853 0.288374 0.188093
H5    H     H_    0.687609 0.634244 0.732234 0.189509
H6    H     H_    0.322119 0.659370 0.327787 0.210843
H7    H     H_    0.187609 0.134244 0.732234 0.189509
H8    H     H_    0.822119 0.159370 0.327787 0.210843
H9    H     H_    0.840486 0.649628 0.496650 0.211757
H10   H     H_    0.143912 0.599489 0.450896 0.224868
H11   H     H_    0.340486 0.149627 0.496651 0.211757
H12   H     H_    0.124767 0.746448 0.969726 0.085730
H13   H     H_    0.643912 0.099489 0.450896 0.224868
H14   H     H_    0.777833 0.560108 0.570474 0.218050
H15   H     H_    0.217393 0.594585 0.489277 0.217188
H16   H     H_    0.277833 0.060108 0.570474 0.218050
H17   H     H_    0.717393 0.094585 0.489277 0.217189
H18   H     H_    0.721489 0.215423 0.128501 0.123503
H19   H     H_    0.279898 0.213164 0.866366 0.127940
H20   H     H_    0.221489 0.715423 0.128501 0.123503
H21   H     H_    0.779898 0.713164 0.866366 0.127940
H22   H     H_    0.207145 0.820358 0.976045 0.126834
H23   H     H_    0.379752 0.248977 0.020934 0.085033
H24   H     H_    0.809130 0.828744 0.995209 0.125355
H25   H     H_    0.707145 0.320358 0.976045 0.126834
H26   H     H_    0.309130 0.328744 0.995209 0.125355
H27   H     H_    0.855290 0.262442 0.195214 0.125647
H28   H     H_    0.090977 0.245918 0.830295 0.133485
H29   H     H_    0.355290 0.762442 0.195214 0.125647
H30   H     H_    0.590977 0.745918 0.830295 0.133485
H31   H     H_    0.814934 0.440805 0.901202 0.109366
H32   H     H_    0.190485 0.443143 0.088752 0.103506
H33   H     H_    0.314934 0.940805 0.901202 0.109366
H34   H     H_    0.624767 0.246448 0.969726 0.085730
H35   H     H_    0.690485 0.943143 0.088752 0.103506
H36   H     H_    0.846944 0.543274 0.378578 0.157058
H37   H     H_    0.069828 0.584869 0.653217 0.177180
H38   H     H_    0.346944 0.043274 0.378578 0.157058
H39   H     H_    0.569828 0.084869 0.653217 0.177180
H40   H     H_    0.845615 0.258784 0.066064 0.084298
H41   H     H_    0.168426 0.271041 0.901869 0.093033
H42   H     H_    0.345615 0.758785 0.066064 0.084298
H43   H     H_    0.668426 0.771041 0.901869 0.093033
H44   H     H_    0.829684 0.721768 0.199521 0.100472
H45   H     H_    0.084349 0.306362 0.532450 0.214485
H46   H     H_    0.104975 0.753062 0.823319 0.088079
H47   H     H_    0.329684 0.221768 0.199521 0.100472
H48   H     H_    0.604975 0.253062 0.823319 0.088079
H49   H     H_    0.859214 0.574977 0.838571 0.118547
H50   H     H_    0.143897 0.575913 0.157924 0.113893
H51   H     H_    0.359214 0.074977 0.838571 0.118547
H52   H     H_    0.643897 0.075913 0.157924 0.113893
H53   H     H_    0.182916 0.235284 0.363090 0.146569
H54   H     H_    0.630710 0.342233 0.694357 0.128203
H55   H     H_    0.682916 0.735283 0.363090 0.146568
H56   H     H_    0.738774 0.408253 0.526065 0.161803
H57   H     H_    0.130710 0.842233 0.694357 0.128203
H58   H     H_    0.584349 0.806361 0.532450 0.214485
H59   H     H_    0.238774 0.908253 0.526065 0.161803
H60   H     H_    0.750427 0.723612 0.658268 0.209483
N1    N     N_R   0.908660 0.628630 0.995840 -0.049229
N2    N     N_R   0.096530 0.421430 0.063580 -0.036288
N3    N     N_R   0.403470 0.921430 0.936420 -0.041104
N4    N     N_R   0.596530 0.921430 0.063580 -0.036288
N5    N     N_R   0.927500 0.575670 0.211370 -0.036872
N6    N     N_R   0.072500 0.575670 0.788630 -0.038618
N7    N     N_R   0.427500 0.075670 0.211370 -0.036872
N8    N     N_R   0.572500 0.075670 0.788630 -0.038618
N9    N     N_R   0.908660 0.365680 0.995820 -0.047669
N10   N     N_R   0.091340 0.365680 0.004180 -0.046659
N11   N     N_R   0.408660 0.865680 0.995820 -0.047668
N12   N     N_R   0.091340 0.628630 0.004160 -0.051704
N13   N     N_R   0.591340 0.865680 0.004180 -0.046659
N14   N     N_R   0.922310 0.631420 0.151980 -0.046814
N15   N     N_R   0.077690 0.631420 0.848020 -0.047537
N16   N     N_R   0.422310 0.131420 0.151980 -0.046814
N17   N     N_R   0.577690 0.131420 0.848020 -0.047537
N18   N     N_R   0.927500 0.426330 0.211360 -0.074738
N19   N     N_R   0.072500 0.426330 0.788640 -0.077665
N20   N     N_R   0.427500 0.926330 0.211360 -0.074738
N21   N     N_R   0.572500 0.926330 0.788640 -0.077665
N22   N     N_R   0.903470 0.570760 0.936440 -0.040785
N23   N     N_R   0.408660 0.128630 0.995840 -0.049229
N24   N     N_R   0.096530 0.570760 0.063560 -0.042547
N25   N     N_R   0.403470 0.070760 0.936440 -0.040785
N26   N     N_R   0.596530 0.070760 0.063560 -0.042547
N27   N     N_R   0.591340 0.128630 0.004160 -0.051704
N28   N     N_R   0.922310 0.368460 0.151950 -0.058853
N29   N     N_R   0.077690 0.368460 0.848050 -0.062001
N30   N     N_R   0.422310 0.868460 0.151950 -0.058853
N31   N     N_R   0.577690 0.868460 0.848050 -0.062001
N32   N     N_R   0.903470 0.421430 0.936420 -0.041104
Ni1   Ni    Ni4+2 0.000000 0.630300 0.000000 0.200543
Ni2   Ni    Ni4+2 0.500000 0.130300 0.000000 0.200543
Ni3   Ni    Ni4+2 0.000000 0.369700 0.000000 0.206052
Ni4   Ni    Ni4+2 0.500000 0.869700 0.000000 0.206052
Ni5   Ni    Ni4+2 0.988090 0.497570 0.863760 0.258245
Ni6   Ni    Ni4+2 0.011910 0.497570 0.136240 0.269950
Ni7   Ni    Ni4+2 0.488090 0.997570 0.863760 0.258245
Ni8   Ni    Ni4+2 0.511910 0.997570 0.136240 0.269950

loop_
_geom_bond_atom_site_label_1
_geom_bond_atom_site_label_2
_ccdc_geom_bond_type
C83   C87   A    
C21   C26   A    
C69   H42   S    
N25   Ni7   S    
N14   Ni1   S    
C79   N21   A    
C11   C47   S    
C67   C77   A    
C80   C84   A    
C18   H53   S    
C51   C85   S    
C4    C70   A    
N26   N27   A    
N29   Ni3   S    
C2    C57   S    
N23   N25   A    
N27   Ni2   S    
C52   H21   S    
N20   Ni8   S    
C43   C78   A    
C6    C72   A    
C46   H10   S    
C22   H45   S    
C58   H31   S    
C51   H20   S    
C12   C85   A    
C56   C76   A    
C68   H41   S    
C3    C69   A    
N17   Ni2   S    
C12   H12   S    
C2    C68   A    
C10   C15   A    
C65   N8    A    
C66   C88   A    
N10   Ni3   S    
C23   N23   A    
C20   C25   A    
N15   Ni1   S    
N7    N16   A    
N19   Ni5   S    
C58   N32   A    
C55   C88   S    
C52   C84   S    
C49   C87   S    
N5    Ni6   S    
C74   N17   A    
C6    C15   S    
C40   N28   A    
C29   C78   S    
C28   C35   A    
C5    C62   A    
C23   C86   A    
C54   H24   S    
C38   H3    S    
C10   C46   S    
N8    N17   A    
C36   H5    S    
N9    Ni3   S    
C21   H57   S    
C30   C32   A    
C26   H59   S    
C30   C67   S    
C3    C60   A    
C72   H46   S    
C48   H17   S    
N2    Ni6   S    
C8    C65   A    
C18   C22   A    
C41   N29   A    
C34   N27   A    
C73   N16   A    
C37   H6    S    
C65   H39   S    
C59   N2    A    
C52   C54   D    
N6    N15   A    
C83   H52   S    
C66   H40   S    
C25   C29   A    
C40   C45   A    
C7    C64   A    
C28   C45   S    
C62   N5    A    
C19   H54   S    
N16   Ni2   S    
C57   H26   S    
N13   Ni4   S    
C81   N24   A    
C14   C20   A    
C11   C33   A    
C47   H11   S    
C7    C73   A    
N12   Ni1   S    
C24   H56   S    
C70   N13   A    
C71   H44   S    
C9    C31   A    
C78   C79   A    
C36   H60   S    
C73   H47   S    
C60   H33   S    
C82   C86   A    
C74   H48   S    
N1    N22   A    
C71   N14   A    
C42   N30   A    
C66   N9    A    
N18   N28   A    
N11   Ni4   S    
C51   C53   D    
C6    C63   A    
C76   N19   A    
C35   C39   S    
C9    C14   A    
C41   C56   A    
C82   N25   A    
N28   Ni3   S    
N20   N30   A    
C12   N12   A    
N26   Ni8   S    
C11   C16   A    
N24   Ni6   S    
C48   H13   S    
C34   H34   S    
C46   H15   S    
C75   N18   A    
C8    C74   A    
C79   Cl4   S    
C20   H55   S    
C61   H35   S    
C16   C18   A    
N30   Ni4   S    
C32   C37   S    
C27   C56   S    
C1    N1    A    
C43   H30   S    
C5    C14   S    
N3    Ni7   S    
N4    Ni8   S    
C1    H1    S    
C81   H50   S    
C64   H38   S    
C47   H16   S    
C68   N10   A    
C22   C27   A    
C42   C67   A    
C82   H51   S    
C72   N15   A    
N6    Ni5   S    
C1    C84   A    
C61   N4    A    
N2    N10   A    
C53   H22   S    
C24   C28   A    
C55   H25   S    
C59   H32   S    
C77   Cl3   S    
C9    C44   S    
C83   N26   A    
C4    C54   S    
C2    C59   A    
C50   C57   D    
N7    Ni8   S    
N19   N29   A    
C7    C16   S    
C69   N11   A    
N8    Ni7   S    
C38   H7    S    
C39   C48   S    
C58   C88   A    
N5    N14   A    
C13   C48   S    
C44   H9    S    
C13   C35   A    
C44   H14   S    
N18   Ni6   S    
C8    C17   S    
C38   C47   S    
C45   C75   A    
N3    N11   A    
N9    N32   A    
C19   C24   A    
C60   N3    A    
C80   N22   A    
C29   C31   A    
C49   C55   D    
N31   Ni4   S    
N23   Ni2   S    
C62   H36   S    
C3    C53   S    
C39   H8    S    
C70   H43   S    
N1    Ni1   S    
N4    N13   A    
C77   N20   A    
C4    C61   A    
C64   N7    A    
C43   N31   A    
C50   H19   S    
C17   C19   A    
N21   Ni7   S    
C37   H2    S    
N12   N24   A    
C34   C87   A    
C63   H37   S    
C41   H28   S    
C39   H4    S    
C36   C44   S    
C50   C86   S    
N22   Ni5   S    
C23   H23   S    
C13   C17   A    
C10   C32   A    
C15   C21   A    
C40   H27   S    
N21   N31   A    
C5    C71   A    
C80   H49   S    
C75   Cl1   S    
C27   C33   A    
C31   C36   S    
C25   H58   S    
C33   C38   S    
C63   N6    A    
C37   C46   S    
N32   Ni5   S    
C81   C85   A    
C42   H29   S    
C76   Cl2   S    
C49   H18   S    
C26   C30   A    
