data_mof_unit_33579.cif
_audit_creation_date              2013-03-05T15:53:19-0500
_audit_creation_method            fapswitch 2.2
_symmetry_space_group_name_H-M    P1
_symmetry_Int_Tables_number       1
_space_group_crystal_system       triclinic
_cell_length_a                    27.088609
_cell_length_b                    7.22126
_cell_length_c                    22.794451
_cell_angle_alpha                 90.150116
_cell_angle_beta                  101.276557
_cell_angle_gamma                 89.8744
_cell_volume                      4372.80937728

loop_
_atom_site_label
_atom_site_type_symbol
_atom_site_description
_atom_site_fract_x
_atom_site_fract_y
_atom_site_fract_z
_atom_type_partial_charge
O1    O     O_R   0.207310 0.594030 0.676830 -0.593201
O2    O     O_R   0.792690 0.405970 0.323170 -0.581597
O3    O     O_R   0.292690 0.094030 0.823170 -0.593784
O4    O     O_R   0.707310 0.905970 0.176830 -0.593534
O5    O     O_R   0.197320 0.262370 0.795700 -0.561900
O6    O     O_R   0.802680 0.737630 0.204300 -0.563226
O7    O     O_R   0.302680 0.762370 0.704300 -0.562862
O8    O     O_R   0.697320 0.237630 0.295700 -0.531425
C1    C     C_R   0.183979 0.432318 0.810845 0.951346
C2    C     C_R   0.816023 0.567681 0.189157 0.944097
C3    C     C_R   0.315862 0.931770 0.689003 0.953677
C4    C     C_R   0.684913 0.069055 0.312538 0.951473
O9    O     O_R   0.201410 0.264250 0.675590 -0.567843
O10   O     O_R   0.798590 0.735750 0.324410 -0.568221
O11   O     O_R   0.298590 0.764250 0.824410 -0.568076
O12   O     O_R   0.701410 0.235750 0.175590 -0.581291
O13   O     O_R   0.296810 0.094940 0.702210 -0.584474
O14   O     O_R   0.703190 0.905060 0.297790 -0.582566
O15   O     O_R   0.203190 0.594940 0.797790 -0.584519
O16   O     O_R   0.796810 0.405060 0.202210 -0.586833
C5    C     C_R   0.189649 0.432569 0.653628 0.938214
C6    C     C_R   0.810323 0.567428 0.346387 0.973896
C7    C     C_R   0.310338 0.932669 0.846430 0.938362
C8    C     C_R   0.689740 0.067368 0.153558 0.919689
O17   O     O_3   0.281300 0.427390 0.758870 -0.261654
O18   O     O_3   0.718700 0.572610 0.241130 -0.257043
O19   O     O_3   0.218700 0.927390 0.741130 -0.261296
O20   O     O_3   0.781300 0.072610 0.258870 -0.263492
V1    V     V_3+5 0.244190 0.152150 0.748350 1.255193
V2    V     V_3+5 0.755810 0.847850 0.251650 1.263783
V3    V     V_3+5 0.255810 0.652150 0.751650 1.255173
V4    V     V_3+5 0.744190 0.347850 0.248350 1.271509
C9    C     C_R   0.654986 0.061324 0.095074 -0.130299
C10   C     C_R   0.345103 0.938956 0.904987 -0.135669
C11   C     C_R   0.845046 0.561022 0.404880 -0.152219
C12   C     C_R   0.154890 0.438930 0.595151 -0.134836
C13   C     C_R   0.641718 0.090514 0.987335 0.076151
C14   C     C_R   0.358106 0.913140 0.012839 0.079552
C15   C     C_R   0.857590 0.577771 0.512870 0.064293
C16   C     C_R   0.142281 0.421726 0.487159 0.079316
C17   C     C_R   0.673389 0.099802 0.043480 -0.222611
C18   C     C_R   0.326527 0.902948 0.956633 -0.226916
C19   C     C_R   0.826098 0.590585 0.456701 -0.204332
C20   C     C_R   0.173787 0.408875 0.543316 -0.227959
C21   C     C_R   0.603501 0.025192 0.090775 -0.119740
C22   C     C_R   0.396677 0.973943 0.909385 -0.102913
C23   C     C_R   0.896814 0.530069 0.409109 -0.106288
C24   C     C_R   0.103134 0.470183 0.590946 -0.100797
C25   C     C_R   0.569123 0.034838 0.034971 0.123597
C26   C     C_R   0.430924 0.965980 0.965375 0.115942
C27   C     C_R   0.930850 0.534758 0.465261 0.120218
C28   C     C_R   0.069074 0.465445 0.534809 0.115462
C29   C     C_R   0.589782 0.051256 0.982595 0.055464
C30   C     C_R   0.410124 0.951236 0.017688 0.054766
C31   C     C_R   0.909785 0.542782 0.517549 0.058403
C32   C     C_R   0.090113 0.457152 0.482506 0.056920
C33   C     C_R   0.515373 0.019016 0.029170 -0.101821
C34   C     C_R   0.484689 0.981799 0.971336 -0.100355
C35   C     C_R   0.984686 0.521320 0.471321 -0.098318
C36   C     C_R   0.015241 0.479019 0.528766 -0.097917
C37   C     C_R   0.509112 0.960356 0.921800 0.338133
C38   C     C_R   0.490978 0.040034 0.078782 0.349751
C39   C     C_R   0.990649 0.450800 0.577798 0.338099
C40   C     C_R   0.009280 0.549563 0.422291 0.338443
C41   C     C_R   0.559228 0.013849 0.926881 -0.277998
C42   C     C_R   0.440680 0.988355 0.073462 -0.279958
C43   C     C_R   0.940260 0.501197 0.572942 -0.277430
C44   C     C_R   0.059646 0.498900 0.427124 -0.278011
H1    H     H_    0.575721 0.005943 0.887338 0.184935
H2    H     H_    0.424159 0.996422 0.112980 0.185520
H3    H     H_    0.923584 0.487562 0.612178 0.183721
H4    H     H_    0.076321 0.512447 0.387884 0.184148
H5    H     H_    0.408929 0.011685 0.868758 0.153392
H6    H     H_    0.591425 0.985390 0.131319 0.148087
H7    H     H_    0.090602 0.503419 0.631843 0.153394
H8    H     H_    0.909373 0.497064 0.368212 0.153041
H9    H     H_    0.286822 0.872844 0.953117 0.114561
H10   H     H_    0.713030 0.131007 0.046970 0.114507
H11   H     H_    0.213661 0.381695 0.546704 0.114621
H12   H     H_    0.786201 0.617375 0.453291 0.141952
C45   C     C_R   0.635545 0.897367 0.377448 -0.107007
C46   C     C_R   0.356115 0.089470 0.613002 -0.100871
C47   C     C_R   0.857393 0.408636 0.113750 -0.102212
C48   C     C_R   0.142612 0.591370 0.886256 -0.101826
H13   H     H_    0.658180 0.778670 0.373019 0.225010
H14   H     H_    0.328565 0.199570 0.610560 0.152815
H15   H     H_    0.829604 0.299515 0.110484 0.151701
H16   H     H_    0.170399 0.700495 0.889517 0.151472
C49   C     C_R   0.598531 0.883558 0.412148 -0.099200
C50   C     C_R   0.391292 0.099440 0.575855 -0.101757
C51   C     C_R   0.893269 0.397626 0.077398 -0.102676
C52   C     C_R   0.106739 0.602381 0.922611 -0.102295
H17   H     H_    0.594097 0.752324 0.433308 0.143523
H18   H     H_    0.390020 0.217721 0.546457 0.130957
H19   H     H_    0.892090 0.279701 0.047694 0.131030
H20   H     H_    0.107919 0.720311 0.952313 0.130814
C53   C     C_R   0.568446 0.036369 0.420475 0.016659
C54   C     C_R   0.426976 0.958456 0.575426 0.018031
C55   C     C_R   0.929473 0.537076 0.078108 0.017291
C56   C     C_R   0.070537 0.462927 0.921907 0.017301
C57   C     C_R   0.577183 0.206158 0.393067 -0.118931
C58   C     C_R   0.427415 0.806172 0.614683 -0.122454
C59   C     C_R   0.929585 0.688764 0.117903 -0.122274
C60   C     C_R   0.070424 0.311233 0.882114 -0.122049
C61   C     C_R   0.617179 0.222031 0.361630 0.376661
C62   C     C_R   0.392257 0.797220 0.653301 0.324609
C63   C     C_R   0.893519 0.699231 0.155420 0.324698
C64   C     C_R   0.106487 0.300765 0.844593 0.324822
C65   C     C_R   0.645381 0.063910 0.350863 -0.313106
C66   C     C_R   0.355635 0.939308 0.651893 -0.291859
C67   C     C_R   0.856460 0.558760 0.152812 -0.289805
C68   C     C_R   0.143544 0.441240 0.847195 -0.292696
N1    N     N_R   0.511865 0.166357 0.484495 -0.071498
N2    N     N_R   0.482226 0.826857 0.510307 -0.073620
N3    N     N_R   0.987940 0.669410 0.017183 -0.074793
N4    N     N_R   0.012072 0.330595 0.982835 -0.074822
N5    N     N_R   0.479097 0.147736 0.520730 -0.066461
N6    N     N_R   0.514952 0.845762 0.473947 -0.069665
N7    N     N_R   0.020663 0.651570 0.980726 -0.068723
N8    N     N_R   0.979349 0.348435 0.019293 -0.068722
C69   C     C_R   0.463710 0.977460 0.534729 0.135934
C70   C     C_R   0.530457 0.016148 0.459945 0.146002
C71   C     C_R   0.033380 0.481675 0.962467 0.136432
C72   C     C_R   0.966632 0.518330 0.037550 0.136570
C73   C     C_1   0.663821 0.121149 0.935346 0.062557
N9    N     N_1   0.681542 0.145726 0.893768 -0.058845
C74   C     C_1   0.335801 0.884661 0.064789 0.061548
N10   N     N_1   0.317917 0.861809 0.106335 -0.059717
C75   C     C_1   0.834986 0.599512 0.564944 0.076222
N11   N     N_1   0.816862 0.616965 0.606587 -0.055925
C76   C     C_1   0.164841 0.399519 0.435068 0.061787
N12   N     N_1   0.182927 0.381690 0.393411 -0.060018
N13   N     N_R   0.486523 0.860046 0.868887 0.232887
O21   O     O_R   0.465486 0.700499 0.873903 -0.346623
O22   O     O_R   0.494403 0.910968 0.816762 -0.360600
N14   N     N_R   0.514006 0.136180 0.132426 0.225461
O23   O     O_R   0.506304 0.081297 0.184231 -0.377959
O24   O     O_R   0.535809 0.295021 0.128733 -0.374499
N15   N     N_R   0.013470 0.347033 0.629753 0.233618
O25   O     O_R   0.035260 0.189525 0.623263 -0.347221
O26   O     O_R   0.004995 0.392130 0.682224 -0.361546
N16   N     N_R   0.986487 0.653546 0.370369 0.233561
O27   O     O_R   0.995001 0.608721 0.317893 -0.361807
O28   O     O_R   0.964670 0.810962 0.376907 -0.347531
C77   C     C_1   0.545256 0.365578 0.395784 0.185343
N17   N     N_1   0.519442 0.492555 0.397486 -0.056420
C78   C     C_1   0.465913 0.664690 0.618929 0.217913
N18   N     N_1   0.496631 0.551368 0.622396 -0.044637
C79   C     C_1   0.968506 0.828543 0.123839 0.219642
N19   N     N_1   0.999557 0.940542 0.128691 -0.045650
C80   C     C_1   0.031504 0.171450 0.876183 0.219702
N20   N     N_1   0.000455 0.059447 0.871335 -0.045377
N21   N     N_R   0.632904 0.402375 0.347632 0.224353
O29   O     O_R   0.604614 0.503864 0.307370 -0.375133
O30   O     O_R   0.675885 0.465100 0.376386 -0.463106
N22   N     N_R   0.395636 0.648783 0.695802 0.245697
O31   O     O_R   0.401481 0.685068 0.752674 -0.315779
O32   O     O_R   0.394943 0.477241 0.678084 -0.406541
N23   N     N_R   0.896321 0.847977 0.197982 0.246141
O33   O     O_R   0.896129 0.019360 0.180490 -0.405631
O34   O     O_R   0.900897 0.812143 0.254688 -0.319322
N24   N     N_R   0.103684 0.152012 0.802034 0.246141
O35   O     O_R   0.103880 0.980632 0.819529 -0.405433
O36   O     O_R   0.099099 0.187840 0.745327 -0.317844

loop_
_geom_bond_atom_site_label_1
_geom_bond_atom_site_label_2
_geom_bond_distance
_ccdc_geom_bond_type
O17   V3    1.757896 S    
C54   C69   1.493932 S    
C55   C59   1.420014 A    
O1    C5    1.329764 A    
N4    C71   1.359839 A    
O19   V1    1.759894 S    
C9    C21   1.403821 A    
C61   N21   1.427245 S    
C78   N18   1.157547 T    
C10   C18   1.393033 A    
O1    V3    1.983240 S    
O15   V3    1.974784 S    
C77   N17   1.157097 T    
C37   N13   1.436180 S    
C33   C38   1.424618 A    
C5    C12   1.474705 S    
C42   H2    1.082765 S    
O7    C3    1.341031 A    
C6    C11   1.474528 S    
C57   C77   1.446839 S    
C35   C40   1.423882 A    
C48   C68   1.404399 A    
C14   C74   1.446120 S    
C36   C39   1.423880 A    
C46   C66   1.404088 A    
C60   C80   1.448059 S    
O9    V1    2.000046 S    
N22   O31   1.300926 A    
C23   H8    1.078949 S    
C14   C18   1.396337 A    
O16   V4    1.974781 S    
O4    C8    1.329801 A    
C25   C29   1.419471 A    
C43   H3    1.082745 S    
C52   H20   1.083180 S    
O13   V1    1.972317 S    
O2    V4    1.983244 S    
N6    C70   1.359740 A    
C38   N14   1.437195 S    
O3    V1    1.983916 S    
N5    C69   1.357870 A    
C28   C36   1.440833 A    
N2    C69   1.359369 A    
O3    C7    1.330066 A    
C1    O15   1.342948 A    
C56   C60   1.420014 A    
C15   C31   1.419126 A    
N1    C70   1.359420 A    
C2    O16   1.342947 A    
C16   C32   1.419039 A    
O2    C6    1.329646 A    
C80   N20   1.157564 T    
N23   O34   1.300778 A    
C58   C62   1.419345 A    
C10   C22   1.404407 A    
N21   O30   1.301025 A    
C11   C19   1.392728 A    
C16   C20   1.395918 A    
C13   C73   1.446119 S    
C44   H4    1.082743 S    
C13   C29   1.418963 A    
C34   C37   1.423863 A    
O11   C7    1.329800 A    
C11   C23   1.404155 A    
C35   C36   1.438791 A    
O12   C8    1.329298 A    
C3    C66   1.495408 S    
C49   H17   1.081993 S    
C24   H7    1.078963 S    
C39   N15   1.436139 S    
O10   V2    2.000047 S    
C4    C65   1.509143 S    
C45   H13   1.068773 S    
C50   H18   1.083349 S    
N24   O36   1.300776 A    
C57   C61   1.416004 A    
C39   C43   1.395263 A    
O7    V3    1.988789 S    
C38   C42   1.395619 A    
C28   C32   1.419497 A    
C26   C34   1.440818 A    
N14   O24   1.301734 A    
C17   H10   1.085227 S    
O18   V4    1.757895 S    
C15   C19   1.395944 A    
C15   C75   1.446155 S    
C19   H12   1.085253 S    
C32   C44   1.399690 A    
C64   N24   1.437656 S    
N24   O35   1.300922 A    
N4    N8    1.334153 A    
C49   C53   1.404763 A    
C21   H6    1.078776 S    
O8    V4    1.988789 S    
O5    C1    1.341841 A    
C53   C70   1.501070 S    
C37   C41   1.395080 A    
C58   C78   1.448145 S    
C31   C43   1.399714 A    
N23   O33   1.300923 A    
C14   C30   1.419202 A    
C21   C25   1.423744 A    
O8    C4    1.340459 A    
C7    C10   1.476084 S    
C63   N23   1.437663 S    
O9    C5    1.329888 A    
C2    C67   1.498241 S    
C26   C30   1.419295 A    
N2    N6    1.334132 A    
N1    N5    1.332672 A    
O6    V2    1.984293 S    
C16   C76   1.446168 S    
C45   C65   1.397471 A    
C62   N22   1.437444 S    
N13   O21   1.301641 A    
C47   C67   1.404395 A    
C12   C20   1.392783 A    
C27   C35   1.440808 A    
C74   N10   1.157302 T    
O5    V1    1.984292 S    
C40   C44   1.395230 A    
C60   C64   1.420440 A    
N16   O28   1.301651 A    
C29   C41   1.399626 A    
C52   C56   1.405036 A    
C75   N11   1.157293 T    
C62   C66   1.421689 A    
C61   C65   1.419747 A    
C3    O13   1.342235 A    
N3    C72   1.359839 A    
C63   C67   1.421638 A    
C20   H11   1.085229 S    
C48   H16   1.083279 S    
N14   O23   1.301616 A    
C47   H15   1.083277 S    
O6    C2    1.341837 A    
C25   C33   1.440807 A    
C23   C27   1.424033 A    
N15   O25   1.301655 A    
O11   V3    1.998587 S    
C30   C42   1.400313 A    
N7    C71   1.359631 A    
O12   V4    1.998584 S    
C47   C51   1.397014 A    
C22   C26   1.424741 A    
N3    N7    1.334155 A    
C8    C9    1.474607 S    
C46   C50   1.395112 A    
C56   C71   1.499655 S    
C9    C17   1.393000 A    
O10   C6    1.329896 A    
N22   O32   1.300955 A    
C45   C49   1.397115 A    
C54   C58   1.418137 A    
C79   N19   1.157563 T    
C46   H14   1.083304 S    
N15   O26   1.301651 A    
C33   C34   1.439300 A    
C73   N9    1.157300 T    
C40   N16   1.436188 S    
C1    C68   1.498247 S    
C41   H1    1.082770 S    
O20   V2    1.759893 S    
C12   C24   1.404246 A    
C27   C31   1.419519 A    
C13   C17   1.395996 A    
O4    V2    1.983912 S    
N8    C72   1.359628 A    
C59   C79   1.448059 S    
O14   V2    1.972322 S    
C51   H19   1.083180 S    
C64   C68   1.421638 A    
C24   C28   1.424080 A    
C18   H9    1.085222 S    
C4    O14   1.349456 A    
N13   O22   1.301649 A    
N16   O27   1.301645 A    
C59   C63   1.420442 A    
C48   C52   1.397016 A    
C51   C55   1.405038 A    
N21   O29   1.301016 A    
C50   C54   1.403683 A    
C22   H5    1.078862 S    
C53   C57   1.418710 A    
C76   N12   1.157294 T    
C55   C72   1.499654 S    
