data_mof_unit_56774.cif
_audit_creation_date              2012-12-10T16:50:12-0500
_audit_creation_method            fapswitch 2.2
_symmetry_space_group_name_H-M    P1
_symmetry_Int_Tables_number       1
_space_group_crystal_system       triclinic
_cell_length_a                    7.865381
_cell_length_b                    8.610953
_cell_length_c                    10.607824
_cell_angle_alpha                 92.845549
_cell_angle_beta                  84.839629
_cell_angle_gamma                 93.41917
_cell_volume                      713.556717208

loop_
_atom_site_label
_atom_site_type_symbol
_atom_type_description
_atom_site_fract_x
_atom_site_fract_y
_atom_site_fract_z
_atom_type_partial_charge
C1    C     C_R   0.544375 0.794330 0.499986 0.944452
C2    C     C_R   0.454549 0.206588 0.506443 0.865533
C3    C     C_R   0.500182 0.503094 0.261132 0.865592
C4    C     C_R   0.411135 0.780265 0.884858 -0.166964
C5    C     C_R   0.365002 0.912471 0.958299 -0.109956
C6    C     C_R   0.364773 0.913577 0.089449 -0.145539
C7    C     C_R   0.409481 0.781963 0.147563 -0.170914
C8    C     C_R   0.453855 0.645874 0.074493 0.098324
C9    C     C_3   0.776297 0.204743 0.847846 -0.727410
C10   C     C_3   0.130166 0.977967 0.483131 -0.664620
C11   C     C_3   0.933730 0.288515 0.282073 -0.711441
C12   C     C_R   0.454812 0.644648 0.942465 0.061197
C13   C     C_R   0.502483 0.508042 0.871843 -0.164635
C14   C     C_R   0.554106 0.376407 0.928533 0.200482
C15   C     C_R   0.553026 0.379925 0.057977 -0.250625
C16   C     C_R   0.501371 0.511145 0.129146 -0.137817
C17   C     C_2   0.563966 0.957772 0.497497 -0.456422
C18   C     C_2   0.427781 0.045591 0.521834 0.016935
C19   C     C_R   0.500807 0.502518 0.739074 0.849522
H1    H     H_    0.988424 0.624354 0.591920 0.169681
H2    H     H_    0.587834 0.277927 0.103916 0.152614
H3    H     H_    0.691334 0.006221 0.467843 0.166799
H4    H     H_    0.222247 0.034817 0.659168 0.207677
H5    H     H_    0.063996 0.860866 0.484849 0.234847
H6    H     H_    0.183986 0.997676 0.384217 0.216959
H7    H     H_    0.034128 0.065331 0.511872 0.232592
H8    H     H_    0.145734 0.341128 0.373091 0.291785
H9    H     H_    0.002810 0.193603 0.228692 0.184213
H10   H     H_    0.935505 0.388350 0.219444 0.247985
H11   H     H_    0.801969 0.241636 0.306139 0.270135
H12   H     H_    0.413343 0.786309 0.783165 0.145327
H13   H     H_    0.330214 0.014610 0.913211 0.136084
H14   H     H_    0.541095 0.215829 0.773933 0.213062
H15   H     H_    0.794909 0.090597 0.796534 0.228540
H16   H     H_    0.822349 0.199131 0.943413 0.234804
H17   H     H_    0.852913 0.296601 0.794525 0.252740
H18   H     H_    0.330824 0.016937 0.146239 0.123406
H19   H     H_    0.410226 0.788553 0.249476 0.151717
N1    N     N_2   0.950330 0.457950 0.466250 0.011614
N2    N     N_2   0.049670 0.542050 0.533750 -0.156052
N3    N     N_2   0.596979 0.236597 0.857789 -0.311596
N4    N     N_2   0.261947 0.987201 0.571020 -0.272057
N5    N     N_2   0.018155 0.334313 0.394514 -0.225602
O1    O     O_R   0.389250 0.738570 0.508280 -0.579776
O2    O     O_R   0.678390 0.711630 0.486650 -0.635996
O3    O     O_R   0.355400 0.513470 0.694050 -0.621622
O4    O     O_R   0.644540 0.486530 0.672420 -0.615656
O5    O     O_R   0.321610 0.288370 0.513350 -0.634752
O6    O     O_R   0.610750 0.261430 0.491720 -0.627397
O7    O     O_R   0.355460 0.513470 0.327580 -0.649736
O8    O     O_R   0.644600 0.486530 0.305950 -0.613672
Zn1   Zn    Zn3+2 0.306930 0.517990 0.514440 0.933856
Zn2   Zn    Zn3+2 0.693070 0.482010 0.485560 0.941787

loop_
_geom_bond_atom_site_label_1
_geom_bond_atom_site_label_2
_ccdc_geom_bond_type
C9    H17   S    
O7    Zn1   S    
C11   N5    S    
C6    C7    A    
C2    O6    A    
H8    N5    S    
C10   N4    S    
C1    O1    A    
C1    C17   S    
C17   H3    S    
C8    C12   A    
O4    Zn2   S    
C5    H13   S    
H14   N3    S    
O1    Zn1   S    
C17   C18   D    
C6    H18   S    
O2    Zn2   S    
C7    C8    A    
C8    C16   A    
C13   C14   A    
C1    O2    A    
N1    Zn2   S    
H4    N4    S    
C11   H9    S    
C14   N3    S    
O6    Zn2   S    
C5    C6    A    
C10   H6    S    
C2    O5    A    
C3    O7    A    
O5    Zn1   S    
C18   N4    S    
C9    H15   S    
H1    N2    S    
C19   O4    A    
C19   O3    A    
C4    H12   S    
C4    C12   A    
C13   C19   S    
C15   C16   A    
O3    Zn1   S    
C15   H2    S    
C12   C13   A    
C11   H10   S    
N1    N2    D    
C9    H16   S    
C3    O8    A    
C14   C15   A    
C4    C5    A    
N1    N5    S    
C10   H5    S    
N2    Zn1   S    
C9    N3    S    
C7    H19   S    
C10   H7    S    
C3    C16   S    
C11   H11   S    
C2    C18   S    
O8    Zn2   S    
