data_mof_unit_32183.cif
_audit_creation_date              2013-03-05T15:45:40-0500
_audit_creation_method            fapswitch 2.2
_symmetry_space_group_name_H-M    P1
_symmetry_Int_Tables_number       1
_space_group_crystal_system       triclinic
_cell_length_a                    15.075072
_cell_length_b                    11.029153
_cell_length_c                    9.861816
_cell_angle_alpha                 111.58739
_cell_angle_beta                  98.663883
_cell_angle_gamma                 90.559322
_cell_volume                      1503.47423683

loop_
_atom_site_label
_atom_site_type_symbol
_atom_site_description
_atom_site_fract_x
_atom_site_fract_y
_atom_site_fract_z
_atom_type_partial_charge
O1    O     O_R   0.508410 0.332340 0.577400 -0.581693
O2    O     O_R   0.491590 0.667660 0.422600 -0.581690
O3    O     O_R   0.481780 0.295500 0.332650 -0.582406
O4    O     O_R   0.518220 0.704500 0.667350 -0.582396
C1    C     C_R   0.493159 0.253894 0.440264 0.868399
C2    C     C_R   0.506845 0.746106 0.559736 0.868404
O5    O     O_R   0.383570 0.518390 0.622380 -0.590725
O6    O     O_R   0.616430 0.481610 0.377620 -0.590726
O7    O     O_R   0.356940 0.481550 0.377630 -0.571909
O8    O     O_R   0.643060 0.518450 0.622370 -0.571925
C3    C     C_R   0.328759 0.499343 0.500674 0.808909
C4    C     C_R   0.671241 0.500653 0.499325 0.808897
Cu1   Cu    Cu3+1 0.515770 0.521810 0.644910 0.965230
Cu2   Cu    Cu3+1 0.484230 0.478190 0.355090 0.965234
C5    C     C_R   0.827363 0.561558 0.631235 -0.117872
C6    C     C_R   0.172638 0.438422 0.368765 -0.117868
C7    C     C_R   0.767895 0.502675 0.498502 -0.106241
C8    C     C_R   0.232105 0.497312 0.501496 -0.106238
C9    C     C_R   0.800526 0.444852 0.365846 -0.161465
C10   C     C_R   0.199475 0.555132 0.634153 -0.161472
C11   C     C_R   0.893165 0.443503 0.364075 -0.029626
C12   C     C_R   0.106836 0.556476 0.635924 -0.029633
C13   C     C_R   0.953432 0.502031 0.499363 -0.013819
C14   C     C_R   0.046568 0.497943 0.500637 -0.013815
C15   C     C_R   0.920308 0.563715 0.633579 -0.028364
C16   C     C_R   0.079693 0.436261 0.366421 -0.028363
C17   C     C_R   0.926450 0.381201 0.230716 0.252463
C18   C     C_R   0.073550 0.618783 0.769280 0.252484
C19   C     C_R   0.019598 0.376663 0.232102 0.268154
C20   C     C_R   0.980403 0.623318 0.767896 0.268163
H1    H     H_    0.800378 0.605049 0.732770 0.194592
H2    H     H_    0.199623 0.394930 0.267230 0.194595
H3    H     H_    0.752974 0.397770 0.264973 0.191857
H4    H     H_    0.247026 0.602215 0.735027 0.191854
H5    H     H_    0.482525 0.863605 0.368722 0.186386
H6    H     H_    0.517484 0.136394 0.631274 0.186385
C21   C     C_2   0.488429 0.114087 0.406607 -0.340856
C22   C     C_2   0.511585 0.885912 0.593389 -0.340847
C23   C     C_2   0.502386 0.069687 0.516267 -0.129518
C24   C     C_2   0.497629 0.930312 0.483729 -0.129521
H7    H     H_    0.526964 0.952863 0.708105 0.151246
H8    H     H_    0.473060 0.047136 0.291888 0.151232
H9    H     H_    0.448725 0.407762 0.840857 0.162244
H10   H     H_    0.551266 0.592245 0.159144 0.162252
N1    N     N_2   0.460520 0.445420 0.137370 -0.217736
N2    N     N_2   0.539480 0.554580 0.862630 -0.217727
C25   C     C_2   0.504839 0.512781 0.081894 -0.060340
C26   C     C_2   0.495158 0.487222 0.918107 -0.060333
N3    N     N_R   0.866083 0.318986 0.093640 0.142315
O9    O     O_R   0.814783 0.388745 0.037593 -0.371276
O10   O     O_R   0.868994 0.194938 0.017478 -0.274717
N4    N     N_R   0.133918 0.681027 0.906348 0.142320
O11   O     O_R   0.185213 0.611291 0.962440 -0.371203
O12   O     O_R   0.131021 0.805090 0.982452 -0.274743
N5    N     N_R   0.052620 0.311981 0.096032 0.137859
O13   O     O_R   0.030974 0.349114 0.985213 -0.283594
O14   O     O_R   0.096198 0.207355 0.077711 -0.331911
N6    N     N_R   0.947383 0.688014 0.903965 0.137844
O15   O     O_R   0.969057 0.650924 0.014812 -0.283598
O16   O     O_R   0.903792 0.792626 0.922263 -0.331934
C27   C     C_R   0.595208 0.667118 0.958642 0.284676
C28   C     C_R   0.685829 0.655531 0.007450 -0.188926
C29   C     C_R   0.740749 0.766306 0.101783 -0.076072
C30   C     C_R   0.705808 0.889333 0.145389 -0.060820
C31   C     C_R   0.615760 0.901592 0.095302 -0.190305
C32   C     C_R   0.560345 0.790696 0.002636 -0.158936
H11   H     H_    0.713380 0.560799 0.972576 0.199481
H12   H     H_    0.810426 0.756870 0.140639 0.209687
H13   H     H_    0.748542 0.975150 0.217603 0.161911
H14   H     H_    0.589022 0.996989 0.128106 0.140345
H15   H     H_    0.490533 0.800766 0.964908 0.143383
C33   C     C_R   0.404814 0.332871 0.041364 0.284685
C34   C     C_R   0.439690 0.209314 0.997431 -0.158860
C35   C     C_R   0.384296 0.098398 0.904805 -0.190372
C36   C     C_R   0.294255 0.110616 0.854688 -0.060842
C37   C     C_R   0.259301 0.233622 0.898228 -0.076126
C38   C     C_R   0.314200 0.344418 0.992527 -0.188962
H16   H     H_    0.509496 0.199275 0.035186 0.143402
H17   H     H_    0.411042 0.003018 0.872060 0.140362
H18   H     H_    0.251538 0.024782 0.782503 0.161929
H19   H     H_    0.189630 0.243025 0.859350 0.209676
H20   H     H_    0.286638 0.439132 0.027354 0.199463

loop_
_geom_bond_atom_site_label_1
_geom_bond_atom_site_label_2
_geom_bond_distance
_ccdc_geom_bond_type
N5    O13   1.301201 A    
C3    C8    1.458313 S    
C1    C21   1.451539 S    
C17   C19   1.403777 A    
C34   C35   1.398652 A    
O7    Cu2   1.963878 S    
O5    C3    1.296049 A    
C28   C29   1.398368 A    
C28   H11   1.081432 S    
O1    C1    1.293011 A    
C9    C11   1.399432 A    
C14   C16   1.416790 A    
Cu1   N2    2.015868 S    
C5    C15   1.397677 A    
N6    O16   1.301120 A    
C31   H14   1.082231 S    
O4    Cu1   1.943759 S    
C21   H8    1.087120 S    
C27   C32   1.403451 A    
C32   H15   1.083092 S    
N3    O10   1.301091 A    
C4    C7    1.458317 S    
C13   C14   1.403512 A    
C2    C22   1.451538 S    
H9    C26   1.083728 S    
H10   C25   1.083708 S    
C10   H4    1.082088 S    
C11   C17   1.412145 A    
C12   C18   1.412133 A    
Cu1   Cu2   2.683442 S    
N1    C33   1.420497 S    
O2    C2    1.293007 A    
N4    O12   1.301098 A    
Cu2   N1    2.015868 S    
N1    C25   1.302746 D    
C6    C16   1.397679 A    
N2    C26   1.302753 D    
C35   C36   1.398343 A    
N2    C27   1.420595 S    
C37   C38   1.398271 A    
C22   H7    1.087109 S    
O4    C2    1.292801 A    
C9    H3    1.082085 S    
C23   C24   1.448797 S    
C19   N5    1.435687 S    
N6    O15   1.301204 A    
C34   H16   1.082990 S    
C36   C37   1.398568 A    
C33   C38   1.401606 A    
C25   C26   1.517531 S    
O6    C4    1.296052 A    
C30   H13   1.082548 S    
O7    C3    1.293493 A    
O3    Cu2   1.943760 S    
O8    C4    1.293493 A    
C10   C12   1.399427 A    
N3    O9    1.300495 A    
C35   H17   1.082139 S    
C11   C13   1.418380 A    
C12   C14   1.418380 A    
O1    Cu1   1.942126 S    
N4    O11   1.300500 A    
C36   H18   1.082468 S    
C15   C20   1.411934 A    
C5    C7    1.395861 A    
C29   H12   1.082226 S    
O6    Cu2   1.970152 S    
H6    C23   1.088301 S    
C33   C34   1.403325 A    
O3    C1    1.292797 A    
O8    Cu1   1.963878 S    
C37   H19   1.082110 S    
C5    H1    1.082268 S    
C6    H2    1.082270 S    
C30   C31   1.398486 A    
N5    O14   1.301120 A    
H5    C24   1.088298 S    
C21   C23   1.332950 D    
C22   C24   1.332949 D    
C18   N4    1.435628 S    
C38   H20   1.081335 S    
C20   N6    1.435691 S    
C18   C20   1.403774 A    
C7    C9    1.395078 A    
C8    C10   1.395074 A    
C13   C15   1.416792 A    
C27   C28   1.401734 A    
O2    Cu2   1.942126 S    
C29   C30   1.398688 A    
O5    Cu1   1.970152 S    
C16   C19   1.411933 A    
C6    C8    1.395863 A    
C31   C32   1.398759 A    
C17   N3    1.435635 S    
