data_mof_unit_33195.cif
_audit_creation_date              2012-12-10T18:22:32-0500
_audit_creation_method            fapswitch 2.2
_symmetry_space_group_name_H-M    P1
_symmetry_Int_Tables_number       1
_space_group_crystal_system       triclinic
_cell_length_a                    23.511651
_cell_length_b                    10.641374
_cell_length_c                    9.40912
_cell_angle_alpha                 89.692139
_cell_angle_beta                  90.476921
_cell_angle_gamma                 90.618584
_cell_volume                      2353.87513739

loop_
_atom_site_label
_atom_site_type_symbol
_atom_type_description
_atom_site_fract_x
_atom_site_fract_y
_atom_site_fract_z
_atom_type_partial_charge
C1    C     C_R   0.499733 0.259590 0.500434 0.801975
C2    C     C_R   0.701016 0.552715 0.387745 -0.269192
C3    C     C_R   0.239740 0.444031 0.612518 -0.104729
C4    C     C_R   0.760246 0.555278 0.386746 -0.104988
C5    C     C_R   0.209166 0.498522 0.500612 0.330972
C6    C     C_R   0.790860 0.501770 0.499184 0.331388
C7    C     C_3   0.498625 0.039826 0.636613 -0.167632
C8    C     C_3   0.501367 0.960173 0.363386 -0.167596
C9    C     C_3   0.546603 0.958941 0.571739 -0.251743
C10   C     C_3   0.453389 0.041058 0.428260 -0.251821
C11   C     C_3   0.500686 0.876928 0.498373 -0.023763
C12   C     C_R   0.500263 0.740410 0.499565 0.802026
C13   C     C_3   0.499307 0.123072 0.501626 -0.023728
C14   C     C_3   0.453950 0.956784 0.561434 0.197308
C15   C     C_3   0.546042 0.043215 0.438565 0.197320
C16   C     C_R   0.391046 0.501370 0.499396 0.803797
C17   C     C_R   0.608962 0.498644 0.500603 0.803752
C18   C     C_3   0.515546 0.608587 0.050154 -0.047307
C19   C     C_3   0.484454 0.391413 0.949846 -0.047333
C20   C     C_3   0.465379 0.583049 0.948084 -0.023437
C21   C     C_3   0.534621 0.416951 0.051916 -0.023666
C22   C     C_3   0.550212 0.525504 0.950512 -0.037301
C23   C     C_R   0.237925 0.555847 0.387643 -0.146228
C24   C     C_3   0.449787 0.474497 0.049488 -0.036986
C25   C     C_R   0.880993 0.609024 0.531278 0.550585
C26   C     C_R   0.119024 0.391299 0.468395 0.550550
C27   C     C_R   0.879076 0.393459 0.462241 0.541506
C28   C     C_R   0.120941 0.606863 0.537441 0.541507
C29   C     C_R   0.939122 0.388453 0.465741 -0.045358
C30   C     C_R   0.060895 0.611877 0.533902 -0.045330
C31   C     C_R   0.969918 0.499753 0.499352 -0.067677
C32   C     C_R   0.030099 0.500579 0.500287 -0.067675
C33   C     C_R   0.940598 0.610461 0.532285 -0.032269
C34   C     C_R   0.762151 0.445349 0.612786 -0.146503
C35   C     C_R   0.059419 0.389870 0.467363 -0.032219
C36   C     C_R   0.969384 0.277171 0.435674 0.256772
C37   C     C_R   0.030633 0.723162 0.563959 0.256821
C38   C     C_R   0.028870 0.279927 0.434594 -0.237695
C39   C     C_R   0.971147 0.720406 0.565042 -0.237708
C40   C     C_3   0.928038 0.089010 0.535260 -0.598900
C41   C     C_3   0.071991 0.911304 0.464358 -0.599003
C42   C     C_R   0.297576 0.558959 0.385117 0.128509
C43   C     C_R   0.702502 0.442148 0.615417 0.128696
C44   C     C_R   0.328442 0.502716 0.498101 -0.051021
C45   C     C_R   0.671580 0.497395 0.501874 -0.051222
C46   C     C_R   0.298970 0.446515 0.611618 -0.269344
Cu1   Cu    Cu3+1 0.500010 0.499990 0.643150 0.946665
Cu2   Cu    Cu3+1 0.499990 0.500010 0.356850 0.946701
H1    H     H_    0.436271 0.652871 0.899339 0.135850
H2    H     H_    0.786563 0.403078 0.698328 0.130188
H3    H     H_    0.321823 0.403039 0.699072 0.162852
H4    H     H_    0.678138 0.595431 0.299852 0.163081
H5    H     H_    0.217522 0.400234 0.700458 0.145567
H6    H     H_    0.782433 0.598366 0.298322 0.145330
H7    H     H_    0.585130 0.923727 0.627386 0.144528
H8    H     H_    0.414863 0.076272 0.372613 0.144492
H9    H     H_    0.496248 0.073704 0.747785 0.141772
H10   H     H_    0.503745 0.926295 0.252214 0.141797
H11   H     H_    0.960141 0.107321 0.332182 0.239842
H12   H     H_    0.563729 0.347130 0.100661 0.135810
H13   H     H_    0.968001 0.059075 0.588694 0.189384
H14   H     H_    0.902695 0.004293 0.505936 0.244476
H15   H     H_    0.902779 0.145464 0.610527 0.246543
H16   H     H_    0.039873 0.893026 0.667425 0.239840
H17   H     H_    0.032032 0.941239 0.410899 0.189422
H18   H     H_    0.097254 0.854837 0.389114 0.246490
H19   H     H_    0.097334 0.996022 0.493679 0.244466
H20   H     H_    0.346224 0.702102 0.312181 0.211258
H21   H     H_    0.297760 0.651849 0.193100 0.214640
H22   H     H_    0.654046 0.299373 0.689995 0.211611
H23   H     H_    0.528763 0.699998 0.096923 0.116553
H24   H     H_    0.702410 0.351110 0.808551 0.214530
H25   H     H_    0.377996 0.980945 0.657720 0.219960
H26   H     H_    0.380777 0.853839 0.553275 0.206912
H27   H     H_    0.621996 0.019054 0.342273 0.219996
H28   H     H_    0.619217 0.146157 0.446727 0.207078
H29   H     H_    0.471237 0.300002 0.903077 0.116526
H30   H     H_    0.592517 0.547292 0.904465 0.144840
H31   H     H_    0.407481 0.452727 0.095541 0.144530
H32   H     H_    0.051120 0.194265 0.410120 0.176162
H33   H     H_    0.948897 0.806067 0.589519 0.176152
H34   H     H_    0.213553 0.598860 0.302511 0.130375
N1    N     N_R   0.851770 0.501735 0.496876 -0.469490
N2    N     N_3   0.596553 0.094797 0.370207 -0.586670
N3    N     N_R   0.148251 0.498583 0.502822 -0.469416
N4    N     N_3   0.500040 0.499970 0.858290 -0.157588
N5    N     N_3   0.499960 0.500030 0.141710 -0.157579
N6    N     N_2   0.940805 0.161105 0.408439 -0.375447
N7    N     N_2   0.059212 0.839229 0.591185 -0.375430
N8    N     N_3   0.326713 0.621398 0.270550 -0.578961
N9    N     N_3   0.673430 0.380601 0.730682 -0.579264
N10   N     N_3   0.403439 0.905202 0.629792 -0.586645
O1    O     O_R   0.500030 0.316850 0.620870 -0.597175
O2    O     O_2   0.147691 0.286427 0.434975 -0.547583
O3    O     O_2   0.847874 0.292199 0.422854 -0.503059
O4    O     O_2   0.152137 0.708113 0.576887 -0.503131
O5    O     O_R   0.499970 0.683150 0.379130 -0.597082
O6    O     O_R   0.500000 0.316860 0.379090 -0.566527
O7    O     O_R   0.500000 0.683140 0.620910 -0.566519
O8    O     O_R   0.417890 0.499960 0.620920 -0.585807
O9    O     O_R   0.582110 0.500040 0.379080 -0.585878
O10   O     O_R   0.417870 0.499970 0.379140 -0.556836
O11   O     O_R   0.582130 0.500030 0.620860 -0.556782
O12   O     O_2   0.852322 0.713896 0.564681 -0.547458

loop_
_geom_bond_atom_site_label_1
_geom_bond_atom_site_label_2
_ccdc_geom_bond_type
C26   O2    S    
C41   N7    S    
C21   N5    S    
C23   H34   S    
C27   C29   A    
C27   O3    S    
H22   N9    S    
C19   N4    S    
H28   N2    S    
Cu1   O7    S    
C41   H19   S    
C36   N6    S    
Cu2   O5    S    
C29   C36   A    
C33   C39   A    
C23   C42   A    
C19   C21   S    
C17   C45   S    
C8    C11   S    
C8    C10   S    
C11   C14   S    
H27   N2    S    
C40   H14   S    
H26   N10   S    
C19   H29   S    
C17   O9    A    
H11   N6    S    
C12   O7    A    
C8    H10   S    
C7    C14   S    
C20   C24   S    
C20   N4    S    
H20   N8    S    
C31   C33   A    
C9    H7    S    
C10   H8    S    
C16   C44   S    
C5    N3    S    
C21   C22   S    
C42   C44   A    
H16   N7    S    
C44   C46   A    
C2    C45   A    
C37   C39   A    
C34   H2    S    
Cu1   O11   S    
C32   C35   A    
C35   C38   A    
C39   H33   S    
C21   H12   S    
C4    C6    A    
C10   C14   S    
H24   N9    S    
C16   O8    A    
C41   H17   S    
C46   H3    S    
C43   N9    S    
C40   H13   S    
C6    C34   A    
C30   C37   A    
C42   N8    S    
C2    C4    A    
Cu1   N4    S    
C20   H1    S    
C9    C11   S    
C24   H31   S    
Cu1   Cu2   S    
C5    C23   A    
Cu2   O10   S    
Cu1   O1    S    
Cu2   N5    S    
C43   C45   A    
C40   H15   S    
C14   N10   S    
C12   O5    A    
C15   N2    S    
C2    H4    S    
C16   O10   A    
C8    C15   S    
C13   C15   S    
C1    C13   S    
H21   N8    S    
C18   H23   S    
C7    C9    S    
C6    N1    S    
C4    H6    S    
C18   C22   S    
C31   C32   A    
C34   C43   A    
H25   N10   S    
C3    C5    A    
C10   C13   S    
C1    O6    A    
C11   C12   S    
C25   O12   S    
C41   H18   S    
Cu2   O6    S    
C3    C46   A    
C18   N5    S    
C37   N7    S    
C28   O4    S    
C40   N6    S    
C27   N1    A    
C19   C24   S    
C17   O11   A    
C28   C30   A    
C29   C31   A    
C30   C32   A    
C3    H5    S    
C22   H30   S    
C38   H32   S    
C26   N3    A    
Cu2   O9    S    
C36   C38   A    
C18   C20   S    
C22   N4    S    
C9    C15   S    
C24   N5    S    
Cu1   O8    S    
C26   C35   A    
C7    C13   S    
C1    O1    A    
C28   N3    A    
C25   N1    A    
C7    H9    S    
C25   C33   A    
