data_mof_unit_6927.cif
_audit_creation_date              2012-12-10T17:30:25-0500
_audit_creation_method            fapswitch 2.2
_symmetry_space_group_name_H-M    P1
_symmetry_Int_Tables_number       1
_space_group_crystal_system       triclinic
_cell_length_a                    11.986243
_cell_length_b                    12.861366
_cell_length_c                    14.891953
_cell_angle_alpha                 90.018812
_cell_angle_beta                  86.873344
_cell_angle_gamma                 93.459113
_cell_volume                      2288.1315196

loop_
_atom_site_label
_atom_site_type_symbol
_atom_type_description
_atom_site_fract_x
_atom_site_fract_y
_atom_site_fract_z
_atom_type_partial_charge
Br1   Br    Br    0.596644 0.296240 0.246276 -0.568309
Br2   Br    Br    0.403356 0.703760 0.753724 -0.568308
Br3   Br    Br    0.785068 0.032300 0.565100 -0.501525
Br4   Br    Br    0.214932 0.967700 0.434900 -0.501525
C1    C     C_R   0.522162 0.700369 0.498158 0.922994
C2    C     C_R   0.363896 0.138180 0.477461 -0.202657
C3    C     C_R   0.444187 0.867387 0.478768 -0.210636
C4    C     C_R   0.555813 0.132613 0.521232 -0.210636
C5    C     C_R   0.449388 0.974253 0.486826 0.066549
C6    C     C_R   0.550612 0.025747 0.513174 0.066549
C7    C     C_R   0.952892 0.396209 0.422200 -0.284021
C8    C     C_R   0.047108 0.603791 0.577800 -0.284021
C9    C     C_R   0.836939 0.406896 0.428926 0.065270
C10   C     C_R   0.163061 0.593104 0.571074 0.065270
C11   C     C_R   0.859230 0.545798 0.532493 -0.028997
C12   C     C_R   0.477838 0.299631 0.501842 0.922994
C13   C     C_R   0.140770 0.454202 0.467507 -0.028997
C14   C     C_R   0.976365 0.537973 0.527972 0.080110
C15   C     C_R   0.023635 0.462027 0.472027 0.080110
C16   C     C_R   0.501335 0.503098 0.672864 0.939930
C17   C     C_R   0.498665 0.496902 0.327136 0.939930
C18   C     C_R   0.520939 0.402409 0.184510 0.155104
C19   C     C_R   0.479061 0.597591 0.815490 0.155104
C20   C     C_R   0.494945 0.492845 0.231868 -0.095686
C21   C     C_R   0.505055 0.507155 0.768132 -0.095686
C22   C     C_R   0.466480 0.582353 0.189094 -0.283646
C23   C     C_R   0.488068 0.692548 0.961063 0.117155
C24   C     C_R   0.533520 0.417647 0.810906 -0.283646
C25   C     C_R   0.473953 0.587148 0.096516 0.104803
C26   C     C_R   0.526046 0.412852 0.903484 0.104803
C27   C     C_R   0.495731 0.496747 0.046840 0.010774
C28   C     C_R   0.504269 0.503253 0.953160 0.010774
C29   C     C_R   0.508293 0.400102 0.090974 0.035751
C30   C     C_R   0.491707 0.599898 0.909026 0.035751
C31   C     C_R   0.467648 0.682993 0.053959 -0.213612
C32   C     C_R   0.532352 0.317006 0.946041 -0.213613
C33   C     C_3   0.519157 0.800969 0.922795 -0.377196
C34   C     C_R   0.511932 0.307452 0.038937 0.117155
C35   C     C_3   0.612733 0.859415 0.973058 -0.390900
C36   C     C_3   0.649630 0.962996 0.927229 -0.822784
C37   C     C_3   0.480843 0.199031 0.077205 -0.377195
C38   C     C_3   0.387267 0.140585 0.026942 -0.390899
C39   C     C_3   0.350371 0.037004 0.072771 -0.822784
C40   C     C_R   0.464180 0.188340 0.501680 -0.110734
C41   C     C_R   0.535820 0.811660 0.498320 -0.110734
C42   C     C_R   0.644399 0.969121 0.530139 0.274585
C43   C     C_R   0.355601 0.030879 0.469861 0.274585
C44   C     C_R   0.636104 0.861819 0.522539 -0.202657
H1    H     H_    0.986764 0.337006 0.378647 0.167728
H2    H     H_    0.706920 0.817604 0.537732 0.187444
H3    H     H_    0.178749 0.396563 0.424666 0.132436
H4    H     H_    0.821251 0.603437 0.575334 0.132436
H5    H     H_    0.217592 0.644168 0.609202 0.182092
H6    H     H_    0.782408 0.355832 0.390798 0.182092
H7    H     H_    0.684772 0.949609 0.857904 0.278256
H8    H     H_    0.577611 0.013015 0.924235 0.257856
H9    H     H_    0.715135 0.004386 0.966050 0.258195
H10   H     H_    0.583867 0.876176 0.043331 0.222875
H11   H     H_    0.686136 0.810673 0.974715 0.243629
H12   H     H_    0.013236 0.662993 0.621353 0.167728
H13   H     H_    0.553054 0.795869 0.852484 0.250283
H14   H     H_    0.443513 0.847042 0.925152 0.229859
H15   H     H_    0.422389 0.986985 0.075765 0.257855
H16   H     H_    0.315228 0.050391 0.142095 0.278256
H17   H     H_    0.284866 0.995613 0.033950 0.258195
H18   H     H_    0.313864 0.189326 0.025285 0.243629
H19   H     H_    0.416134 0.123824 0.956669 0.222875
H20   H     H_    0.556488 0.152958 0.074848 0.229859
H21   H     H_    0.446946 0.204131 0.147516 0.250283
H22   H     H_    0.448288 0.651159 0.228291 0.151633
H23   H     H_    0.551712 0.348840 0.771709 0.151633
H24   H     H_    0.455256 0.751959 0.094259 0.146190
H25   H     H_    0.544744 0.248041 0.905741 0.146191
H26   H     H_    0.631708 0.173638 0.541603 0.207995
H27   H     H_    0.368292 0.826362 0.458397 0.207995
H28   H     H_    0.293080 0.182396 0.462268 0.187444
N1    N     N_R   0.207800 0.519350 0.516680 -0.114151
N2    N     N_R   0.792200 0.480650 0.483320 -0.114151
O1    O     O_R   0.421700 0.658830 0.504450 -0.614811
O2    O     O_R   0.578300 0.341170 0.495550 -0.614811
O3    O     O_R   0.609310 0.646410 0.493750 -0.633065
O4    O     O_R   0.390690 0.353590 0.506250 -0.633065
O5    O     O_R   0.406180 0.506230 0.637500 -0.587278
O6    O     O_R   0.593820 0.493770 0.362500 -0.587278
O7    O     O_R   0.593800 0.493820 0.626800 -0.629662
O8    O     O_R   0.406200 0.506180 0.373200 -0.629662
Zn1   Zn    Zn3+2 0.374730 0.508290 0.507150 0.980174
Zn2   Zn    Zn3+2 0.625270 0.491710 0.492850 0.980174

loop_
_geom_bond_atom_site_label_1
_geom_bond_atom_site_label_2
_ccdc_geom_bond_type
C11   C14   A    
O5    Zn1   S    
C37   C38   S    
C13   H3    S    
O1    Zn1   S    
C33   H14   S    
C39   H15   S    
C21   C24   A    
C7    C15   A    
C3    C41   A    
C20   C22   A    
O7    Zn2   S    
C11   N2    A    
C16   C21   S    
O4    Zn1   S    
C14   C15   A    
C10   N1    A    
C9    N2    A    
C36   H8    S    
C6    C42   A    
C27   C29   A    
C1    O1    A    
C5    C6    A    
C12   C40   S    
C36   H7    S    
C44   H2    S    
Br1   C18   S    
C2    C40   A    
C25   C27   A    
C4    H26   S    
C39   H16   S    
C37   H20   S    
C23   C30   A    
C42   C44   A    
C2    C43   A    
O6    Zn2   S    
C34   C37   S    
C35   C36   S    
O8    Zn1   S    
C3    H27   S    
C23   C31   A    
C35   H10   S    
C1    C41   S    
C12   O2    A    
C28   C30   A    
C7    H1    S    
C1    O3    A    
C27   C28   A    
C17   O6    A    
C39   H17   S    
C19   C30   A    
C35   H11   S    
C16   O7    A    
C13   N1    A    
C11   H4    S    
C4    C6    A    
C8    C10   A    
C31   H24   S    
C5    C43   A    
C38   H19   S    
C22   H22   S    
C18   C20   A    
C16   O5    A    
C24   H23   S    
C38   C39   S    
C37   H21   S    
C9    H6    S    
C41   C44   A    
N2    Zn2   S    
C3    C5    A    
C18   C29   A    
C17   O8    A    
C36   H9    S    
C4    C40   A    
C33   H13   S    
C2    H28   S    
C25   C31   A    
Br3   C42   S    
C29   C34   A    
C26   C32   A    
C24   C26   A    
C33   C35   S    
C26   C28   A    
C7    C9    A    
C23   C33   S    
C32   C34   A    
C13   C15   A    
C19   C21   A    
O3    Zn2   S    
C32   H25   S    
C8    H12   S    
C10   H5    S    
N1    Zn1   S    
C22   C25   A    
O2    Zn2   S    
C12   O4    A    
C17   C20   S    
C8    C14   A    
Br2   C19   S    
C38   H18   S    
Br4   C43   S    
