data_mof_unit_37512.cif
_audit_creation_date              2012-12-10T17:39:01-0500
_audit_creation_method            fapswitch 2.2
_symmetry_space_group_name_H-M    P1
_symmetry_Int_Tables_number       1
_space_group_crystal_system       triclinic
_cell_length_a                    25.615073
_cell_length_b                    34.317251
_cell_length_c                    21.293193
_cell_angle_alpha                 90.00821
_cell_angle_beta                  126.239197
_cell_angle_gamma                 90.119955
_cell_volume                      15096.6942927

loop_
_atom_site_label
_atom_site_type_symbol
_atom_type_description
_atom_site_fract_x
_atom_site_fract_y
_atom_site_fract_z
_atom_type_partial_charge
C1    C     C_R   0.858833 0.749786 0.000761 0.930364
C2    C     C_R   0.140807 0.250646 0.998501 0.945069
C3    C     C_R   0.141118 0.749822 0.999287 0.918942
C4    C     C_R   0.859233 0.250458 0.001411 0.951448
C5    C     C_R   0.359354 0.249291 0.001639 0.935002
C6    C     C_R   0.640620 0.750608 0.998299 0.949735
C7    C     C_R   0.640994 0.249739 0.998963 0.923940
C8    C     C_R   0.359251 0.750458 0.001412 0.953796
C9    C     C_3   0.236037 0.713257 0.005278 0.266072
C10   C     C_3   0.769838 0.287450 0.006721 0.266182
C11   C     C_3   0.769968 0.713530 0.008270 0.256532
C12   C     C_3   0.236477 0.287427 0.003762 0.261377
C13   C     C_3   0.730733 0.213106 0.993984 0.254877
C14   C     C_3   0.265323 0.787556 0.997265 0.271261
C15   C     C_3   0.264076 0.212559 0.996274 0.266520
C16   C     C_3   0.728037 0.787518 0.988458 0.258183
C17   C     C_3   0.736040 0.234420 0.934289 0.247842
C18   C     C_3   0.262696 0.770776 0.062470 0.246348
C19   C     C_3   0.261410 0.229879 0.061034 0.248550
C20   C     C_3   0.734333 0.764742 0.930883 0.256356
C21   C     C_3   0.238584 0.730016 0.940100 0.240513
C22   C     C_3   0.764528 0.266286 0.066532 0.248189
C23   C     C_3   0.763903 0.736357 0.065928 0.248448
C24   C     C_3   0.238936 0.269986 0.938857 0.259737
C25   C     C_3   0.802758 0.250597 0.002580 -0.292407
C26   C     C_3   0.198208 0.750051 0.999427 -0.287014
C27   C     C_3   0.197680 0.250871 0.997915 -0.297930
C28   C     C_3   0.801681 0.750104 0.000685 -0.290659
C29   C     C_3   0.302972 0.750691 0.002879 -0.298141
C30   C     C_3   0.697805 0.249945 0.998345 -0.284163
C31   C     C_3   0.696698 0.750889 0.996422 -0.290543
C32   C     C_3   0.302660 0.249058 0.002266 -0.290035
C33   C     C_3   0.796561 0.229372 0.062353 0.280357
C34   C     C_3   0.201701 0.766831 0.934278 0.269263
C35   C     C_3   0.201185 0.233428 0.933153 0.276743
C36   C     C_3   0.794545 0.772992 0.058235 0.278361
C37   C     C_3   0.299614 0.733975 0.068158 0.278109
C38   C     C_3   0.703933 0.271177 0.938529 0.279184
C39   C     C_3   0.703549 0.728172 0.938572 0.281311
C40   C     C_3   0.299319 0.266323 0.067135 0.269233
C41   C     C_R   0.708241 0.730358 0.334865 0.439322
C42   C     C_R   0.296807 0.275382 0.665482 0.427185
C43   C     C_R   0.290990 0.731338 0.664536 0.441376
C44   C     C_R   0.701830 0.275582 0.335881 0.419969
C45   C     C_R   0.207813 0.229869 0.335760 0.442391
C46   C     C_R   0.795632 0.773999 0.664681 0.424110
C47   C     C_R   0.794269 0.227231 0.664797 0.438071
C48   C     C_R   0.205631 0.773195 0.334832 0.421990
C49   C     C_R   0.648027 0.749001 0.296039 -0.292190
C50   C     C_R   0.353774 0.252627 0.704058 -0.258420
C51   C     C_R   0.352457 0.748527 0.703625 -0.278019
C52   C     C_R   0.645736 0.251888 0.295922 -0.265051
C53   C     C_R   0.148178 0.249236 0.296535 -0.281436
C54   C     C_R   0.853655 0.752314 0.704006 -0.259831
C55   C     C_R   0.851703 0.249241 0.703759 -0.283714
C56   C     C_R   0.146353 0.752595 0.295913 -0.259779
C57   C     C_R   0.628272 0.767632 0.337094 0.422709
C58   C     C_R   0.376386 0.236706 0.663439 0.441023
C59   C     C_R   0.374627 0.764045 0.662524 0.412147
C60   C     C_R   0.623914 0.233567 0.335751 0.447282
C61   C     C_R   0.129302 0.269053 0.337467 0.400767
C62   C     C_R   0.876493 0.736196 0.663740 0.439564
C63   C     C_R   0.866952 0.272669 0.662855 0.440858
C64   C     C_R   0.122871 0.737980 0.336574 0.444190
C65   C     C_R   0.672815 0.773237 0.418231 -0.135907
C66   C     C_R   0.337876 0.239309 0.581765 -0.109967
C67   C     C_R   0.330554 0.770376 0.581530 -0.143902
C68   C     C_R   0.663323 0.234239 0.417968 -0.115867
C69   C     C_R   0.174578 0.275484 0.418322 -0.149416
C70   C     C_R   0.836886 0.736996 0.581643 -0.114331
C71   C     C_R   0.821283 0.277586 0.581672 -0.137914
C72   C     C_R   0.162086 0.740237 0.418424 -0.112943
C73   C     C_R   0.733711 0.754238 0.458665 -0.149605
C74   C     C_R   0.277141 0.258065 0.541363 -0.157812
C75   C     C_R   0.267335 0.754230 0.541141 -0.142446
C76   C     C_R   0.721426 0.256175 0.458813 -0.155241
C77   C     C_R   0.234855 0.255922 0.459012 -0.143148
C78   C     C_R   0.776323 0.756252 0.541011 -0.154585
C79   C     C_R   0.764105 0.254578 0.541167 -0.153242
C80   C     C_R   0.224673 0.756803 0.458877 -0.154989
C81   C     C_R   0.751123 0.732177 0.416993 -0.114472
C82   C     C_R   0.258511 0.278619 0.583182 -0.141295
C83   C     C_R   0.247776 0.733828 0.582471 -0.116740
C84   C     C_R   0.737069 0.279745 0.417411 -0.134173
C85   C     C_R   0.252006 0.233100 0.417743 -0.114229
C86   C     C_R   0.758067 0.777284 0.582616 -0.136973
C87   C     C_R   0.750068 0.229561 0.582735 -0.108841
C88   C     C_R   0.244569 0.775871 0.417153 -0.140944
C89   C     C_R   0.104718 0.749772 0.211378 0.889738
C90   C     C_R   0.894486 0.249943 0.788570 0.925230
C91   C     C_R   0.895061 0.749849 0.788579 0.885493
C92   C     C_R   0.105646 0.249873 0.211558 0.929853
C93   C     C_R   0.604801 0.249794 0.211355 0.887238
C94   C     C_R   0.394655 0.749889 0.788524 0.919184
C95   C     C_R   0.395233 0.249756 0.788570 0.888320
C96   C     C_R   0.605439 0.749979 0.211395 0.923419
C97   C     C_R   0.658681 0.798199 0.459341 0.387650
C98   C     C_R   0.358643 0.223033 0.539297 0.368606
C99   C     C_R   0.347320 0.793221 0.540246 0.366674
C100  C     C_R   0.645947 0.213704 0.460565 0.371364
C101  C     C_R   0.161401 0.301220 0.459412 0.385852
C102  C     C_R   0.856107 0.718551 0.539060 0.370805
C103  C     C_R   0.830186 0.305974 0.540499 0.398194
C104  C     C_R   0.140370 0.725537 0.460998 0.369563
C105  C     C_R   0.702250 0.801206 0.540787 0.412066
C106  C     C_R   0.313629 0.215173 0.459373 0.360045
C107  C     C_R   0.303310 0.797212 0.459155 0.434082
C108  C     C_R   0.691459 0.208155 0.541247 0.356444
C109  C     C_R   0.202425 0.302341 0.541249 0.413331
C110  C     C_R   0.811357 0.712831 0.458460 0.359332
C111  C     C_R   0.787568 0.307482 0.458831 0.410662
C112  C     C_R   0.184886 0.717476 0.540773 0.364776
C113  C     C_R   0.941872 0.081890 0.944271 0.392526
C114  C     C_R   0.057103 0.918134 0.054163 0.393946
C115  C     C_R   0.056670 0.082079 0.054403 0.394201
C116  C     C_R   0.941993 0.917850 0.944901 0.394207
C117  C     C_R   0.442898 0.581903 0.946040 0.393900
C118  C     C_R   0.557824 0.418035 0.054614 0.393925
C119  C     C_R   0.557988 0.582074 0.055299 0.393855
C120  C     C_R   0.442471 0.417935 0.946066 0.393959
C121  C     C_R   0.999275 0.102031 0.999425 -0.259572
C122  C     C_R   0.999594 0.897944 0.999620 -0.258038
C123  C     C_R   0.500482 0.602036 0.000497 -0.258323
C124  C     C_R   0.500133 0.397938 0.000177 -0.257129
C125  C     C_R   0.056349 0.041168 0.056203 0.015348
C126  C     C_R   0.942378 0.958788 0.942919 0.015011
C127  C     C_R   0.942299 0.040943 0.942654 0.017145
C128  C     C_R   0.056555 0.959053 0.056093 0.014233
C129  C     C_R   0.557537 0.541124 0.056999 0.015206
C130  C     C_R   0.443010 0.458862 0.944192 0.014990
C131  C     C_R   0.443215 0.540986 0.944182 0.015392
C132  C     C_R   0.557438 0.458967 0.056698 0.014206
C133  C     C_R   0.999336 0.020550 0.999494 -0.025042
C134  C     C_R   0.999412 0.979426 0.999521 -0.024597
C135  C     C_R   0.500362 0.520548 0.000505 -0.024561
C136  C     C_R   0.500280 0.479421 0.000447 -0.024481
C137  C     C_R   0.112029 0.020501 0.113283 -0.188936
C138  C     C_R   0.886755 0.979465 0.885693 -0.191962
C139  C     C_R   0.886740 0.020008 0.885510 -0.191108
C140  C     C_R   0.112147 0.979968 0.113194 -0.189465
C141  C     C_R   0.613206 0.520364 0.113870 -0.188701
C142  C     C_R   0.387282 0.479604 0.887437 -0.191645
C143  C     C_R   0.387397 0.520136 0.887405 -0.190384
C144  C     C_R   0.613176 0.479822 0.113683 -0.190552
C145  C     C_R   0.999783 0.855672 0.999804 0.954741
C146  C     C_R   0.999524 0.144321 0.999600 0.954515
C147  C     C_R   0.500034 0.355671 0.000034 0.953877
C148  C     C_R   0.500339 0.644322 0.000309 0.953157
C149  C     C_R   0.000153 0.644322 0.999412 0.845271
C150  C     C_R   0.000035 0.355570 0.999708 0.800042
C151  C     C_R   0.499913 0.144390 0.999858 0.854721
C152  C     C_R   0.500215 0.855649 0.001621 0.921673
C153  C     C_R   0.999732 0.418358 0.053428 0.404551
C154  C     C_R   0.999477 0.582080 0.938180 0.406154
C155  C     C_R   0.008258 0.416875 0.944001 0.413158
C156  C     C_R   0.009574 0.581771 0.060325 0.425287
C157  C     C_R   0.529643 0.918275 0.072053 0.392718
C158  C     C_R   0.494108 0.082144 0.936134 0.402248
C159  C     C_R   0.484139 0.917546 0.934014 0.441917
C160  C     C_R   0.506711 0.082169 0.059844 0.415456
C161  C     C_R   0.001832 0.397608 0.998106 -0.259394
C162  C     C_R   0.001775 0.601936 0.997919 -0.285595
C163  C     C_R   0.502656 0.898007 0.001996 -0.294593
C164  C     C_R   0.500428 0.102124 0.998262 -0.289463
C165  C     C_R   0.007649 0.458243 0.942698 -0.114250
C166  C     C_R   0.014270 0.540717 0.063866 -0.127230
C167  C     C_R   0.011610 0.458594 0.060760 -0.098786
C168  C     C_R   0.007320 0.541061 0.943392 -0.114211
C169  C     C_R   0.485961 0.958626 0.933603 -0.130933
C170  C     C_R   0.511675 0.041191 0.063711 -0.129021
C171  C     C_R   0.525011 0.959257 0.070849 -0.133901
C172  C     C_R   0.494386 0.040878 0.936733 -0.107620
C173  C     C_R   0.011167 0.479034 0.002897 -0.167052
C174  C     C_R   0.011203 0.520313 0.003578 -0.160870
C175  C     C_R   0.505228 0.979484 0.001912 -0.159912
C176  C     C_R   0.504036 0.020600 0.000964 -0.163332
C177  C     C_R   0.006215 0.479291 0.884494 0.440018
C178  C     C_R   0.022320 0.519670 0.126378 0.424209
C179  C     C_R   0.023970 0.478677 0.125843 0.449812
C180  C     C_R   0.011184 0.520220 0.888889 0.483861
C181  C     C_R   0.470434 0.978962 0.867022 0.418847
C182  C     C_R   0.523046 0.020268 0.128065 0.440690
C183  C     C_R   0.538125 0.980215 0.135982 0.423884
C184  C     C_R   0.484367 0.019246 0.873734 0.481614
H1    H     H_    0.155936 0.035568 0.158212 0.182076
H2    H     H_    0.842825 0.964393 0.840816 0.183127
H3    H     H_    0.842798 0.034871 0.840491 0.182250
H4    H     H_    0.156152 0.965091 0.158037 0.183461
H5    H     H_    0.657247 0.535367 0.158670 0.183462
H6    H     H_    0.343166 0.464591 0.842830 0.182953
H7    H     H_    0.343376 0.535061 0.842751 0.182372
H8    H     H_    0.657191 0.464889 0.158350 0.183973
O1    O     O_3   1.000000 0.749960 0.000000 -0.517920
O2    O     O_3   1.000000 0.250040 0.000000 -0.517995
O3    O     O_3   0.500000 0.249960 0.000000 -0.517957
O4    O     O_3   0.500000 0.750040 0.000000 -0.522338
O5    O     O_R   0.859810 0.727030 0.954180 -0.619587
O6    O     O_R   0.140190 0.272970 0.045820 -0.622900
O7    O     O_R   0.140190 0.727030 0.045820 -0.621916
O8    O     O_R   0.859810 0.272970 0.954180 -0.614015
O9    O     O_R   0.359810 0.227030 0.954180 -0.617649
O10   O     O_R   0.640190 0.772970 0.045820 -0.622392
O11   O     O_R   0.640190 0.227030 0.045820 -0.625701
O12   O     O_R   0.359810 0.772970 0.954180 -0.613627
O13   O     O_R   0.056680 0.772880 0.174890 -0.681555
O14   O     O_R   0.943320 0.227120 0.825110 -0.670794
O15   O     O_R   0.943320 0.772880 0.825110 -0.681701
O16   O     O_R   0.056680 0.227120 0.174890 -0.656697
O17   O     O_R   0.556680 0.272880 0.174890 -0.683437
O18   O     O_R   0.443320 0.727120 0.825110 -0.658857
O19   O     O_R   0.443320 0.272880 0.825110 -0.682714
O20   O     O_R   0.556680 0.727120 0.174890 -0.658842
O21   O     O_R   0.992160 0.837390 0.045890 -0.646688
O22   O     O_R   0.007840 0.162610 0.954110 -0.651995
O23   O     O_R   0.007840 0.837390 0.954110 -0.649354
O24   O     O_R   0.992160 0.162610 0.045890 -0.649659
O25   O     O_R   0.492160 0.337390 0.045890 -0.650003
O26   O     O_R   0.507840 0.662610 0.954110 -0.650215
O27   O     O_R   0.507840 0.337390 0.954110 -0.648876
O28   O     O_R   0.492160 0.662610 0.045890 -0.652680
O29   O     O_R   0.946340 0.662530 0.954150 -0.642575
O30   O     O_R   0.053660 0.337470 0.045850 -0.699064
O31   O     O_R   0.053660 0.662530 0.045850 -0.622642
O32   O     O_R   0.946340 0.337470 0.954150 -0.599357
O33   O     O_R   0.446340 0.162530 0.954150 -0.637746
O34   O     O_R   0.553660 0.837470 0.045850 -0.665401
O35   O     O_R   0.553660 0.162530 0.045850 -0.628902
O36   O     O_R   0.446340 0.837470 0.954150 -0.607376
O37   O     O_R   0.118180 0.727030 0.174870 -0.602091
O38   O     O_R   0.881820 0.272970 0.825130 -0.617124
O39   O     O_R   0.881820 0.727030 0.825130 -0.611453
O40   O     O_R   0.118180 0.272970 0.174870 -0.632007
O41   O     O_R   0.618180 0.227030 0.174870 -0.603805
O42   O     O_R   0.381820 0.772970 0.825130 -0.617211
O43   O     O_R   0.381820 0.227030 0.825130 -0.608381
O44   O     O_R   0.618180 0.772970 0.174870 -0.631466
O45   O     O_R   0.905650 0.772880 0.045890 -0.634837
O46   O     O_R   0.094350 0.227120 0.954110 -0.624853
O47   O     O_R   0.094350 0.772880 0.954110 -0.638321
O48   O     O_R   0.905650 0.227120 0.045890 -0.628538
O49   O     O_R   0.405650 0.272880 0.045890 -0.638549
O50   O     O_R   0.594350 0.727120 0.954110 -0.627266
O51   O     O_R   0.594350 0.272880 0.954110 -0.634676
O52   O     O_R   0.405650 0.727120 0.045890 -0.630454
Zn1   Zn    Zn3+2 0.076680 0.717210 0.065490 1.002091
Zn2   Zn    Zn3+2 0.923320 0.282790 0.934510 1.019886
Zn3   Zn    Zn3+2 0.923320 0.717210 0.934510 0.991001
Zn4   Zn    Zn3+2 0.076680 0.282790 0.065490 0.969999
Zn5   Zn    Zn3+2 0.576680 0.217210 0.065490 0.999247
Zn6   Zn    Zn3+2 0.423320 0.782790 0.934510 1.028951
Zn7   Zn    Zn3+2 0.423320 0.217210 0.934510 1.000074
Zn8   Zn    Zn3+2 0.576680 0.782790 0.065490 0.985450
Zn9   Zn    Zn3+2 0.988820 0.782710 0.065530 0.960356
Zn10  Zn    Zn3+2 0.011180 0.217290 0.934470 0.980252
Zn11  Zn    Zn3+2 0.011180 0.782710 0.934470 0.949822
Zn12  Zn    Zn3+2 0.988820 0.217290 0.065530 0.988237
Zn13  Zn    Zn3+2 0.488820 0.282710 0.065530 0.957275
Zn14  Zn    Zn3+2 0.511180 0.717290 0.934470 0.979100
Zn15  Zn    Zn3+2 0.511180 0.282710 0.934470 0.954032
Zn16  Zn    Zn3+2 0.488820 0.717290 0.065530 0.986245
O53   O     O_3   0.965679 0.403425 0.080364 -0.580929
C185  C     C_3   0.000543 0.374812 0.138672 0.209932
H9    H     H_    0.052792 0.382146 0.180651 0.137483
H10   H     H_    0.995442 0.345840 0.112699 0.125223
C186  C     C_3   0.970313 0.370976 0.182025 -0.825555
H11   H     H_    0.917923 0.364339 0.140339 0.266067
H12   H     H_    0.992983 0.346720 0.224351 0.238666
H13   H     H_    0.976292 0.398590 0.212797 0.273134
O54   O     O_3   0.976396 0.600257 0.867516 -0.557145
C187  C     C_3   0.016982 0.630931 0.875212 0.144949
H14   H     H_    0.068931 0.626533 0.923989 0.118736
H15   H     H_    0.000769 0.659072 0.883685 0.128683
C188  C     C_3   0.009854 0.635141 0.799287 -0.694514
H16   H     H_    0.958415 0.640614 0.750597 0.293261
H17   H     H_    0.039730 0.659914 0.803744 0.179750
H18   H     H_    0.025591 0.608455 0.785819 0.261491
O55   O     O_3   0.006973 0.396443 0.886177 -0.575809
C189  C     C_3   0.056740 0.368150 0.917379 0.174186
H19   H     H_    0.037277 0.339407 0.918121 0.148544
H20   H     H_    0.100447 0.375832 0.976688 0.148963
C190  C     C_3   0.077445 0.362147 0.864446 -0.855395
H21   H     H_    0.108590 0.386375 0.870195 0.223983
H22   H     H_    0.105305 0.334711 0.881455 0.230037
H23   H     H_    0.034853 0.359072 0.803120 0.267446
O56   O     O_3   0.015386 0.602964 0.119602 -0.546588
C191  C     C_3   0.953019 0.611621 0.098662 0.121410
H24   H     H_    0.927952 0.584613 0.096218 0.133249
H25   H     H_    0.921959 0.626223 0.041072 0.151133
C192  C     C_3   0.959894 0.638963 0.159327 -0.747060
H26   H     H_    0.981139 0.667015 0.158578 0.249555
H27   H     H_    0.911807 0.644559 0.146238 0.208611
H28   H     H_    0.991856 0.625898 0.218239 0.270562
O57   O     O_3   0.557148 0.897386 0.140410 -0.555056
C193  C     C_3   0.624881 0.895538 0.178583 0.177816
H29   H     H_    0.647218 0.925020 0.195074 0.121894
H30   H     H_    0.636967 0.881968 0.141251 0.139545
C194  C     C_3   0.655547 0.871256 0.252094 -0.794485
H31   H     H_    0.632818 0.841965 0.237654 0.279942
H32   H     H_    0.708217 0.868023 0.280673 0.188597
H33   H     H_    0.648537 0.885748 0.293069 0.239690
O58   O     O_3   0.475719 0.101841 0.868600 -0.552331
C195  C     C_3   0.524625 0.127728 0.882050 0.161624
H34   H     H_    0.574467 0.117501 0.928576 0.122260
H35   H     H_    0.517579 0.157048 0.897692 0.124604
C196  C     C_3   0.518273 0.133228 0.806888 -0.731840
H36   H     H_    0.468156 0.142095 0.759352 0.300225
H37   H     H_    0.552424 0.156143 0.815245 0.181508
H38   H     H_    0.529494 0.106049 0.789364 0.250050
O59   O     O_3   0.467599 0.896009 0.869407 -0.549775
C197  C     C_3   0.524289 0.881653 0.879987 0.054522
H39   H     H_    0.568599 0.881829 0.941559 0.123473
H40   H     H_    0.534983 0.899780 0.845815 0.144293
C198  C     C_3   0.512605 0.840004 0.849792 -0.707738
H41   H     H_    0.467666 0.838616 0.789485 0.273059
H42   H     H_    0.554086 0.829994 0.850396 0.205130
H43   H     H_    0.507502 0.820138 0.886947 0.219019
O60   O     O_3   0.511263 0.103436 0.118275 -0.550977
C199  C     C_3   0.448041 0.111348 0.095398 0.151846
H44   H     H_    0.418530 0.084281 0.077876 0.128016
H45   H     H_    0.422259 0.131951 0.045636 0.149495
C200  C     C_3   0.452226 0.129738 0.163188 -0.752994
H46   H     H_    0.468317 0.160467 0.170422 0.245346
H47   H     H_    0.403970 0.128694 0.151574 0.188786
H48   H     H_    0.487163 0.113756 0.218010 0.289073
O61   O     O_3   0.886702 0.102454 0.888883 -0.624893
C201  C     C_3   0.849633 0.108747 0.917250 -0.385943
H49   H     H_    0.876295 0.126822 0.971046 0.187523
H50   H     H_    0.834211 0.080782 0.928173 0.167596
H51   H     H_    0.805219 0.124886 0.872503 0.192314
O62   O     O_3   0.112799 0.897578 0.108143 -0.618544
C202  C     C_3   0.148492 0.892010 0.077725 -0.380137
H52   H     H_    0.164683 0.920255 0.068874 0.167413
H53   H     H_    0.120485 0.875209 0.022303 0.187087
H54   H     H_    0.192356 0.874873 0.120154 0.192741
O63   O     O_3   0.112082 0.102921 0.108666 -0.620577
C203  C     C_3   0.147684 0.109321 0.078341 -0.373832
H55   H     H_    0.117920 0.122800 0.019458 0.183221
H56   H     H_    0.169513 0.081763 0.076543 0.165339
H57   H     H_    0.187480 0.129951 0.117214 0.203385
O64   O     O_3   0.886468 0.897052 0.890587 -0.618821
C204  C     C_3   0.850211 0.891376 0.920265 -0.387740
H58   H     H_    0.836156 0.919563 0.932156 0.168664
H59   H     H_    0.876963 0.873209 0.973801 0.190113
H60   H     H_    0.804956 0.875632 0.876004 0.182488
O65   O     O_3   0.387272 0.602551 0.892288 -0.618617
C205  C     C_3   0.352038 0.608434 0.923217 -0.375018
H61   H     H_    0.381349 0.623500 0.980607 0.184692
H62   H     H_    0.332974 0.580435 0.928467 0.164218
H63   H     H_    0.310181 0.627407 0.882886 0.196991
O66   O     O_3   0.613443 0.397409 0.108637 -0.619786
C206  C     C_3   0.649364 0.391871 0.078505 -0.385879
H64   H     H_    0.663889 0.420124 0.067333 0.169437
H65   H     H_    0.622145 0.374008 0.024438 0.189701
H66   H     H_    0.694328 0.375862 0.122171 0.184979
O67   O     O_3   0.613319 0.602825 0.110291 -0.620325
C207  C     C_3   0.650005 0.609031 0.081351 -0.386162
H67   H     H_    0.623123 0.626927 0.027446 0.187971
H68   H     H_    0.665175 0.581030 0.070368 0.168778
H69   H     H_    0.694576 0.625309 0.125742 0.186610
O68   O     O_3   0.386657 0.397220 0.892266 -0.622039
C208  C     C_3   0.351062 0.391657 0.922860 -0.386939
H70   H     H_    0.336927 0.419899 0.934456 0.166923
H71   H     H_    0.378373 0.373793 0.976795 0.188893
H72   H     H_    0.305863 0.375640 0.879321 0.191960
O69   O     O_3   0.989106 0.460598 0.816868 -0.545771
C209  C     C_3   0.042275 0.458406 0.813288 -0.198458
H73   H     H_    0.089183 0.453728 0.871299 0.114883
H74   H     H_    0.044272 0.484441 0.783999 0.189958
H75   H     H_    0.034578 0.433360 0.775917 0.174046
O70   O     O_3   0.035351 0.539417 0.191338 -0.557239
C210  C     C_3   0.991690 0.528417 0.208426 -0.222085
H76   H     H_    0.013372 0.505439 0.253773 0.206434
H77   H     H_    0.943470 0.518789 0.156285 0.122830
H78   H     H_    0.983343 0.553979 0.233259 0.161448
O71   O     O_3   0.041856 0.458139 0.191627 -0.596167
C211  C     C_3   0.110080 0.455837 0.241290 -0.370754
H79   H     H_    0.132346 0.485098 0.263793 0.205993
H80   H     H_    0.129412 0.441870 0.211716 0.147125
H81   H     H_    0.124900 0.437431 0.292021 0.177720
O72   O     O_3   0.023186 0.539512 0.841691 -0.550656
C212  C     C_3   0.090818 0.545999 0.885802 -0.385269
H82   H     H_    0.119012 0.518552 0.909029 0.133571
H83   H     H_    0.107696 0.565789 0.935498 0.164298
H84   H     H_    0.102391 0.559468 0.848055 0.189810
O73   O     O_3   0.430237 0.960783 0.794624 -0.554156
C213  C     C_3   0.453722 0.963106 0.749297 -0.187844
H85   H     H_    0.506994 0.959662 0.784138 0.110459
H86   H     H_    0.437252 0.990355 0.714666 0.206365
H87   H     H_    0.432126 0.938761 0.706780 0.159104
O74   O     O_3   0.521870 0.039231 0.184770 -0.565416
C214  C     C_3   0.470161 0.024598 0.184878 -0.298557
H88   H     H_    0.484160 0.997439 0.219478 0.205992
H89   H     H_    0.425188 0.019567 0.125072 0.131190
H90   H     H_    0.458459 0.046249 0.213438 0.175708
O75   O     O_3   0.558055 0.960558 0.203830 -0.572684
C215  C     C_3   0.616866 0.976395 0.268538 -0.283663
H91   H     H_    0.607547 0.000432 0.295473 0.210859
H92   H     H_    0.649926 0.986528 0.253976 0.130475
H93   H     H_    0.642709 0.953467 0.313532 0.162393
O76   O     O_3   0.491697 0.036761 0.821054 -0.559570
C216  C     C_3   0.557784 0.033747 0.850945 -0.388645
H94   H     H_    0.577766 0.003916 0.871618 0.128381
H95   H     H_    0.587850 0.054366 0.899938 0.177938
H96   H     H_    0.562909 0.041034 0.804100 0.187826
O77   O     O_3   0.727910 0.218345 0.867953 -0.608313
C217  C     C_3   0.662968 0.206766 0.813177 0.077679
H97   H     H_    0.631320 0.232591 0.786381 0.163383
H98   H     H_    0.645066 0.188449 0.839785 0.163808
C218  C     C_3   0.657688 0.183046 0.749332 -0.800070
H99   H     H_    0.690085 0.157335 0.775005 0.239970
H100  H     H_    0.607116 0.172753 0.706973 0.211909
H101  H     H_    0.671669 0.201209 0.718274 0.316379
O78   O     O_3   0.270128 0.791840 0.124385 -0.625231
C219  C     C_3   0.334815 0.804829 0.176415 0.118015
H102  H     H_    0.351935 0.820507 0.145966 0.171514
H103  H     H_    0.367577 0.780046 0.208860 0.180817
C220  C     C_3   0.340079 0.832354 0.235842 -0.842547
H104  H     H_    0.326830 0.816782 0.270281 0.305046
H105  H     H_    0.390604 0.843074 0.276211 0.220003
H106  H     H_    0.307542 0.857693 0.206070 0.230304
O79   O     O_3   0.267509 0.209143 0.122378 -0.610412
C221  C     C_3   0.331512 0.195413 0.174761 0.134896
H107  H     H_    0.363024 0.218854 0.215796 0.171065
H108  H     H_    0.352508 0.184901 0.144767 0.154817
C222  C     C_3   0.332161 0.161978 0.222060 -0.888102
H109  H     H_    0.298963 0.138414 0.183264 0.236499
H110  H     H_    0.381445 0.149442 0.260392 0.213921
H111  H     H_    0.317032 0.172780 0.258159 0.306432
O80   O     O_3   0.725486 0.779573 0.863293 -0.618359
C223  C     C_3   0.659432 0.787750 0.805806 0.089289
H112  H     H_    0.637392 0.804582 0.829305 0.159015
H113  H     H_    0.631826 0.760391 0.779622 0.177273
C224  C     C_3   0.652828 0.811456 0.741168 -0.791479
H114  H     H_    0.672791 0.794860 0.715122 0.317910
H115  H     H_    0.601038 0.817414 0.694825 0.221705
H116  H     H_    0.679146 0.839563 0.764549 0.228767
O81   O     O_3   0.230886 0.708751 0.878306 -0.610747
C225  C     C_3   0.166548 0.695010 0.827823 0.124527
H117  H     H_    0.133740 0.719067 0.791127 0.171549
H118  H     H_    0.148853 0.681847 0.859776 0.156649
C226  C     C_3   0.162808 0.664072 0.774295 -0.893272
H119  H     H_    0.197804 0.640388 0.808778 0.241094
H120  H     H_    0.113518 0.651160 0.737990 0.216299
H121  H     H_    0.173773 0.677478 0.735877 0.305479
O82   O     O_3   0.773589 0.283236 0.132851 -0.620996
C227  C     C_3   0.839413 0.293207 0.188173 0.099052
H122  H     H_    0.860245 0.308510 0.161563 0.164986
H123  H     H_    0.868425 0.266773 0.218145 0.173428
C228  C     C_3   0.845928 0.319910 0.249464 -0.811452
H124  H     H_    0.829156 0.304588 0.280497 0.304526
H125  H     H_    0.897434 0.328411 0.292387 0.223658
H126  H     H_    0.816590 0.346634 0.221750 0.232307
O83   O     O_3   0.773275 0.721529 0.133759 -0.605486
C229  C     C_3   0.839261 0.712702 0.189793 0.090708
H127  H     H_    0.867675 0.739803 0.216119 0.165712
H128  H     H_    0.860077 0.696074 0.164680 0.155279
C230  C     C_3   0.846493 0.688216 0.253954 -0.814843
H129  H     H_    0.816287 0.661516 0.228719 0.234636
H130  H     H_    0.897845 0.679527 0.296507 0.216363
H131  H     H_    0.831087 0.705240 0.284703 0.322050
O84   O     O_3   0.234164 0.289434 0.877047 -0.619343
C231  C     C_3   0.170810 0.303649 0.822242 0.050434
H132  H     H_    0.167929 0.334237 0.836356 0.150334
H133  H     H_    0.132679 0.286486 0.819475 0.172059
C232  C     C_3   0.155582 0.303437 0.741554 -0.732730
H134  H     H_    0.160670 0.273671 0.725531 0.274427
H135  H     H_    0.105244 0.313627 0.697958 0.204594
H136  H     H_    0.189200 0.323247 0.740525 0.269377
O85   O     O_3   0.218218 0.674980 0.010138 -0.612983
C233  C     C_3   0.259071 0.647729 0.008982 0.117409
H137  H     H_    0.310880 0.656732 0.046005 0.178719
H138  H     H_    0.243679 0.643396 0.948694 0.172026
C234  C     C_3   0.254107 0.608657 0.038667 -0.889597
H139  H     H_    0.203115 0.598761 0.002766 0.252878
H140  H     H_    0.283966 0.586715 0.034892 0.209654
H141  H     H_    0.271469 0.611160 0.100167 0.259566
O86   O     O_3   0.794000 0.325386 0.012647 -0.606195
C235  C     C_3   0.757276 0.353014 0.020470 0.092520
H142  H     H_    0.771614 0.353027 0.080811 0.170054
H143  H     H_    0.704256 0.347443 0.979807 0.175273
C236  C     C_3   0.770204 0.393517 0.003389 -0.829919
H144  H     H_    0.755991 0.394796 0.943045 0.260631
H145  H     H_    0.741622 0.415361 0.009652 0.198013
H146  H     H_    0.822341 0.400913 0.044696 0.281292
O87   O     O_3   0.794471 0.675394 0.017949 -0.619517
C237  C     C_3   0.757643 0.648854 0.028156 0.111991
H147  H     H_    0.704623 0.653950 0.986507 0.176745
H148  H     H_    0.771360 0.650881 0.088109 0.172516
C238  C     C_3   0.770938 0.607432 0.015816 -0.903815
H149  H     H_    0.821867 0.599540 0.062010 0.245025
H150  H     H_    0.738835 0.586819 0.018500 0.212776
H151  H     H_    0.761737 0.604654 0.958103 0.264634
O88   O     O_3   0.219294 0.325818 0.008559 -0.615005
C239  C     C_3   0.262128 0.352787 0.010556 0.124481
H152  H     H_    0.250753 0.356272 0.951997 0.154980
H153  H     H_    0.313715 0.343942 0.051296 0.178896
C240  C     C_3   0.254920 0.392336 0.036935 -0.900565
H154  H     H_    0.266594 0.390070 0.095993 0.257529
H155  H     H_    0.288491 0.413610 0.038680 0.211459
H156  H     H_    0.204670 0.403145 0.995988 0.252769
O89   O     O_3   0.706069 0.175201 0.986816 -0.617919
C241  C     C_3   0.743644 0.147581 0.980456 0.122085
H157  H     H_    0.794791 0.147661 0.032828 0.172688
H158  H     H_    0.743197 0.153046 0.928844 0.176360
C242  C     C_3   0.715601 0.107159 0.971330 -0.919710
H159  H     H_    0.665904 0.105599 0.916314 0.252166
H160  H     H_    0.746125 0.085043 0.969222 0.212238
H161  H     H_    0.713936 0.100630 0.021208 0.265671
O90   O     O_3   0.284583 0.825487 0.993048 -0.600965
C243  C     C_3   0.244654 0.853443 0.994132 0.105815
H162  H     H_    0.255909 0.855636 0.052921 0.172690
H163  H     H_    0.192277 0.846562 0.951585 0.172790
C244  C     C_3   0.257191 0.893130 0.973689 -0.846486
H164  H     H_    0.245460 0.892339 0.914464 0.261392
H165  H     H_    0.226464 0.915414 0.974999 0.202626
H166  H     H_    0.308857 0.901363 0.016439 0.268512
O91   O     O_3   0.282500 0.174459 0.991868 -0.610875
C245  C     C_3   0.241545 0.146904 0.992129 0.113911
H167  H     H_    0.189422 0.154339 0.950105 0.175843
H168  H     H_    0.252932 0.144602 0.050839 0.174070
C246  C     C_3   0.252276 0.107100 0.970294 -0.886730
H169  H     H_    0.303122 0.097819 0.013651 0.247257
H170  H     H_    0.219633 0.085365 0.969351 0.211665
H171  H     H_    0.241887 0.108248 0.911776 0.265013
O92   O     O_3   0.701392 0.825006 0.978089 -0.619613
C247  C     C_3   0.736305 0.852639 0.967137 0.119841
H172  H     H_    0.726546 0.848903 0.909377 0.174043
H173  H     H_    0.789425 0.850564 0.012738 0.172150
C248  C     C_3   0.714678 0.893361 0.970254 -0.914422
H174  H     H_    0.723429 0.898240 0.027341 0.256564
H175  H     H_    0.742291 0.915387 0.962558 0.211655
H176  H     H_    0.662283 0.896945 0.922993 0.248239
O93   O     O_3   0.848354 0.208470 0.126224 -0.607934
C249  C     C_3   0.828263 0.190889 0.168780 0.129478
H177  H     H_    0.795611 0.165827 0.136453 0.180089
H178  H     H_    0.802547 0.211580 0.181931 0.188652
C250  C     C_3   0.887464 0.175831 0.245563 -0.868052
H179  H     H_    0.920641 0.200359 0.280457 0.244518
H180  H     H_    0.872349 0.161494 0.279224 0.223615
H181  H     H_    0.913505 0.154323 0.234477 0.262900
O94   O     O_3   0.147282 0.782974 0.865050 -0.619956
C251  C     C_3   0.165626 0.798325 0.819087 0.154224
H182  H     H_    0.196857 0.778008 0.814150 0.193724
H183  H     H_    0.191913 0.826284 0.843776 0.183742
C252  C     C_3   0.105227 0.806274 0.737434 -0.906063
H184  H     H_    0.072444 0.826222 0.740007 0.263544
H185  H     H_    0.118948 0.819989 0.701858 0.225843
H186  H     H_    0.079376 0.778586 0.709146 0.242301
O95   O     O_3   0.146078 0.217190 0.864564 -0.612141
C253  C     C_3   0.162953 0.201431 0.817543 0.157553
H187  H     H_    0.185536 0.172397 0.839565 0.176074
H188  H     H_    0.197081 0.220298 0.815135 0.191592
C254  C     C_3   0.101877 0.196341 0.735087 -0.882356
H189  H     H_    0.078111 0.224971 0.710989 0.249461
H190  H     H_    0.114320 0.183762 0.697442 0.226049
H191  H     H_    0.067636 0.176447 0.735124 0.262821
O96   O     O_3   0.845759 0.795450 0.119779 -0.607039
C255  C     C_3   0.825012 0.814995 0.159825 0.128733
H192  H     H_    0.801443 0.794933 0.177169 0.185635
H193  H     H_    0.790438 0.838565 0.123587 0.181048
C256  C     C_3   0.883385 0.833492 0.233129 -0.886417
H194  H     H_    0.906166 0.855137 0.217405 0.265319
H195  H     H_    0.868026 0.848458 0.265959 0.214174
H196  H     H_    0.919508 0.810801 0.270787 0.250056
O97   O     O_3   0.353846 0.717653 0.137385 -0.618196
C257  C     C_3   0.334998 0.701995 0.182666 0.140092
H197  H     H_    0.308217 0.674333 0.157020 0.189302
H198  H     H_    0.304010 0.722306 0.188050 0.194262
C258  C     C_3   0.394942 0.693150 0.264136 -0.878367
H199  H     H_    0.420224 0.720614 0.294702 0.244444
H200  H     H_    0.380702 0.678007 0.297994 0.230828
H201  H     H_    0.428355 0.674128 0.260968 0.262149
O98   O     O_3   0.651457 0.291857 0.874995 -0.610061
C259  C     C_3   0.670636 0.310096 0.832157 0.138517
H202  H     H_    0.693907 0.289361 0.815600 0.186981
H203  H     H_    0.704884 0.334315 0.865878 0.188385
C260  C     C_3   0.611201 0.327040 0.757985 -0.885590
H204  H     H_    0.588475 0.349222 0.772690 0.264953
H205  H     H_    0.625324 0.341026 0.723028 0.220320
H206  H     H_    0.575458 0.303614 0.722803 0.248508
O99   O     O_3   0.652097 0.706035 0.876526 -0.610167
C261  C     C_3   0.673153 0.685923 0.837334 0.134195
H207  H     H_    0.704165 0.660938 0.872481 0.186131
H208  H     H_    0.700743 0.704992 0.824169 0.187823
C262  C     C_3   0.614517 0.669963 0.760850 -0.872564
H209  H     H_    0.583189 0.694243 0.722596 0.242691
H210  H     H_    0.630568 0.653092 0.730602 0.225481
H211  H     H_    0.586150 0.650499 0.772043 0.264716
O100  O     O_3   0.354463 0.281925 0.136635 -0.617824
C263  C     C_3   0.336990 0.297833 0.183034 0.149981
H212  H     H_    0.304576 0.278242 0.187373 0.189288
H213  H     H_    0.312226 0.326154 0.159139 0.180049
C264  C     C_3   0.397896 0.304967 0.264859 -0.909530
H214  H     H_    0.431162 0.324793 0.262760 0.264162
H215  H     H_    0.384915 0.318526 0.301259 0.220918
H216  H     H_    0.423005 0.277004 0.291958 0.242779
O101  O     O_3   0.727629 0.713333 0.292541 -0.573371
C265  C     C_3   0.692234 0.678667 0.255987 -0.171475
H217  H     H_    0.652434 0.684370 0.193992 0.169694
H218  H     H_    0.672592 0.664631 0.285293 0.119150
H219  H     H_    0.724761 0.657334 0.256287 0.186097
O102  O     O_3   0.273251 0.289858 0.705468 -0.573914
C266  C     C_3   0.316550 0.316922 0.764118 -0.183529
H220  H     H_    0.352958 0.329372 0.756905 0.133337
H221  H     H_    0.341095 0.303343 0.822400 0.170683
H222  H     H_    0.288567 0.341659 0.763187 0.181616
O103  O     O_3   0.271842 0.714616 0.707247 -0.559689
C267  C     C_3   0.298827 0.676916 0.731102 -0.192619
H223  H     H_    0.351822 0.677928 0.776539 0.158812
H224  H     H_    0.287950 0.658800 0.681318 0.141883
H225  H     H_    0.277722 0.662187 0.757612 0.193628
O104  O     O_3   0.730416 0.288428 0.300509 -0.576039
C268  C     C_3   0.689906 0.313277 0.236219 -0.168444
H226  H     H_    0.648847 0.325979 0.233889 0.133045
H227  H     H_    0.671315 0.297464 0.181233 0.167317
H228  H     H_    0.719484 0.337796 0.239288 0.191058
O105  O     O_3   0.224357 0.210163 0.293024 -0.561591
C269  C     C_3   0.194943 0.172943 0.272833 -0.199557
H229  H     H_    0.141693 0.174708 0.229697 0.165890
H230  H     H_    0.206907 0.156432 0.324736 0.140494
H231  H     H_    0.213035 0.156116 0.244961 0.196892
O106  O     O_3   0.769035 0.786135 0.702663 -0.577328
C270  C     C_3   0.809390 0.812782 0.763860 -0.177635
H232  H     H_    0.847864 0.826386 0.761746 0.131201
H233  H     H_    0.831480 0.798229 0.820845 0.170594
H234  H     H_    0.779006 0.836610 0.760934 0.187216
O107  O     O_3   0.778350 0.206449 0.707301 -0.574774
C271  C     C_3   0.817077 0.172647 0.739866 -0.188093
H235  H     H_    0.857594 0.177883 0.801773 0.183337
H236  H     H_    0.836086 0.161776 0.707586 0.118171
H237  H     H_    0.787398 0.148997 0.739489 0.193425
O108  O     O_3   0.231348 0.784873 0.295532 -0.568027
C272  C     C_3   0.191786 0.812624 0.236623 -0.182835
H238  H     H_    0.154464 0.826331 0.240713 0.127351
H239  H     H_    0.168204 0.799005 0.178449 0.171673
H240  H     H_    0.222906 0.836408 0.240643 0.187283
O109  O     O_3   0.566254 0.782500 0.295760 -0.599287
C273  C     C_3   0.525930 0.754803 0.296592 -0.188051
H241  H     H_    0.475680 0.765860 0.259599 0.185701
H242  H     H_    0.539630 0.750620 0.356393 0.175766
H243  H     H_    0.526335 0.726278 0.272043 0.167583
O110  O     O_3   0.429131 0.211752 0.701532 -0.601867
C274  C     C_3   0.487893 0.232915 0.741516 -0.188080
H244  H     H_    0.511972 0.231502 0.805101 0.167206
H245  H     H_    0.483061 0.263874 0.722806 0.150177
H246  H     H_    0.520689 0.218062 0.731612 0.178820
O111  O     O_3   0.438894 0.774962 0.703548 -0.614066
C275  C     C_3   0.473717 0.743907 0.701227 -0.200854
H247  H     H_    0.525878 0.751200 0.740205 0.177899
H248  H     H_    0.460199 0.739727 0.641515 0.181437
H249  H     H_    0.466887 0.716132 0.722570 0.167318
O112  O     O_3   0.569352 0.209869 0.294961 -0.572838
C276  C     C_3   0.512365 0.232593 0.258086 -0.199538
H250  H     H_    0.487144 0.232238 0.194221 0.177502
H251  H     H_    0.520074 0.263345 0.278998 0.140858
H252  H     H_    0.478806 0.218690 0.267886 0.170613
O113  O     O_3   0.066643 0.282942 0.296742 -0.623482
C277  C     C_3   0.028774 0.255451 0.302662 -0.215025
H253  H     H_    0.978210 0.265983 0.267627 0.173318
H254  H     H_    0.045230 0.252340 0.363855 0.176327
H255  H     H_    0.028726 0.226554 0.278882 0.171266
O114  O     O_3   0.932435 0.713893 0.704005 -0.597687
C278  C     C_3   0.988153 0.737937 0.741459 -0.200701
H256  H     H_    0.015197 0.735268 0.805444 0.183107
H257  H     H_    0.978584 0.769295 0.724375 0.147081
H258  H     H_    0.020860 0.726772 0.727994 0.172032
O115  O     O_3   0.925269 0.292599 0.704141 -0.591191
C279  C     C_3   0.971034 0.270356 0.703180 -0.231007
H259  H     H_    0.016969 0.287028 0.733851 0.174929
H260  H     H_    0.955314 0.264958 0.642752 0.174361
H261  H     H_    0.981081 0.242224 0.734291 0.176689
O116  O     O_3   0.068650 0.713967 0.298271 -0.587726
C280  C     C_3   0.011247 0.736199 0.260620 -0.182024
H262  H     H_    0.986415 0.735917 0.196863 0.167425
H263  H     H_    0.018182 0.766857 0.281698 0.145376
H264  H     H_    0.978017 0.721506 0.270125 0.181904
O117  O     O_3   0.600374 0.818203 0.420689 -0.552576
C281  C     C_3   0.607882 0.856319 0.401527 0.156966
H265  H     H_    0.647866 0.858937 0.394992 0.087458
H266  H     H_    0.617034 0.876746 0.447317 0.151660
C282  C     C_3   0.545266 0.869497 0.325814 -0.740834
H267  H     H_    0.503880 0.865425 0.328997 0.241676
H268  H     H_    0.548969 0.900858 0.316006 0.211161
H269  H     H_    0.536211 0.852868 0.275607 0.295619
O118  O     O_3   0.423658 0.216028 0.574828 -0.580784
C283  C     C_3   0.448547 0.247247 0.556335 0.109953
H270  H     H_    0.446130 0.275070 0.581488 0.119469
H271  H     H_    0.421394 0.250766 0.492201 0.158991
C284  C     C_3   0.518855 0.239432 0.589753 -0.854478
H272  H     H_    0.523798 0.210188 0.571574 0.276008
H273  H     H_    0.536405 0.261974 0.568906 0.205349
H274  H     H_    0.549253 0.240772 0.653961 0.237524
O119  O     O_3   0.408932 0.808744 0.576628 -0.553632
C285  C     C_3   0.413741 0.845117 0.610946 0.197324
H275  H     H_    0.393333 0.844295 0.644841 0.136790
H276  H     H_    0.388819 0.868048 0.566065 0.122734
C286  C     C_3   0.484699 0.856854 0.665260 -0.825068
H277  H     H_    0.504392 0.861298 0.631265 0.251979
H278  H     H_    0.489801 0.884424 0.695675 0.187013
H279  H     H_    0.513075 0.833795 0.709286 0.273822
O120  O     O_3   0.584834 0.197658 0.423763 -0.558995
C287  C     C_3   0.548231 0.221626 0.438389 0.121024
H280  H     H_    0.535087 0.249235 0.404936 0.115837
H281  H     H_    0.574725 0.228998 0.501182 0.163240
C288  C     C_3   0.486698 0.200270 0.413199 -0.827022
H282  H     H_    0.498981 0.174208 0.450387 0.255508
H283  H     H_    0.454936 0.219761 0.418375 0.231100
H284  H     H_    0.460227 0.190869 0.351909 0.251387
O121  O     O_3   0.106773 0.324547 0.421113 -0.549040
C289  C     C_3   0.116209 0.357355 0.388314 0.162797
H285  H     H_    0.100194 0.350776 0.328477 0.178571
H286  H     H_    0.167573 0.366988 0.420974 0.061920
C290  C     C_3   0.075886 0.391023 0.384661 -0.840186
H287  H     H_    0.024433 0.381988 0.352417 0.265319
H288  H     H_    0.093691 0.400054 0.444234 0.253209
H289  H     H_    0.079074 0.416321 0.354718 0.212688
O122  O     O_3   0.917967 0.703847 0.576016 -0.559756
C291  C     C_3   0.953738 0.729115 0.562027 0.115216
H290  H     H_    0.965854 0.756464 0.596110 0.116672
H291  H     H_    0.927026 0.736942 0.499451 0.162693
C292  C     C_3   0.015992 0.709016 0.586807 -0.814018
H292  H     H_    0.004570 0.683881 0.547764 0.256398
H293  H     H_    0.047742 0.729746 0.583911 0.229166
H294  H     H_    0.042185 0.698344 0.647268 0.251598
O123  O     O_3   0.881627 0.331964 0.579896 -0.552750
C293  C     C_3   0.860964 0.367704 0.591716 0.123303
H295  H     H_    0.816655 0.365163 0.590064 0.097496
H296  H     H_    0.851864 0.388761 0.546818 0.161110
C294  C     C_3   0.914486 0.384873 0.670111 -0.700879
H297  H     H_    0.960308 0.385869 0.675515 0.234561
H298  H     H_    0.901427 0.414961 0.675134 0.228178
H299  H     H_    0.920981 0.367134 0.717788 0.295864
O124  O     O_3   0.074957 0.720433 0.425886 -0.581463
C295  C     C_3   0.052966 0.753014 0.444921 0.110549
H300  H     H_    0.058434 0.780312 0.420945 0.118982
H301  H     H_    0.080180 0.756323 0.509094 0.160029
C296  C     C_3   0.981840 0.747876 0.410585 -0.855232
H302  H     H_    0.973478 0.718892 0.426286 0.278193
H303  H     H_    0.966674 0.771036 0.433051 0.205489
H304  H     H_    0.951904 0.750358 0.346535 0.234303
O125  O     O_3   0.689223 0.827983 0.578472 -0.545219
C297  C     C_3   0.727315 0.861789 0.595038 0.122220
H305  H     H_    0.724218 0.872301 0.543488 0.072664
H306  H     H_    0.779137 0.856090 0.641458 0.140288
C298  C     C_3   0.704427 0.894325 0.621939 -0.818017
H307  H     H_    0.707381 0.885041 0.673861 0.254496
H308  H     H_    0.735259 0.920552 0.637178 0.203789
H309  H     H_    0.653475 0.901975 0.574836 0.243991
O126  O     O_3   0.332287 0.192951 0.421161 -0.561300
C299  C     C_3   0.346198 0.154397 0.450813 0.158041
H310  H     H_    0.305783 0.141951 0.450429 0.109675
H311  H     H_    0.391319 0.153306 0.511140 0.191591
C300  C     C_3   0.356673 0.128382 0.401337 -0.862765
H312  H     H_    0.394999 0.140787 0.398041 0.265576
H313  H     H_    0.371905 0.098929 0.427786 0.208751
H314  H     H_    0.311295 0.125399 0.341785 0.250916
O127  O     O_3   0.318895 0.822565 0.422001 -0.538517
C301  C     C_3   0.286571 0.858380 0.409488 0.124441
H315  H     H_    0.289565 0.868354 0.461265 0.077285
H316  H     H_    0.234385 0.855819 0.361271 0.140908
C302  C     C_3   0.316217 0.889651 0.388823 -0.813638
H317  H     H_    0.311856 0.881183 0.335591 0.255600
H318  H     H_    0.290687 0.917719 0.377985 0.202478
H319  H     H_    0.368204 0.893564 0.437529 0.253385
O128  O     O_3   0.674877 0.184690 0.579987 -0.566327
C303  C     C_3   0.677360 0.145109 0.563362 0.166779
H320  H     H_    0.728252 0.136235 0.590522 0.116784
H321  H     H_    0.648362 0.139134 0.499752 0.172315
C304  C     C_3   0.649807 0.119953 0.596211 -0.840514
H322  H     H_    0.598858 0.128357 0.569530 0.258208
H323  H     H_    0.651136 0.088804 0.583114 0.202548
H324  H     H_    0.678631 0.123710 0.660232 0.251784
O129  O     O_3   0.184613 0.325401 0.579162 -0.530270
C305  C     C_3   0.213918 0.362562 0.594096 0.159412
H325  H     H_    0.204721 0.375990 0.541311 0.109360
H326  H     H_    0.267172 0.360772 0.637646 0.122693
C306  C     C_3   0.186426 0.389899 0.624095 -0.815862
H327  H     H_    0.196734 0.378881 0.679253 0.242188
H328  H     H_    0.208559 0.419253 0.634752 0.198668
H329  H     H_    0.133196 0.392408 0.580509 0.258559
O130  O     O_3   0.829340 0.690236 0.420193 -0.569324
C307  C     C_3   0.827533 0.650421 0.436177 0.163833
H330  H     H_    0.776607 0.640645 0.406469 0.118566
H331  H     H_    0.854670 0.644468 0.499597 0.170921
C308  C     C_3   0.858491 0.626178 0.406546 -0.836705
H332  H     H_    0.908996 0.636133 0.434260 0.260212
H333  H     H_    0.859131 0.595020 0.421038 0.206487
H334  H     H_    0.830596 0.628977 0.342494 0.246714
O131  O     O_3   0.795561 0.336904 0.420604 -0.547646
C309  C     C_3   0.748528 0.366156 0.398182 0.111552
H335  H     H_    0.746877 0.375355 0.447064 0.080425
H336  H     H_    0.699304 0.355776 0.351039 0.138331
C310  C     C_3   0.764041 0.401779 0.369306 -0.799232
H337  H     H_    0.764774 0.393907 0.319300 0.256945
H338  H     H_    0.726733 0.424530 0.350377 0.206783
H339  H     H_    0.812103 0.413799 0.416637 0.243777
O132  O     O_3   0.165037 0.695865 0.578431 -0.560957
C311  C     C_3   0.150310 0.657293 0.548555 0.152694
H340  H     H_    0.190805 0.644426 0.549713 0.110511
H341  H     H_    0.105550 0.656438 0.487858 0.190555
C312  C     C_3   0.138411 0.631554 0.597112 -0.863887
H342  H     H_    0.100010 0.644257 0.599781 0.265666
H343  H     H_    0.122614 0.602147 0.570303 0.210051
H344  H     H_    0.183367 0.628356 0.656918 0.250090

loop_
_geom_bond_atom_site_label_1
_geom_bond_atom_site_label_2
_ccdc_geom_bond_type
C132  C144  A    
C214  H90   S    
C151  O35   A    
O19   Zn15  S    
C273  H241  S    
C15   O91   S    
C133  C134  A    
C290  H288  S    
C222  H109  S    
O21   Zn9   S    
C76   C79   A    
C274  H246  S    
O42   Zn6   S    
C305  C306  S    
C79   C87   A    
C280  H262  S    
C15   C32   S    
C170  C176  A    
O100  C263  S    
C292  H293  S    
C294  H299  S    
C180  O72   S    
C299  C300  S    
C268  H226  S    
C95   O43   A    
O46   Zn10  S    
O96   C255  S    
C111  O131  S    
C171  C183  A    
C35   O95   S    
C215  H92   S    
C57   O109  S    
C251  H182  S    
C291  H291  S    
C149  O29   A    
C269  H229  S    
C8    O52   A    
C290  H287  S    
C242  H159  S    
C232  H136  S    
O25   Zn13  S    
C62   C70   A    
C230  H129  S    
O106  C270  S    
C144  H8    S    
C7    O11   A    
C287  C288  S    
C220  H105  S    
O34   Zn8   S    
C299  H310  S    
C191  C192  S    
C89   O13   A    
C20   O80   S    
C256  H195  S    
C309  C310  S    
C227  H123  S    
C261  H207  S    
C103  O123  S    
O38   Zn2   S    
C211  H81   S    
C38   O98   S    
C97   C105  A    
O95   C253  S    
C268  H227  S    
C227  H122  S    
O2    Zn4   S    
O130  C307  S    
C219  H103  S    
O50   Zn14  S    
C99   C107  A    
C275  H249  S    
O4    Zn14  S    
C41   C49   A    
C45   O105  S    
C9    C26   S    
C195  H35   S    
C208  H72   S    
C241  H158  S    
C166  C174  A    
O48   Zn12  S    
O62   C202  S    
C12   C27   S    
C130  C136  A    
C13   C30   S    
C8    O12   A    
O64   C204  S    
C141  C144  A    
C298  H308  S    
C98   O118  S    
C265  H217  S    
C94   O42   A    
C258  H201  S    
C20   C28   S    
C273  H243  S    
C27   C35   S    
O58   C195  S    
C21   C29   S    
O98   C259  S    
C207  H69   S    
C10   C22   S    
C153  C161  A    
C16   C31   S    
C285  C286  S    
O1    Zn9   S    
O109  C273  S    
C12   C40   S    
C13   O89   S    
O82   C227  S    
C24   C32   S    
C13   C33   S    
C259  H202  S    
C147  O25   A    
C266  H221  S    
C114  C128  A    
O17   Zn13  S    
O67   C207  S    
C255  C256  S    
C156  C166  A    
C16   C20   S    
C224  H116  S    
C201  H51   S    
C206  H65   S    
C39   O99   S    
C205  H61   S    
C116  O64   S    
C262  H209  S    
C118  C124  A    
C297  H306  S    
C272  H238  S    
C146  O22   A    
C116  C122  A    
C151  O33   A    
C63   C71   A    
C115  O63   S    
C32   C40   S    
O47   Zn11  S    
C212  H82   S    
C230  H131  S    
C217  H98   S    
C213  H87   S    
C112  O132  S    
C274  H244  S    
C104  O124  S    
C280  H264  S    
C131  C143  A    
C277  H253  S    
C150  C161  S    
C255  H192  S    
C287  H281  S    
C242  H161  S    
C199  C200  S    
C138  H2    S    
C263  H212  S    
C190  H23   S    
C41   O101  S    
C3    C26   S    
O39   Zn3   S    
C203  H55   S    
C178  O70   S    
C265  H219  S    
C110  O130  S    
C185  H10   S    
O71   C211  S    
C245  H167  S    
C119  C123  A    
O105  C269  S    
C98   C106  A    
C10   C38   S    
C17   C25   S    
O110  C274  S    
C190  H21   S    
C302  H318  S    
C63   O115  S    
O119  C285  S    
C80   C88   A    
O69   C209  S    
C157  C171  A    
C191  H25   S    
C106  O126  S    
C158  C172  A    
C193  H29   S    
C155  C165  A    
C264  H214  S    
C272  H239  S    
C11   C23   S    
C222  H111  S    
C270  H234  S    
C101  O121  S    
C61   C69   A    
C278  H257  S    
O99   C261  S    
C223  H113  S    
C226  H120  S    
O63   C203  S    
C182  O74   S    
C183  O75   S    
C81   C110  A    
C126  C134  A    
C11   O87   S    
C23   C36   S    
O2    Zn2   S    
O4    Zn6   S    
O61   C201  S    
O53   C185  S    
C92   O40   A    
C249  H177  S    
C289  H286  S    
C149  C162  S    
O40   Zn4   S    
C218  H99   S    
O77   C217  S    
C47   C87   A    
O72   C212  S    
C118  O66   S    
C311  H341  S    
O117  C281  S    
C115  C121  A    
C108  O128  S    
C43   C83   A    
C69   C77   A    
O103  C267  S    
O52   Zn16  S    
C238  H149  S    
C9    C21   S    
C312  H344  S    
C245  C246  S    
C71   C79   A    
C216  H94   S    
C286  H277  S    
C206  H66   S    
O97   C257  S    
C22   O82   S    
C168  C174  A    
C30   C38   S    
O57   C193  S    
C213  H86   S    
C8    C29   S    
O1    Zn11  S    
C279  H259  S    
C55   C90   S    
C73   C81   A    
C5    O9    A    
O129  C305  S    
C263  H213  S    
C286  H278  S    
C195  H34   S    
O107  C271  S    
C66   C74   A    
C187  H15   S    
C49   C57   A    
C271  H235  S    
C237  C238  S    
C304  H322  S    
C297  H305  S    
C254  H189  S    
C61   O113  S    
C272  H240  S    
C199  H45   S    
C52   C60   A    
C59   C67   A    
C129  C135  A    
C53   C61   A    
C17   O77   S    
C244  H164  S    
C196  H37   S    
C249  C250  S    
C55   C63   A    
C212  H84   S    
C43   O103  S    
C56   C64   A    
C229  H127  S    
C153  O53   S    
C306  H327  S    
C192  H26   S    
C227  C228  S    
O35   Zn5   S    
O37   Zn1   S    
C200  H48   S    
C45   C53   A    
O11   Zn5   S    
O89   C241  S    
C170  C182  A    
C281  H266  S    
C282  H268  S    
O4    Zn8   S    
O66   C206  S    
O44   Zn8   S    
C203  H57   S    
O85   C233  S    
C285  H275  S    
O23   Zn11  S    
O68   C208  S    
C264  H215  S    
C211  H80   S    
C292  H292  S    
C51   C59   A    
C283  H271  S    
C204  H59   S    
C137  H1    S    
O1    Zn3   S    
C239  H153  S    
C100  C108  A    
O9    Zn7   S    
C113  C127  A    
C82   C109  A    
C253  C254  S    
C275  H248  S    
C104  C112  A    
C233  H137  S    
C305  H326  S    
C224  H115  S    
C310  H337  S    
O5    Zn3   S    
C91   O39   A    
C244  H165  S    
C105  O125  S    
C179  O71   S    
C68   C100  A    
O87   C237  S    
C128  C134  A    
C238  H150  S    
C205  H62   S    
O101  C265  S    
C132  C136  A    
C210  H78   S    
C267  H223  S    
C64   O116  S    
C229  C230  S    
C207  H68   S    
C236  H144  S    
C50   C58   A    
C52   C93   S    
C218  H101  S    
C21   O81   S    
C186  H12   S    
C209  H75   S    
C28   C36   S    
C201  H49   S    
C42   C50   A    
C10   C25   S    
O32   Zn2   S    
C56   C89   S    
C94   O18   A    
C237  H147  S    
C284  H273  S    
C221  H107  S    
C308  H333  S    
C196  H38   S    
C247  H173  S    
C67   C75   A    
C200  H47   S    
C14   C29   S    
C109  O129  S    
C85   C106  A    
C184  O76   S    
C34   O94   S    
O70   C210  S    
C24   O84   S    
O115  C279  S    
C216  H96   S    
O13   Zn9   S    
C205  H63   S    
C214  H89   S    
C71   C103  A    
C257  H197  S    
C143  H7    S    
C22   C30   S    
C251  C252  S    
C186  H13   S    
C217  H97   S    
C150  O32   A    
C154  C162  A    
C279  H261  S    
C1    O5    A    
O76   C216  S    
C274  H245  S    
C233  C234  S    
C23   C31   S    
C14   C34   S    
C91   O15   A    
C185  H9    S    
C190  H22   S    
C12   C24   S    
C252  H186  S    
C271  H237  S    
C13   C17   S    
C225  H117  S    
C300  H314  S    
C95   O19   A    
C120  O68   S    
C128  C140  A    
C37   O97   S    
C155  O55   S    
C311  H340  S    
C16   C36   S    
C251  H183  S    
C291  C292  S    
C269  H230  S    
C231  C232  S    
O94   C251  S    
C59   O111  S    
C232  H135  S    
O2    Zn12  S    
C309  H336  S    
C17   C38   S    
C309  H335  S    
C295  H300  S    
C117  C131  A    
C202  H54   S    
C285  H276  S    
O124  C295  S    
C118  C132  A    
C306  H329  S    
C4    O8    A    
C113  C121  A    
C123  C148  S    
C221  C222  S    
O33   Zn7   S    
C228  H124  S    
C295  C296  S    
C18   O78   S    
C189  H19   S    
C6    O50   A    
C201  H50   S    
C9    O85   S    
O93   C249  S    
C234  H141  S    
C241  C242  S    
O81   C225  S    
C172  C176  A    
C25   C33   S    
C269  H231  S    
O3    Zn15  S    
C89   O37   A    
O78   C219  S    
C96   O20   A    
O22   Zn10  S    
C222  H110  S    
C100  O120  S    
C18   C26   S    
C76   C84   A    
C185  C186  S    
C312  H342  S    
O113  C277  S    
O41   Zn5   S    
C135  C136  A    
C155  C161  A    
C310  H339  S    
C15   C19   S    
C208  H71   S    
O79   C221  S    
C304  H324  S    
C250  H181  S    
C248  H176  S    
C10   O86   S    
C160  C164  A    
O45   Zn9   S    
O28   Zn16  S    
C276  H251  S    
C257  H198  S    
C187  C188  S    
O90   C243  S    
C11   C39   S    
C265  H218  S    
C258  H200  S    
C129  C141  A    
C101  C109  A    
C210  H76   S    
C142  H6    S    
C267  H225  S    
C236  H146  S    
C165  C177  A    
C69   C101  A    
C103  C111  A    
C194  H31   S    
C157  O57   S    
C248  H174  S    
C209  H73   S    
C259  H203  S    
C90   O14   A    
O30   Zn4   S    
C192  H28   S    
C75   C83   A    
C206  H64   S    
O6    Zn4   S    
C260  H205  S    
C189  C190  S    
C1    C28   S    
C273  H242  S    
C278  H256  S    
C48   C88   A    
C2    C27   S    
C166  C178  A    
O126  C299  S    
O127  C301  S    
C23   O83   S    
C277  H254  S    
C259  C260  S    
C67   C99   A    
O91   C245  S    
C167  C173  A    
C5    C32   S    
C6    C31   S    
C312  H343  S    
C47   C55   A    
O24   Zn12  S    
C7    C30   S    
C2    O6    A    
O54   C187  S    
C153  C167  A    
C254  H190  S    
C307  C308  S    
C154  C168  A    
C14   O90   S    
C74   C82   A    
C303  H320  S    
C280  H263  S    
C308  H332  S    
C178  C179  A    
O36   Zn6   S    
C255  H193  S    
C84   C111  A    
O26   Zn14  S    
C141  H5    S    
C215  H91   S    
C193  C194  S    
C203  H56   S    
O80   C223  S    
C88   C107  A    
C231  H132  S    
C275  H247  S    
C245  H168  S    
C21   C34   S    
C54   C62   A    
C93   O41   A    
O59   C197  S    
C19   O79   S    
O20   Zn16  S    
O2    Zn10  S    
C42   O102  S    
C225  C226  S    
C140  H4    S    
C202  H52   S    
C83   C112  A    
C117  O65   S    
O56   C191  S    
C252  H185  S    
C277  H255  S    
C188  H18   S    
C239  C240  S    
C256  H196  S    
C41   C81   A    
C46   C54   A    
C169  C175  A    
C36   O96   S    
C270  H233  S    
C194  H32   S    
C33   O93   S    
O112  C276  S    
C237  H148  S    
C148  O28   A    
C223  C224  S    
C169  C181  A    
C150  O30   A    
C294  H298  S    
C145  O21   A    
C167  C179  A    
C268  H228  S    
C306  H328  S    
C219  H102  S    
C249  H178  S    
C276  H252  S    
C234  H140  S    
C301  H315  S    
C296  H302  S    
C4    C25   S    
C16   O92   S    
O73   C213  S    
C181  C184  A    
C20   C39   S    
C197  H39   S    
C12   O88   S    
C159  C169  A    
C243  H162  S    
C291  H290  S    
C107  O127  S    
O123  C293  S    
C127  C133  A    
C57   C65   A    
C226  H121  S    
O75   C215  S    
C70   C102  A    
C6    O10   A    
O74   C214  S    
C260  H204  S    
O18   Zn14  S    
O29   Zn3   S    
C231  H133  S    
C295  H301  S    
C200  H46   S    
C240  H155  S    
C125  C137  A    
C244  H166  S    
C279  H260  S    
C213  H85   S    
C54   C91   S    
C307  H330  S    
C168  C180  A    
C250  H180  S    
C248  H175  S    
C266  H222  S    
C253  H188  S    
C44   O104  S    
C263  C264  S    
C66   C98   A    
C198  H41   S    
O128  C303  S    
C11   C28   S    
C43   C51   A    
C102  C110  A    
C137  C140  A    
C271  H236  S    
C293  H296  S    
O120  C287  S    
C102  O122  S    
C99   O119  S    
C198  H42   S    
C138  C139  A    
C119  O67   S    
C304  H323  S    
C75   C80   A    
C60   C68   A    
O92   C247  S    
C72   C80   A    
C288  H282  S    
C29   C37   S    
C212  H83   S    
O1    Zn1   S    
C187  H14   S    
C192  H27   S    
C229  H128  S    
C156  C162  A    
C159  O59   S    
C124  C147  S    
C182  C183  A    
C3    O47   A    
C197  C198  S    
O3    Zn13  S    
C289  C290  S    
O10   Zn8   S    
C287  H280  S    
C189  H20   S    
C70   C78   A    
C282  H267  S    
C14   C18   S    
O102  C266  S    
C270  H232  S    
C42   C82   A    
C215  H93   S    
O43   Zn7   S    
C220  H104  S    
C226  H119  S    
C214  H88   S    
C48   O108  S    
O122  C291  S    
C173  C174  A    
C47   O107  S    
C219  C220  S    
C195  C196  S    
C302  H317  S    
O132  C311  S    
O49   Zn13  S    
O60   C199  S    
C196  H36   S    
C120  C130  A    
C262  H211  S    
C204  H58   S    
C18   C37   S    
C300  H312  S    
C131  C135  A    
C191  H24   S    
C177  C180  A    
C233  H138  S    
C50   C95   S    
C122  C145  S    
C165  C173  A    
C186  H11   S    
C65   C73   A    
C297  C298  S    
C1    O45   A    
C240  H154  S    
C278  H258  S    
C230  H130  S    
O4    Zn16  S    
C113  O61   S    
C223  H112  S    
O104  C268  S    
O15   Zn11  S    
O125  C297  S    
C119  C129  A    
C152  O36   A    
C284  H272  S    
C58   C66   A    
C142  C143  A    
C87   C108  A    
C175  C176  A    
C210  H77   S    
C217  C218  S    
C267  H224  S    
C243  H163  S    
C73   C78   A    
C289  H285  S    
C188  H17   S    
C218  H100  S    
C154  O54   S    
C19   C27   S    
C246  H169  S    
C157  C163  A    
C158  O58   S    
C301  C302  S    
C241  H157  S    
O12   Zn6   S    
C311  C312  S    
C228  H126  S    
O114  C278  S    
C283  H270  S    
C156  O56   S    
C145  O23   A    
C284  H274  S    
C152  O34   A    
C282  H269  S    
C247  C248  S    
C235  H142  S    
C127  C139  A    
C292  H294  S    
C261  C262  S    
C299  H311  S    
C139  H3    S    
C15   C35   S    
C216  H95   S    
C26   C34   S    
C160  O60   S    
C252  H184  S    
C225  H118  S    
C4    O48   A    
C301  H316  S    
C264  H216  S    
C24   C35   S    
C181  O73   S    
C235  C236  S    
C152  C163  S    
C234  H139  S    
O86   C235  S    
C19   C40   S    
C242  H160  S    
O8    Zn2   S    
C266  H220  S    
C293  H295  S    
C2    O46   A    
C286  H279  S    
O51   Zn15  S    
C194  H33   S    
C303  C304  S    
C228  H125  S    
C294  H297  S    
C305  H325  S    
C171  C175  A    
C74   C77   A    
O3    Zn7   S    
C300  H313  S    
C296  H304  S    
C45   C85   A    
O84   C231  S    
C199  H44   S    
C92   O16   A    
C40   O100  S    
C172  C184  A    
C3    O7    A    
C283  C284  S    
C288  H284  S    
C250  H179  S    
C53   C92   S    
C308  H334  S    
C232  H134  S    
C96   O44   A    
C151  C164  S    
C68   C76   A    
C235  H143  S    
C221  H108  S    
C202  H53   S    
O131  C309  S    
C260  H206  S    
C60   O112  S    
C256  H194  S    
C46   O106  S    
C93   O17   A    
C281  H265  S    
C290  H289  S    
C159  C163  A    
C86   C105  A    
O27   Zn15  S    
O14   Zn10  S    
C197  H40   S    
C220  H106  S    
C211  H79   S    
O111  C275  S    
C298  H307  S    
C204  H60   S    
C125  C133  A    
C48   C56   A    
C22   C33   S    
O118  C283  S    
C239  H152  S    
C126  C138  A    
C302  H319  S    
C62   O114  S    
C298  H309  S    
C121  C146  S    
C130  C142  A    
C303  H321  S    
O121  C289  S    
C90   O38   A    
C254  H191  S    
C293  C294  S    
C288  H283  S    
C44   C52   A    
C9    C37   S    
C253  H187  S    
C296  H303  S    
C158  C164  A    
C310  H338  S    
C246  H171  S    
C149  O31   A    
C208  H70   S    
O31   Zn1   S    
C115  C125  A    
C261  H208  S    
C240  H156  S    
O88   C239  S    
O116  C280  S    
C117  C123  A    
C65   C97   A    
C246  H170  S    
C276  H250  S    
C198  H43   S    
C193  H30   S    
C78   C86   A    
C258  H199  S    
C262  H210  S    
C148  O26   A    
C58   O110  S    
C97   O117  S    
O3    Zn5   S    
C207  H67   S    
C236  H145  S    
C31   C39   S    
C307  H331  S    
C64   C72   A    
C49   C96   S    
O83   C229  S    
C238  H151  S    
C209  H74   S    
C147  O27   A    
C44   C84   A    
O7    Zn1   S    
C51   C94   S    
C77   C85   A    
C114  C122  A    
C281  C282  S    
C177  O69   S    
C224  H114  S    
C243  C244  S    
C7    O51   A    
C160  C170  A    
C247  H172  S    
C116  C126  A    
O16   Zn12  S    
C5    O49   A    
O65   C205  S    
O55   C189  S    
C72   C104  A    
C114  O62   S    
C257  C258  S    
O108  C272  S    
C146  O24   A    
C120  C124  A    
C46   C86   A    
C188  H16   S    
