data_mof_unit_64745.cif
_audit_creation_date              2012-12-10T17:19:27-0500
_audit_creation_method            fapswitch 2.2
_symmetry_space_group_name_H-M    P1
_symmetry_Int_Tables_number       1
_space_group_crystal_system       triclinic
_cell_length_a                    18.710255
_cell_length_b                    18.729045
_cell_length_c                    18.767291
_cell_angle_alpha                 109.29013
_cell_angle_beta                  109.438875
_cell_angle_gamma                 109.238833
_cell_volume                      5090.26828959

loop_
_atom_site_label
_atom_site_type_symbol
_atom_type_description
_atom_site_fract_x
_atom_site_fract_y
_atom_site_fract_z
_atom_type_partial_charge
C1    C     C_R   0.381084 0.381184 0.500115 0.775819
C2    C     C_3   0.809280 0.501382 0.810447 0.157792
C3    C     C_3   0.847382 0.582019 0.799501 -0.349199
C4    C     C_3   0.737148 0.502527 0.833470 -0.371293
C5    C     C_R   0.242119 0.321919 0.500035 -0.156597
C6    C     C_R   0.177115 0.256879 0.498273 -0.156809
C7    C     C_R   0.185645 0.185802 0.499808 -0.011872
C8    C     C_R   0.258548 0.179144 0.501681 -0.168037
C9    C     C_R   0.322068 0.242674 0.500466 -0.172785
C10   C     C_R   0.314240 0.314446 0.500351 -0.010362
C11   C     C_R   0.317680 0.577913 0.320601 -0.242925
C12   C     C_R   0.618120 0.498510 0.619368 0.747860
C13   C     C_R   0.252864 0.576953 0.255660 0.457906
C14   C     C_R   0.183140 0.496787 0.182615 -0.245992
C15   C     C_R   0.177536 0.417449 0.177152 0.403098
C16   C     C_R   0.243836 0.420509 0.242595 -0.237046
C17   C     C_R   0.313329 0.499926 0.313633 -0.165034
C18   C     C_R   0.757676 0.756452 0.578959 -0.175402
C19   C     C_R   0.822522 0.819867 0.578937 -0.170009
C20   C     C_R   0.814452 0.813873 0.499987 -0.015617
C21   C     C_R   0.742267 0.743514 0.421044 -0.166646
C22   C     C_R   0.678905 0.678597 0.421033 -0.165099
C23   C     C_R   0.619057 0.618805 0.500027 0.778329
C24   C     C_R   0.686161 0.685471 0.499996 -0.014507
C25   C     C_R   0.999761 0.381292 0.880374 0.868950
C26   C     C_R   0.877942 0.501427 0.879085 0.726680
C27   C     C_R   0.997028 0.618816 0.116033 0.750496
C28   C     C_R   0.116597 0.497973 0.115246 0.931135
C29   C     C_R   0.000923 0.881230 0.381720 0.774088
C30   C     C_R   0.118817 0.118829 0.499873 0.777400
C31   C     C_R   0.998842 0.118269 0.617964 0.803851
C32   C     C_R   0.881193 0.880979 0.499947 0.774644
C33   C     C_R   0.082072 0.322877 0.819222 0.398583
C34   C     C_R   0.381032 0.500594 0.380643 0.842561
C35   C     C_R   0.079190 0.257005 0.753857 -0.255049
C36   C     C_R   0.999479 0.185717 0.684593 -0.069156
C37   C     C_R   0.921284 0.178729 0.679935 -0.165094
C38   C     C_R   0.922876 0.242520 0.745614 -0.247404
C39   C     C_R   0.002503 0.315067 0.815043 -0.129574
C40   C     C_R   0.999966 0.758825 0.178181 -0.172132
C41   C     C_R   0.000164 0.822558 0.242783 -0.169167
C42   C     C_R   0.001465 0.814783 0.314846 -0.011645
C43   C     C_R   0.001405 0.742519 0.321608 -0.175647
C44   C     C_R   0.998136 0.677243 0.255449 -0.187470
C45   C     C_3   0.697123 0.417398 0.650401 -0.351545
C46   C     C_R   0.997997 0.685649 0.183962 -0.004986
C47   C     C_3   0.767629 0.418087 0.722930 -0.395684
C48   C     C_3   0.774804 0.581356 0.729041 -0.395475
C49   C     C_3   0.663953 0.498567 0.760346 -0.371314
C50   C     C_3   0.686794 0.498603 0.688050 0.150382
Cu1   Cu    Cu3+1 0.500370 0.438230 0.438520 0.968375
Cu2   Cu    Cu3+1 0.499630 0.561770 0.561480 0.960240
Cu3   Cu    Cu3+1 0.935490 0.438190 0.997300 1.013759
Cu4   Cu    Cu3+1 0.059110 0.561720 0.997220 1.061955
Cu5   Cu    Cu3+1 0.937870 0.999900 0.437760 0.972141
Cu6   Cu    Cu3+1 0.062130 0.999920 0.562070 0.967037
H1    H     H_    0.715824 0.416703 0.599830 0.181324
H2    H     H_    0.765641 0.562694 0.895746 0.155318
H3    H     H_    0.769892 0.640559 0.758479 0.172632
H4    H     H_    0.879314 0.642922 0.862215 0.162240
H5    H     H_    0.235505 0.377125 0.499577 0.144627
H6    H     H_    0.121079 0.262650 0.497246 0.145916
H7    H     H_    0.265437 0.124188 0.502599 0.141397
H8    H     H_    0.377889 0.236676 0.501050 0.136448
H9    H     H_    0.371799 0.639606 0.375899 0.170021
H10   H     H_    0.634039 0.356862 0.618937 0.160603
H11   H     H_    0.240903 0.360743 0.239461 0.199418
H12   H     H_    0.763859 0.761925 0.640285 0.139419
H13   H     H_    0.878039 0.874274 0.640270 0.146268
H14   H     H_    0.735790 0.738245 0.359702 0.148120
H15   H     H_    0.623561 0.623979 0.359714 0.149778
H16   H     H_    0.139093 0.261649 0.755664 0.181562
H17   H     H_    0.859316 0.123301 0.626377 0.150957
H18   H     H_    0.861678 0.236115 0.741396 0.159419
H19   H     H_    0.999757 0.765732 0.123032 0.138878
H20   H     H_    0.737853 0.359283 0.728281 0.171138
H21   H     H_    0.000427 0.878396 0.237200 0.145700
H22   H     H_    0.001950 0.735840 0.376942 0.142625
H23   H     H_    0.997183 0.621049 0.260624 0.139383
H24   H     H_    0.818483 0.414988 0.705806 0.156661
H25   H     H_    0.791820 0.583664 0.678062 0.156989
H26   H     H_    0.897850 0.581897 0.780684 0.181850
H27   H     H_    0.655324 0.555437 0.788552 0.186617
H28   H     H_    0.601324 0.438800 0.732330 0.156064
H29   H     H_    0.708645 0.446096 0.842549 0.184613
O1    O     O_R   0.410130 0.357660 0.448070 -0.582698
O2    O     O_R   0.049990 0.461930 0.907530 -0.533752
O3    O     O_R   0.854450 0.447820 0.906640 -0.599901
O4    O     O_R   0.958850 0.552130 0.906580 -0.601865
O5    O     O_R   0.944620 0.537990 0.086990 -0.592039
O6    O     O_R   0.049020 0.642300 0.086930 -0.584434
O7    O     O_R   0.035760 0.447780 0.087940 -0.550323
O8    O     O_R   0.140150 0.552090 0.087880 -0.512150
O9    O     O_R   0.948110 0.909780 0.357760 -0.581519
O10   O     O_R   0.053050 0.909790 0.462730 -0.586654
O11   O     O_R   0.037720 0.090080 0.447430 -0.582477
O12   O     O_R   0.409500 0.461990 0.551910 -0.581986
O13   O     O_R   0.142660 0.090100 0.552410 -0.582581
O14   O     O_R   0.946950 0.090030 0.537090 -0.583814
O15   O     O_R   0.051890 0.090040 0.642060 -0.580749
O16   O     O_R   0.857350 0.909730 0.447410 -0.582325
O17   O     O_R   0.962280 0.909740 0.552390 -0.585001
O18   O     O_R   0.590970 0.447820 0.538740 -0.594513
O19   O     O_R   0.590340 0.552140 0.642570 -0.590673
O20   O     O_R   0.590500 0.538010 0.448090 -0.582412
O21   O     O_R   0.589870 0.642340 0.551930 -0.584126
O22   O     O_R   0.409660 0.447860 0.357430 -0.574549
O23   O     O_R   0.409030 0.552180 0.461260 -0.587561
O24   O     O_R   0.945590 0.357610 0.907590 -0.577414
O25   O     O_3   0.259172 0.654946 0.262786 -0.550053
C51   C     C_3   0.219750 0.680768 0.311046 -0.298254
H30   H     H_    0.255827 0.694781 0.378960 0.160641
H31   H     H_    0.150068 0.630980 0.279465 0.128321
H32   H     H_    0.221605 0.741524 0.313953 0.200928
S1    S     S_3+6 0.089613 0.313225 0.091321 0.024235
O26   O     O_2   0.111341 0.243442 0.094402 -0.292183
O27   O     O_2   0.010056 0.297781 0.100845 -0.277305
O28   O     O_3   0.068382 0.307504 0.994820 -0.521894
H33   H     H_    0.019627 0.247693 0.951126 0.369445
S2    S     S_3+6 0.186200 0.412462 0.903374 0.042242
O29   O     O_2   0.200702 0.488728 0.888274 -0.239925
O30   O     O_2   0.192271 0.437373 0.990736 -0.262371
O31   O     O_3   0.265208 0.388331 0.903367 -0.512065
H34   H     H_    0.258081 0.344463 0.922704 0.351265

loop_
_geom_bond_atom_site_label_1
_geom_bond_atom_site_label_2
_ccdc_geom_bond_type
Cu6   O10   S    
Cu5   Cu6   S    
C29   C42   S    
C9    H8    S    
C41   C42   A    
Cu2   O12   S    
C35   C36   A    
C32   O16   A    
Cu6   O13   S    
O31   H34   S    
Cu3   Cu4   S    
C43   H22   S    
C40   C46   A    
C45   H1    S    
C13   O25   S    
C18   C24   A    
C34   O22   A    
C49   H28   S    
C36   C37   A    
C47   H20   S    
C12   O19   A    
C41   H21   S    
C5    C6    A    
Cu1   O18   S    
C15   C16   A    
C23   O20   A    
C3    C48   S    
C25   O2    A    
C48   H25   S    
C27   O5    A    
C18   C19   A    
O28   H33   S    
Cu4   O8    S    
C30   O11   A    
O25   C51   S    
C11   C17   A    
C19   C20   A    
C44   C46   A    
C16   C17   A    
S1    O27   D    
C23   C24   S    
C27   O6    A    
C31   O14   A    
Cu3   O3    S    
C9    C10   A    
S2    O31   S    
C25   O24   A    
C3    H4    S    
C48   C50   S    
Cu2   O21   S    
C7    C30   S    
C21   C22   A    
C47   H24   S    
Cu3   O7    S    
Cu5   O9    S    
Cu1   O1    S    
S2    O30   D    
C45   C47   S    
C38   C39   A    
Cu1   Cu2   S    
C7    C8    A    
C12   O18   A    
C51   H31   S    
C1    O12   A    
C29   O10   A    
C8    C9    A    
C4    H29   S    
C23   O21   A    
C28   O8    A    
C26   O4    A    
C2    C4    S    
C43   C44   A    
C37   C38   A    
Cu1   O20   S    
S1    O28   S    
C3    H26   S    
C5    H5    S    
C2    C26   S    
C16   H11   S    
C33   C39   A    
C31   O15   A    
Cu4   O4    S    
C27   C46   S    
C26   O3    A    
C40   C41   A    
C35   H16   S    
C29   O9    A    
C15   S1    S    
C19   H13   S    
C42   C43   A    
Cu6   O15   S    
Cu5   O14   S    
C22   H15   S    
C45   H10   S    
S2    O29   D    
C48   H3    S    
C20   C32   S    
Cu3   O24   S    
C1    O1    A    
C37   H17   S    
Cu2   O19   S    
C51   H30   S    
C14   C15   A    
C44   H23   S    
C1    C10   S    
Cu5   O11   S    
C12   C50   S    
C6    C7    A    
C32   O17   A    
C2    C47   S    
C30   O13   A    
C40   H19   S    
C21   H14   S    
C34   O23   A    
C6    H6    S    
C2    C3    S    
C4    C49   S    
Cu6   O17   S    
Cu4   O6    S    
C25   C39   S    
C11   C13   A    
C49   H27   S    
Cu4   O2    S    
C45   C50   S    
Cu5   O16   S    
C33   C35   A    
C38   H18   S    
C51   H32   S    
C22   C24   A    
C8    H7    S    
C28   O7    A    
C11   H9    S    
C5    C10   A    
C20   C21   A    
Cu2   O23   S    
C33   S2    S    
Cu1   O22   S    
C49   C50   S    
C17   C34   S    
C4    H2    S    
Cu3   O5    S    
C31   C36   S    
C14   C28   S    
C13   C14   A    
C18   H12   S    
S1    O26   D    
