data_mof_unit_58461.cif
_audit_creation_date              2012-12-10T16:50:14-0500
_audit_creation_method            fapswitch 2.2
_symmetry_space_group_name_H-M    P1
_symmetry_Int_Tables_number       1
_space_group_crystal_system       triclinic
_cell_length_a                    23.511279
_cell_length_b                    8.68226
_cell_length_c                    7.505773
_cell_angle_alpha                 103.801166
_cell_angle_beta                  94.880605
_cell_angle_gamma                 93.142106
_cell_volume                      1478.05874022

loop_
_atom_site_label
_atom_site_type_symbol
_atom_type_description
_atom_site_fract_x
_atom_site_fract_y
_atom_site_fract_z
_atom_type_partial_charge
C1    C     C_R   0.498181 0.199493 0.452570 0.878812
C2    C     C_R   0.501815 0.800508 0.547431 0.876911
C3    C     C_R   0.247640 0.565001 0.682536 0.153012
C4    C     C_R   0.755926 0.437939 0.340113 0.140994
C5    C     C_R   0.306708 0.566315 0.673127 -0.278665
C6    C     C_R   0.696557 0.443720 0.336407 -0.193345
C7    C     C_R   0.328962 0.500101 0.506918 -0.067479
C8    C     C_R   0.671375 0.502994 0.499225 -0.106841
C9    C     C_R   0.291569 0.432386 0.348472 -0.281524
C10   C     C_R   0.706238 0.561901 0.665340 -0.260898
C11   C     C_R   0.232245 0.428329 0.356531 0.148863
C12   C     C_R   0.765625 0.559569 0.670649 0.188172
C13   C     C_R   0.210030 0.495253 0.524005 0.377528
C14   C     C_R   0.790844 0.495394 0.508683 0.327912
C15   C     C_2   0.497246 0.030847 0.426682 -0.361897
C16   C     C_2   0.502742 0.969151 0.573319 -0.359762
C17   C     C_R   0.391172 0.499748 0.501501 0.812410
C18   C     C_R   0.608895 0.501381 0.499093 0.815193
C19   C     C_R   0.884657 0.635680 0.553514 0.588876
C20   C     C_R   0.116715 0.354180 0.497221 0.598228
C21   C     C_R   0.876621 0.351966 0.485402 0.522569
C22   C     C_R   0.124551 0.638044 0.567634 0.573518
C23   C     C_R   0.936444 0.347326 0.479091 -0.052987
C24   C     C_R   0.064885 0.642337 0.577767 -0.061656
C25   C     C_R   0.970542 0.493710 0.525912 -0.020431
C26   C     C_R   0.030835 0.495898 0.531139 -0.024486
C27   C     C_R   0.944426 0.638363 0.566655 -0.016923
C28   C     C_R   0.056965 0.351304 0.489339 -0.019960
C29   C     C_R   0.963517 0.203310 0.428170 -0.048968
C30   C     C_R   0.037841 0.786275 0.630309 -0.049961
C31   C     C_R   0.023102 0.206854 0.436512 -0.202055
C32   C     C_R   0.978274 0.782727 0.621479 -0.202907
Cu1   Cu    Cu3+1 0.506340 0.517380 0.684380 0.976363
Cu2   Cu    Cu3+1 0.493660 0.482620 0.315620 0.974826
H1    H     H_    0.042993 0.095594 0.396685 0.185876
H2    H     H_    0.958355 0.893966 0.661052 0.186037
H3    H     H_    0.335134 0.620199 0.796331 0.164621
H4    H     H_    0.670119 0.398543 0.206846 0.174940
H5    H     H_    0.308251 0.380073 0.219285 0.156739
H6    H     H_    0.687537 0.610630 0.791918 0.161290
H7    H     H_    0.491992 0.957296 0.286255 0.173774
H8    H     H_    0.507994 0.042702 0.713746 0.174685
N1    N     N_R   0.852123 0.494123 0.514761 -0.458388
N2    N     N_R   0.149071 0.495781 0.531573 -0.446427
N3    N     N_2   0.484110 0.456420 0.038520 0.000463
N4    N     N_2   0.515890 0.543580 0.961480 0.000143
O1    O     O_R   0.504120 0.286130 0.619770 -0.556693
O2    O     O_R   0.495880 0.713870 0.380230 -0.557967
O3    O     O_R   0.493410 0.256770 0.308360 -0.599913
O4    O     O_R   0.506590 0.743230 0.691640 -0.600557
O5    O     O_R   0.423230 0.514630 0.655730 -0.567626
O6    O     O_R   0.576770 0.485370 0.344270 -0.568022
O7    O     O_R   0.412530 0.485280 0.344320 -0.599368
O8    O     O_R   0.587470 0.514720 0.655680 -0.595733
O9    O     O_2   0.859060 0.773656 0.579838 -0.510845
O10   O     O_2   0.142424 0.216355 0.469432 -0.510792
O11   O     O_2   0.843127 0.216795 0.466805 -0.521311
O12   O     O_2   0.157855 0.773935 0.588546 -0.515404
C33   C     C_1   0.932047 0.050491 0.353113 0.336513
N5    N     N_1   0.907033 0.928112 0.291460 -0.221641
C34   C     C_1   0.069279 0.939236 0.704933 0.342329
N6    N     N_1   0.094270 0.061738 0.766037 -0.219042
N7    N     N_3   0.225771 0.635053 0.853198 -0.561798
H9    H     H_    0.238769 0.756502 0.887942 0.251084
H10   H     H_    0.245465 0.586712 0.955137 0.203887
N8    N     N_3   0.779908 0.374518 0.171157 -0.591713
H11   H     H_    0.815894 0.448074 0.163919 0.222358
H12   H     H_    0.793517 0.262548 0.173596 0.267900
N9    N     N_3   0.194252 0.355359 0.195304 -0.550123
H13   H     H_    0.204182 0.237429 0.149296 0.254370
H14   H     H_    0.201910 0.413641 0.092285 0.224870
N10   N     N_3   0.800606 0.623036 0.840828 -0.553216
H15   H     H_    0.785864 0.567009 0.938264 0.230598
H16   H     H_    0.793927 0.743709 0.884900 0.251874
N11   N     N_3   0.441739 0.354781 0.922593 -0.410478
H17   H     H_    0.402624 0.387095 0.970635 0.206908
H18   H     H_    0.447329 0.240861 0.940958 0.201844
N12   N     N_3   0.558236 0.645296 0.077424 -0.410048
H19   H     H_    0.597361 0.613044 0.029427 0.207821
H20   H     H_    0.552625 0.759193 0.059018 0.202740

loop_
_geom_bond_atom_site_label_1
_geom_bond_atom_site_label_2
_ccdc_geom_bond_type
N8    H12   S    
N7    H10   S    
C5    H3    S    
C20   O10   S    
C17   O5    A    
C18   O6    A    
N3    N4    D    
C23   C29   A    
C24   C26   A    
N12   H20   S    
C15   C16   D    
C9    H5    S    
C10   H6    S    
N9    H14   S    
C2    O4    A    
C21   N1    A    
C22   N2    A    
C29   C33   S    
C7    C17   S    
C6    H4    S    
C1    C15   S    
C30   C32   A    
C2    C16   S    
C3    C13   A    
N8    H11   S    
C12   N10   S    
C33   N5    T    
Cu1   N4    S    
C34   N6    T    
C32   H2    S    
C20   N2    A    
C19   N1    A    
C15   H7    S    
N10   H16   S    
C5    C7    A    
N12   H19   S    
C1    O1    A    
C6    C8    A    
C20   C28   A    
C2    O2    A    
C25   C26   A    
C8    C18   S    
Cu1   O5    S    
N11   H17   S    
C21   O11   S    
C9    C11   A    
Cu1   Cu2   S    
Cu2   N3    S    
N11   H18   S    
C10   C12   A    
C4    C6    A    
C12   C14   A    
C21   C23   A    
Cu1   O1    S    
C22   C24   A    
Cu2   O2    S    
C17   O7    A    
C19   C27   A    
N4    N12   S    
C19   O9    S    
Cu1   O8    S    
C7    C9    A    
Cu2   O3    S    
C27   C32   A    
C16   H8    S    
Cu2   O6    S    
C28   C31   A    
N10   H15   S    
C3    C5    A    
C22   O12   S    
C11   N9    S    
C3    N7    S    
C25   C27   A    
C26   C28   A    
N3    N11   S    
Cu1   O4    S    
C29   C31   A    
C4    N8    S    
C11   C13   A    
C31   H1    S    
C23   C25   A    
C4    C14   A    
N9    H13   S    
C24   C30   A    
C18   O8    A    
N7    H9    S    
Cu2   O7    S    
C8    C10   A    
C30   C34   S    
C1    O3    A    
C13   N2    S    
C14   N1    S    
