data_mof_unit_36019.cif
_audit_creation_date              2012-12-10T17:31:55-0500
_audit_creation_method            fapswitch 2.2
_symmetry_space_group_name_H-M    P1
_symmetry_Int_Tables_number       1
_space_group_crystal_system       triclinic
_cell_length_a                    12.160361
_cell_length_b                    11.481679
_cell_length_c                    12.728005
_cell_angle_alpha                 91.486232
_cell_angle_beta                  94.998831
_cell_angle_gamma                 88.904469
_cell_volume                      1769.49294241

loop_
_atom_site_label
_atom_site_type_symbol
_atom_type_description
_atom_site_fract_x
_atom_site_fract_y
_atom_site_fract_z
_atom_type_partial_charge
C1    C     C_R   0.476990 0.506829 0.299810 0.886818
C2    C     C_R   0.523215 0.498090 0.699881 0.933176
C3    C     C_R   0.054481 0.631008 0.576407 -0.356836
C4    C     C_R   0.945133 0.380436 0.411942 -0.336613
C5    C     C_R   0.167591 0.616686 0.568315 0.003325
C6    C     C_R   0.832033 0.393485 0.418836 0.033834
C7    C     C_R   0.136255 0.435488 0.476637 0.185437
C8    C     C_R   0.862180 0.560380 0.532487 0.204669
C9    C     C_R   0.020223 0.455782 0.469785 0.052636
C10   C     C_R   0.978458 0.551059 0.525821 0.068235
C11   C     C_R   0.497954 0.282518 0.499814 0.940960
C12   C     C_R   0.501961 0.717476 0.499820 0.912484
C13   C     C_1   0.494820 0.161945 0.499825 -0.159296
C14   C     C_1   0.504768 0.838026 0.498717 -0.151254
C15   C     C_1   0.497193 0.059428 0.499320 -0.011620
C16   C     C_1   0.502268 0.940527 0.498633 0.003962
C17   C     C_R   0.539660 0.510615 0.811635 -0.153747
C18   C     C_R   0.459672 0.520219 0.187272 -0.119528
C19   C     C_R   0.367751 0.445305 0.025293 0.148744
C20   C     C_R   0.586014 0.645583 0.957041 0.108839
C21   C     C_R   0.370955 0.463169 0.133477 -0.239876
C22   C     C_R   0.590524 0.611753 0.851734 -0.256470
C23   C     C_R   0.533788 0.583990 0.132922 -0.198261
C24   C     C_R   0.479656 0.441406 0.873550 -0.101019
C25   C     C_R   0.526963 0.573775 0.022051 0.008493
C26   C     C_R   0.458080 0.484760 0.973276 0.075626
H1    H     H_    0.629041 0.667530 0.798470 0.133265
H2    H     H_    0.307784 0.426026 0.176615 0.142927
H3    H     H_    0.775659 0.334053 0.375672 0.140579
H4    H     H_    0.223928 0.680821 0.604405 0.143615
H5    H     H_    0.029065 0.705756 0.621944 0.162207
H6    H     H_    0.972487 0.310962 0.360960 0.162190
N1    N     N_R   0.792200 0.479100 0.480660 -0.110187
N2    N     N_R   0.207800 0.520900 0.519340 -0.105844
O1    O     O_R   0.578300 0.494420 0.341180 -0.600459
O2    O     O_R   0.421700 0.505580 0.658820 -0.595473
O3    O     O_R   0.390690 0.507830 0.353590 -0.633354
O4    O     O_R   0.609310 0.492170 0.646410 -0.647574
O5    O     O_R   0.593810 0.327740 0.493800 -0.624313
O6    O     O_R   0.406190 0.672260 0.506200 -0.627144
O7    O     O_R   0.406190 0.341150 0.506220 -0.611008
O8    O     O_R   0.593810 0.658850 0.493780 -0.611711
Zn1   Zn    Zn3+2 0.625270 0.491050 0.491710 0.957160
Zn2   Zn    Zn3+2 0.374730 0.508950 0.508290 0.950002
C27   C     C_2   0.456753 0.317554 0.841923 0.870420
O9    O     O_2   0.424734 0.290251 0.751071 -0.641320
O10   O     O_R   0.473859 0.231356 0.917605 -0.821978
H7    H     H_    0.455818 0.150614 0.887617 0.336742
C28   C     C_2   0.625039 0.647470 0.193673 0.959450
O11   O     O_2   0.603714 0.728543 0.252918 -0.608594
O12   O     O_R   0.735118 0.612523 0.187456 -0.782302
H8    H     H_    0.743065 0.542232 0.138730 0.302555
C29   C     C_3   0.263189 0.394724 0.968212 -0.422905
C30   C     C_3   0.207734 0.480232 0.888164 -0.349350
C31   C     C_3   0.103000 0.429579 0.831341 -0.851918
H9    H     H_    0.123149 0.349012 0.786202 0.268012
H10   H     H_    0.043006 0.409190 0.888959 0.259415
H11   H     H_    0.064180 0.493962 0.775328 0.251690
H12   H     H_    0.186137 0.562716 0.929838 0.223661
H13   H     H_    0.264653 0.501025 0.827936 0.240978
H14   H     H_    0.279475 0.309741 0.929327 0.228203
H15   H     H_    0.202499 0.376044 0.025878 0.195022
C32   C     C_3   0.628010 0.766916 0.988620 -0.420394
C33   C     C_3   0.533017 0.849953 0.014531 -0.350661
C34   C     C_3   0.575686 0.969969 0.050170 -0.807797
H16   H     H_    0.633263 0.962977 0.122501 0.275639
H17   H     H_    0.619086 0.009369 0.986915 0.263128
H18   H     H_    0.505249 0.027915 0.068121 0.260831
H19   H     H_    0.474226 0.859417 0.943205 0.217522
H20   H     H_    0.487122 0.814732 0.077959 0.244873
H21   H     H_    0.694328 0.764799 0.053519 0.234098
H22   H     H_    0.668312 0.805423 0.922716 0.193017
C35   C     C_3   0.817477 0.656619 0.601430 -0.415814
C36   C     C_3   0.813562 0.775489 0.547577 -0.311811
C37   C     C_3   0.776142 0.872188 0.621707 -0.887708
H23   H     H_    0.695391 0.851151 0.650556 0.257207
H24   H     H_    0.838166 0.883226 0.690502 0.256148
H25   H     H_    0.767354 0.955550 0.579192 0.262425
H26   H     H_    0.895499 0.798204 0.522840 0.214833
H27   H     H_    0.756702 0.772819 0.474606 0.274348
H28   H     H_    0.735773 0.636061 0.624535 0.249591
H29   H     H_    0.868268 0.661590 0.678257 0.167723
C38   C     C_3   0.175453 0.310874 0.457739 -0.370218
C39   C     C_3   0.210343 0.288526 0.345792 -0.342071
C40   C     C_3   0.221223 0.158398 0.320416 -0.894401
H30   H     H_    0.280867 0.116288 0.379273 0.274855
H31   H     H_    0.139808 0.116181 0.320650 0.262418
H32   H     H_    0.251299 0.145469 0.240948 0.253382
H33   H     H_    0.148617 0.327612 0.286784 0.206984
H34   H     H_    0.290516 0.328599 0.337362 0.255799
H35   H     H_    0.236582 0.283486 0.521348 0.236961
H36   H     H_    0.109064 0.249295 0.471155 0.173719

loop_
_geom_bond_atom_site_label_1
_geom_bond_atom_site_label_2
_ccdc_geom_bond_type
C7    C38   S    
C31   H9    S    
C18   C21   A    
C35   C36   S    
C30   H13   S    
C29   C30   S    
C38   H36   S    
C1    C18   S    
C24   C27   S    
C19   C21   A    
C24   C26   A    
C23   C28   S    
C20   C25   A    
C15   C16   S    
C19   C26   A    
C12   O8    A    
C29   H14   S    
C38   C39   S    
C34   H17   S    
C33   H20   S    
O1    Zn1   S    
C9    C10   A    
C1    O3    A    
C19   C29   S    
C27   O10   S    
C36   H27   S    
C2    C17   S    
C39   H34   S    
C35   H28   S    
C30   H12   S    
C40   H31   S    
C17   C24   A    
C36   C37   S    
C18   C23   A    
N1    Zn1   S    
N2    Zn2   S    
C39   C40   S    
C4    C6    A    
O5    Zn1   S    
C28   O12   S    
C25   C26   A    
C40   H30   S    
O12   H8    S    
C12   O6    A    
C3    H5    S    
C37   H23   S    
C29   H15   S    
C2    O4    A    
O10   H7    S    
C34   H18   S    
C5    N2    A    
C33   H19   S    
C11   O5    A    
C37   H24   S    
C4    H6    S    
C21   H2    S    
C20   C22   A    
C28   O11   D    
C36   H26   S    
C31   H10   S    
O7    Zn2   S    
C14   C16   T    
O2    Zn2   S    
O8    Zn1   S    
C35   H29   S    
C1    O1    A    
C5    H4    S    
C40   H32   S    
C2    O2    A    
C7    C9    A    
C30   C31   S    
C12   C14   S    
C3    C5    A    
C38   H35   S    
C17   C22   A    
C6    N1    A    
C22   H1    S    
C33   C34   S    
C20   C32   S    
C13   C15   T    
O4    Zn1   S    
C3    C10   A    
C11   C13   S    
O3    Zn2   S    
C8    C35   S    
C7    N2    A    
C11   O7    A    
C8    N1    A    
C23   C25   A    
C37   H25   S    
C32   C33   S    
C27   O9    D    
O6    Zn2   S    
C6    H3    S    
C32   H22   S    
C8    C10   A    
C34   H16   S    
C39   H33   S    
C31   H11   S    
C4    C9    A    
C32   H21   S    
