data_mof_unit_41725.cif
_audit_creation_date              2013-03-05T16:17:28-0500
_audit_creation_method            fapswitch 2.2
_symmetry_space_group_name_H-M    P1
_symmetry_Int_Tables_number       1
_space_group_crystal_system       triclinic
_cell_length_a                    30.384996
_cell_length_b                    34.112453
_cell_length_c                    8.451651
_cell_angle_alpha                 89.999941
_cell_angle_beta                  90.227152
_cell_angle_gamma                 90.020225
_cell_volume                      8760.12390231

loop_
_atom_site_label
_atom_site_type_symbol
_atom_site_description
_atom_site_fract_x
_atom_site_fract_y
_atom_site_fract_z
_atom_type_partial_charge
P1    P     P_3+3 0.909970 0.458430 0.077330 0.558854
P2    P     P_3+3 0.909970 0.541570 0.577330 0.521781
P3    P     P_3+3 0.409970 0.958430 0.077330 0.523345
P4    P     P_3+3 0.409970 0.041570 0.577330 0.559532
O1    O     O_2   0.914200 0.445720 0.903420 -0.327805
O2    O     O_2   0.914200 0.554280 0.403420 -0.314120
O3    O     O_2   0.414200 0.945720 0.903420 -0.312645
O4    O     O_2   0.414200 0.054280 0.403420 -0.329321
O5    O     O_3   0.950020 0.480960 0.143730 -0.369440
O6    O     O_3   0.950020 0.519040 0.643730 -0.367322
O7    O     O_3   0.450020 0.980960 0.143730 -0.369196
O8    O     O_3   0.450020 0.019040 0.643730 -0.367666
O9    O     O_3   0.985090 0.412220 0.642040 -0.388982
O10   O     O_3   0.985090 0.587780 0.142040 -0.376725
O11   O     O_3   0.485090 0.912220 0.642040 -0.379812
O12   O     O_3   0.485090 0.087780 0.142040 -0.388980
O13   O     O_2   0.912343 0.380262 0.761971 -0.340931
O14   O     O_2   0.914786 0.623197 0.259318 -0.321299
O15   O     O_2   0.413546 0.877847 0.755437 -0.293263
O16   O     O_2   0.412361 0.119723 0.262252 -0.341594
O17   O     O_3   0.859723 0.484209 0.087990 -0.595619
O18   O     O_3   0.863810 0.510298 0.592221 -0.626365
O19   O     O_3   0.363524 0.989286 0.092665 -0.629524
O20   O     O_3   0.359701 0.015815 0.588263 -0.595343
O21   O     O_3   0.971569 0.330196 0.669472 -0.538795
O22   O     O_3   0.976998 0.670902 0.167819 -0.547367
O23   O     O_3   0.474943 0.828646 0.673893 -0.533258
O24   O     O_3   0.471514 0.169792 0.168955 -0.538657
H1    H     H_    0.034130 0.352208 0.628225 0.128128
H2    H     H_    0.037192 0.642164 0.157595 0.144307
H3    H     H_    0.534716 0.856423 0.708825 0.166004
H4    H     H_    0.534085 0.147943 0.126744 0.127548
C1    C     C_3   0.033497 0.289621 0.618244 -0.861471
C2    C     C_3   0.045937 0.703982 0.156340 -0.809443
C3    C     C_3   0.543272 0.794441 0.685319 -0.795353
C4    C     C_3   0.533219 0.210533 0.115923 -0.861766
H5    H     H_    0.040226 0.286269 0.746744 0.263636
H6    H     H_    0.044117 0.708205 0.286201 0.265001
H7    H     H_    0.534949 0.786102 0.808559 0.276176
H8    H     H_    0.540121 0.214018 0.244280 0.263211
H9    H     H_    0.011978 0.265291 0.577487 0.260889
H10   H     H_    0.032944 0.730428 0.095471 0.258161
H11   H     H_    0.533170 0.770400 0.604349 0.249518
H12   H     H_    0.511542 0.234755 0.075237 0.260771
P5    P     P_3+3 0.089830 0.458070 0.612460 0.483201
P6    P     P_3+3 0.089830 0.541930 0.112460 0.480512
P7    P     P_3+3 0.589830 0.958070 0.612460 0.477197
P8    P     P_3+3 0.589830 0.041930 0.112460 0.482825
P9    P     P_3+3 0.057076 0.377734 0.067441 0.451966
P10   P     P_3+3 0.057314 0.622124 0.567827 0.442014
P11   P     P_3+3 0.557837 0.878449 0.068663 0.450249
P12   P     P_3+3 0.557156 0.122211 0.567317 0.452364
O25   O     O_2   0.085560 0.445380 0.786390 -0.367427
O26   O     O_2   0.085560 0.554620 0.286390 -0.367789
O27   O     O_2   0.585560 0.945380 0.786390 -0.367689
O28   O     O_2   0.585560 0.054620 0.286390 -0.367955
O29   O     O_3   0.014550 0.412170 0.047860 -0.406625
O30   O     O_3   0.014550 0.587830 0.547860 -0.403316
O31   O     O_3   0.514550 0.912170 0.047860 -0.383613
O32   O     O_3   0.514550 0.087830 0.547860 -0.406771
O33   O     O_2   0.081954 0.376955 0.908091 -0.392380
O34   O     O_2   0.082651 0.622621 0.409462 -0.401728
O35   O     O_2   0.585048 0.879380 0.914743 -0.407896
O36   O     O_2   0.581858 0.123127 0.407608 -0.392191
O37   O     O_3   0.137309 0.487013 0.610941 -0.554455
O38   O     O_3   0.137196 0.512868 0.111549 -0.554755
O39   O     O_3   0.637418 0.986869 0.611293 -0.554642
O40   O     O_3   0.637069 0.012679 0.111460 -0.554315
O41   O     O_3   0.034277 0.330602 0.078385 -0.516482
O42   O     O_3   0.034975 0.669436 0.577364 -0.524191
O43   O     O_3   0.535237 0.831319 0.066071 -0.513910
O44   O     O_3   0.534413 0.169335 0.579353 -0.516512
C5    C     C_3   0.988248 0.333525 0.071121 0.423584
C6    C     C_3   0.988957 0.666797 0.568720 0.416382
C7    C     C_3   0.497492 0.830808 0.161586 0.439238
C8    C     C_3   0.488389 0.166458 0.571017 0.424046
H13   H     H_    0.977543 0.350078 0.964630 0.163104
H14   H     H_    0.978380 0.650023 0.462686 0.165086
H15   H     H_    0.468391 0.839710 0.090038 0.111408
H16   H     H_    0.477834 0.150078 0.463887 0.163395
H17   H     H_    0.975642 0.348011 0.179407 0.017703
H18   H     H_    0.976034 0.652698 0.677196 0.028332
H19   H     H_    0.500292 0.850523 0.265554 -0.002447
H20   H     H_    0.475575 0.151811 0.678648 0.017828
C9    C     C_3   0.968503 0.292714 0.060359 -0.838916
C10   C     C_3   0.969476 0.707659 0.555796 -0.831954
C11   C     C_3   0.490553 0.789455 0.223554 -0.876246
C12   C     C_3   0.468730 0.207300 0.560911 -0.840029
H21   H     H_    0.932547 0.295075 0.039345 0.239767
H22   H     H_    0.933861 0.705282 0.528399 0.248029
H23   H     H_    0.483037 0.769255 0.123997 0.274682
H24   H     H_    0.432780 0.205001 0.539571 0.240186
H25   H     H_    0.983291 0.276367 0.960224 0.263390
H26   H     H_    0.985402 0.724272 0.458823 0.259590
H27   H     H_    0.520705 0.779203 0.285708 0.262962
H28   H     H_    0.483626 0.223753 0.461234 0.263255
C13   C     C_3   0.129095 0.477220 0.186800 0.411675
C14   C     C_3   0.129350 0.522709 0.686032 0.406917
C15   C     C_3   0.628714 0.977035 0.186673 0.407463
C16   C     C_3   0.629477 0.022633 0.685920 0.412113
H29   H     H_    0.111576 0.481527 0.300057 0.109248
H30   H     H_    0.112394 0.518390 0.800406 0.109416
H31   H     H_    0.611776 0.981526 0.300928 0.108897
H32   H     H_    0.612066 0.018483 0.799531 0.108918
H33   H     H_    0.109422 0.458173 0.107029 0.096251
H34   H     H_    0.109205 0.541606 0.607223 0.097813
H35   H     H_    0.608372 0.958222 0.108107 0.100321
H36   H     H_    0.609769 0.041617 0.606046 0.095841
C17   C     C_3   0.173313 0.457968 0.221554 -0.922705
C18   C     C_3   0.173599 0.542228 0.717873 -0.916426
C19   C     C_3   0.672723 0.957148 0.218819 -0.913757
C20   C     C_3   0.673749 0.041899 0.719789 -0.923657
H37   H     H_    0.194320 0.478218 0.291826 0.281669
H38   H     H_    0.195026 0.522179 0.787380 0.281145
H39   H     H_    0.694332 0.977013 0.288513 0.280344
H40   H     H_    0.694776 0.021736 0.790332 0.281699
H41   H     H_    0.168965 0.430715 0.290653 0.224394
H42   H     H_    0.169388 0.569550 0.786620 0.226774
H43   H     H_    0.668159 0.929844 0.287481 0.226422
H44   H     H_    0.669474 0.069255 0.788301 0.224282
H45   H     H_    0.190248 0.450815 0.108980 0.256823
H46   H     H_    0.189995 0.549320 0.604195 0.256101
H47   H     H_    0.689102 0.949932 0.105246 0.256419
H48   H     H_    0.690610 0.048883 0.606887 0.257052
Ba1   Ba    Ba6+2 0.999930 0.472870 0.844940 1.621136
Ba2   Ba    Ba6+2 0.999930 0.527130 0.344940 1.616952
Ba3   Ba    Ba6+2 0.499930 0.972870 0.844940 1.624490
Ba4   Ba    Ba6+2 0.499930 0.027130 0.344940 1.622092
C21   C     C_3   0.851960 0.509065 0.958708 0.566023
C22   C     C_3   0.848364 0.494623 0.448391 0.570575
C23   C     C_3   0.347928 0.004959 0.949108 0.568782
C24   C     C_3   0.351885 0.991087 0.458686 0.568037
H49   H     H_    0.874032 0.502942 0.859549 0.086997
H50   H     H_    0.870803 0.500542 0.350029 0.093382
H51   H     H_    0.370243 0.999098 0.850288 0.094827
H52   H     H_    0.373277 0.997863 0.358431 0.089587
C25   C     C_3   0.803617 0.504795 0.902912 -0.118760
C26   C     C_3   0.802278 0.511036 0.411210 -0.136242
C27   C     C_3   0.301837 0.988411 0.912593 -0.139314
C28   C     C_3   0.303253 0.994663 0.405772 -0.121944
H53   H     H_    0.798088 0.524735 0.800723 0.147890
H54   H     H_    0.791818 0.501644 0.291009 0.135074
H55   H     H_    0.290919 0.998540 0.793809 0.136637
H56   H     H_    0.297642 0.974883 0.303096 0.143937
H57   H     H_    0.781162 0.514095 0.999369 0.147071
H58   H     H_    0.778303 0.498603 0.496854 0.169214
H59   H     H_    0.278048 0.000058 0.000758 0.167704
H60   H     H_    0.281438 0.984794 0.503227 0.148454
O45   O     O_3   0.049930 0.518940 0.045960 -0.390749
O46   O     O_3   0.049930 0.481060 0.545960 -0.392148
O47   O     O_3   0.549930 0.018940 0.045960 -0.392935
O48   O     O_3   0.549930 0.981060 0.545960 -0.392692
P13   P     P_3+3 0.948910 0.627419 0.124599 0.503134
P14   P     P_3+3 0.945901 0.374793 0.626731 0.486730
P15   P     P_3+3 0.445843 0.125152 0.126728 0.486532
P16   P     P_3+3 0.448558 0.872610 0.624369 0.525915
C29   C     C_3   0.011459 0.328783 0.586507 0.367194
C30   C     C_3   0.019846 0.667973 0.107475 0.340344
C31   C     C_3   0.519915 0.832202 0.639778 0.370867
C32   C     C_3   0.511275 0.171268 0.085167 0.367216
H61   H     H_    0.005778 0.331662 0.456810 0.052743
H62   H     H_    0.019125 0.666075 0.975991 0.064660
H63   H     H_    0.525198 0.837533 0.511950 0.037300
H64   H     H_    0.505416 0.168270 0.955604 0.052526
H65   H     H_    0.065087 0.288269 0.553921 0.261392
H66   H     H_    0.080941 0.699727 0.125447 0.243244
H67   H     H_    0.579391 0.798702 0.677573 0.234244
H68   H     H_    0.564708 0.211947 0.050902 0.261815
H69   H     H_    0.974596 0.276433 0.172122 0.265842
H70   H     H_    0.974145 0.723750 0.668863 0.266443
H71   H     H_    0.462878 0.789128 0.308733 0.248046
H72   H     H_    0.474777 0.223435 0.673061 0.265680
H73   H     H_    0.712628 0.343910 0.001258 0.188126
H74   H     H_    0.704324 0.655473 0.581441 0.187298
H75   H     H_    0.206086 0.843230 0.071409 0.188539
H76   H     H_    0.212324 0.155896 0.501897 0.188514
H77   H     H_    0.152757 0.794696 0.983963 0.175991
H78   H     H_    0.158467 0.204766 0.423268 0.177469
H79   H     H_    0.658772 0.295024 0.922467 0.177320
H80   H     H_    0.650275 0.703843 0.498527 0.174711
C33   C     C_R   0.927292 0.408590 0.325992 -0.452268
C34   C     C_R   0.929726 0.593547 0.821005 -0.406940
C35   C     C_R   0.430265 0.906128 0.319304 -0.407236
C36   C     C_R   0.427163 0.091361 0.826108 -0.451804
C37   C     C_R   0.250283 0.693043 0.055629 -0.059928
C38   C     C_R   0.247852 0.306844 0.577152 -0.057532
C39   C     C_R   0.748114 0.192976 0.076452 -0.057458
C40   C     C_R   0.747486 0.805937 0.567343 -0.058710
C41   C     C_R   0.217887 0.664837 0.015050 0.532010
C42   C     C_R   0.215556 0.334993 0.535207 0.529972
C43   C     C_R   0.715825 0.164820 0.034383 0.529736
C44   C     C_R   0.715173 0.833945 0.524704 0.529747
O49   O     O_2   0.227339 0.630020 0.017136 -0.578845
O50   O     O_2   0.223609 0.369835 0.552531 -0.581782
O51   O     O_2   0.723866 0.129978 0.051658 -0.581820
O52   O     O_2   0.724726 0.868753 0.523863 -0.579548
N1    N     N_R   0.175823 0.676360 0.970780 -0.166789
N2    N     N_R   0.175274 0.323474 0.472548 -0.165228
N3    N     N_R   0.675558 0.176331 0.971691 -0.165287
N4    N     N_R   0.673043 0.822272 0.482020 -0.166790
C45   C     C_R   0.165453 0.715952 0.963519 0.511033
C46   C     C_R   0.166806 0.283914 0.447881 0.519575
C47   C     C_R   0.667090 0.215885 0.947083 0.519998
C48   C     C_R   0.662341 0.782730 0.479419 0.513447
O53   O     O_2   0.129263 0.726221 0.915709 -0.588824
O54   O     O_2   0.131870 0.273719 0.388966 -0.593247
O55   O     O_2   0.632151 0.226064 0.888210 -0.593309
O56   O     O_2   0.625507 0.772487 0.438201 -0.598825
C49   C     C_R   0.196349 0.744719 0.011727 -0.049704
C50   C     C_R   0.198110 0.255033 0.491402 -0.052648
C51   C     C_R   0.698395 0.244773 0.990650 -0.052726
C52   C     C_R   0.693607 0.754044 0.525494 -0.049475
C53   C     C_R   0.239133 0.733154 0.056528 -0.011600
C54   C     C_R   0.238880 0.266632 0.556111 -0.012809
C55   C     C_R   0.739151 0.233184 0.055436 -0.012864
C56   C     C_R   0.736487 0.765786 0.568742 -0.012958
C57   C     C_R   0.293613 0.682100 0.095477 -0.114665
C58   C     C_R   0.289025 0.317993 0.639538 -0.116824
C59   C     C_R   0.789265 0.181837 0.138970 -0.116822
C60   C     C_R   0.790596 0.817165 0.608855 -0.115704
C61   C     C_R   0.820780 0.209993 0.180081 -0.111044
C62   C     C_R   0.822127 0.789153 0.650963 -0.110257
C63   C     C_R   0.325193 0.710364 0.135074 -0.109043
C64   C     C_R   0.320552 0.289847 0.680468 -0.111146
C65   C     C_R   0.812123 0.250302 0.161384 -0.034308
C66   C     C_R   0.811541 0.748959 0.654405 -0.034749
C67   C     C_R   0.314284 0.750481 0.139640 -0.042094
C68   C     C_R   0.311885 0.249534 0.661757 -0.034431
C69   C     C_R   0.771105 0.261917 0.099190 -0.013685
C70   C     C_R   0.768502 0.737274 0.613829 -0.015929
C71   C     C_R   0.270946 0.761838 0.101830 -0.015875
C72   C     C_R   0.270843 0.237907 0.599730 -0.013591
C73   C     C_R   0.185408 0.784817 0.016886 -0.112455
C74   C     C_R   0.189495 0.214729 0.472381 -0.108449
C75   C     C_R   0.689790 0.285072 0.971642 -0.108540
C76   C     C_R   0.682952 0.713876 0.530424 -0.113757
C77   C     C_R   0.720840 0.313259 0.017103 -0.077283
C78   C     C_R   0.714095 0.686005 0.578312 -0.074777
C79   C     C_R   0.216126 0.812781 0.067361 -0.072991
C80   C     C_R   0.220549 0.186550 0.517747 -0.077121
C81   C     C_R   0.761825 0.302137 0.081312 -0.091429
C82   C     C_R   0.757211 0.697254 0.620157 -0.089270
C83   C     C_R   0.259234 0.801743 0.109919 -0.086902
C84   C     C_R   0.261553 0.197682 0.581849 -0.091530
C85   C     C_R   0.793448 0.330351 0.129316 0.578289
C86   C     C_R   0.789090 0.669451 0.669657 0.584787
C87   C     C_R   0.290715 0.829636 0.161713 0.580141
C88   C     C_R   0.293184 0.169475 0.629739 0.577954
N5    N     N_R   0.834288 0.318904 0.188259 -0.171366
N6    N     N_R   0.832091 0.680715 0.702309 -0.172545
N7    N     N_R   0.333894 0.818686 0.192740 -0.173111
N8    N     N_R   0.334044 0.180934 0.688558 -0.171373
C89   C     C_R   0.843613 0.279118 0.203645 0.498897
C90   C     C_R   0.843085 0.720302 0.697546 0.501098
C91   C     C_R   0.345765 0.779439 0.180653 0.520609
C92   C     C_R   0.343390 0.220726 0.703830 0.499134
C93   C     C_2   0.122869 0.645278 0.779602 -0.143388
C94   C     C_2   0.123008 0.355038 0.279154 -0.149502
C95   C     C_2   0.623294 0.144726 0.778373 -0.149545
C96   C     C_2   0.620537 0.852930 0.288159 -0.161312
C97   C     C_3   0.095602 0.612316 0.737069 0.168718
C98   C     C_3   0.095431 0.387800 0.236642 0.159402
C99   C     C_3   0.595626 0.111995 0.736001 0.158578
C100  C     C_3   0.594850 0.886632 0.242550 0.162143
C101  C     C_1   0.097768 0.588287 0.005972 0.280259
C102  C     C_1   0.097116 0.411554 0.506259 0.281998
C103  C     C_1   0.597292 0.088347 0.005831 0.280878
C104  C     C_1   0.596897 0.911462 0.508958 0.293478
C105  C     C_2   0.128977 0.616152 0.049030 -0.234608
C106  C     C_2   0.127601 0.383254 0.550590 -0.213600
C107  C     C_2   0.627829 0.116617 0.049995 -0.213364
C108  C     C_2   0.627211 0.883221 0.555076 -0.236680
C109  C     C_2   0.142790 0.646740 0.931284 0.111979
C110  C     C_2   0.142155 0.353053 0.432319 0.108239
C111  C     C_2   0.642426 0.146752 0.931547 0.108775
C112  C     C_2   0.640224 0.851798 0.440284 0.123938
C113  C     C_R   0.886010 0.345929 0.382495 -0.138237
C114  C     C_R   0.888057 0.655715 0.883637 -0.135787
C115  C     C_R   0.389034 0.843478 0.378299 -0.175137
C116  C     C_R   0.385804 0.153946 0.882739 -0.139025
C117  C     C_R   0.918550 0.375619 0.432472 0.245103
C118  C     C_R   0.921786 0.626771 0.928846 0.253936
C119  C     C_R   0.422250 0.872767 0.426507 0.241870
C120  C     C_R   0.418368 0.124281 0.932684 0.245242
C121  C     C_R   0.906109 0.411297 0.187387 0.288324
C122  C     C_R   0.904505 0.588508 0.691954 0.227714
C123  C     C_R   0.405053 0.911354 0.190374 0.237106
C124  C     C_R   0.405998 0.088652 0.687490 0.287277
C125  C     C_R   0.877091 0.380942 0.138994 -0.144316
C126  C     C_R   0.872779 0.617521 0.651731 -0.174100
C127  C     C_R   0.373721 0.882300 0.148170 -0.160257
C128  C     C_R   0.376861 0.118916 0.639259 -0.144056
C129  C     C_R   0.866669 0.348437 0.238125 0.106479
C130  C     C_R   0.865098 0.651349 0.747413 0.127165
C131  C     C_R   0.366375 0.848111 0.241391 0.144300
C132  C     C_R   0.366431 0.151415 0.738400 0.107103
O57   O     O_2   0.784177 0.365143 0.121153 -0.503794
O58   O     O_2   0.778191 0.635326 0.687571 -0.500895
O59   O     O_2   0.279390 0.863568 0.182286 -0.504299
O60   O     O_2   0.283902 0.134680 0.621576 -0.503531
O61   O     O_2   0.879488 0.268637 0.253788 -0.605741
O62   O     O_2   0.880401 0.730741 0.731275 -0.609162
O63   O     O_2   0.383857 0.769652 0.204776 -0.605419
O64   O     O_2   0.379299 0.231220 0.753690 -0.605697
C133  C     C_2   0.073533 0.595991 0.871496 -0.480330
C134  C     C_2   0.073154 0.403968 0.371042 -0.475798
C135  C     C_2   0.573349 0.095876 0.870537 -0.473889
C136  C     C_2   0.572820 0.904071 0.374196 -0.492500
H81   H     H_    0.851987 0.200015 0.227577 0.174473
H82   H     H_    0.854906 0.799168 0.681574 0.174504
H83   H     H_    0.358187 0.700597 0.163812 0.172959
H84   H     H_    0.351776 0.299836 0.727845 0.174387
H85   H     H_    0.877613 0.322545 0.463494 0.166350
H86   H     H_    0.881587 0.680141 0.961921 0.160952
H87   H     H_    0.382814 0.818545 0.454243 0.158318
H88   H     H_    0.377421 0.177331 0.963722 0.166297
H89   H     H_    0.303377 0.651564 0.095230 0.174025
H90   H     H_    0.297086 0.348631 0.656872 0.174506
H91   H     H_    0.797315 0.151201 0.156290 0.174564
H92   H     H_    0.800182 0.847753 0.608670 0.174703
H93   H     H_    0.143234 0.615947 0.166903 0.179694
H94   H     H_    0.140874 0.382922 0.669895 0.184281
H95   H     H_    0.641062 0.117010 0.169359 0.183690
H96   H     H_    0.641910 0.884103 0.672175 0.182272
H97   H     H_    0.132495 0.666326 0.689778 0.164117
H98   H     H_    0.133643 0.334740 0.188065 0.168478
H99   H     H_    0.633990 0.164980 0.687187 0.168219
H100  H     H_    0.629528 0.831183 0.200236 0.163407
H101  H     H_    0.861347 0.383185 0.024734 0.213109
H102  H     H_    0.853732 0.613856 0.544861 0.209668
H103  H     H_    0.354741 0.886176 0.041257 0.206025
H104  H     H_    0.361048 0.116590 0.525103 0.212585
H105  H     H_    0.948634 0.431982 0.366172 0.172553
H106  H     H_    0.953892 0.571714 0.853861 0.172926
H107  H     H_    0.454235 0.928054 0.353157 0.171904
H108  H     H_    0.448566 0.068013 0.866165 0.172307
H109  H     H_    0.038039 0.592344 0.872797 0.147717
H110  H     H_    0.037627 0.407412 0.371961 0.150519
H111  H     H_    0.537812 0.092488 0.871596 0.150206
H112  H     H_    0.537676 0.909712 0.372087 0.149406
N9    N     N_R   0.860336 0.548970 0.010609 0.185234
O65   O     O_R   0.894288 0.555240 0.100094 -0.337834
O66   O     O_R   0.833233 0.577597 0.980175 -0.393824
N10   N     N_R   0.844394 0.452085 0.464793 0.193786
O67   O     O_R   0.858173 0.434667 0.592407 -0.320061
O68   O     O_R   0.823012 0.431794 0.359145 -0.392167
N11   N     N_R   0.343938 0.047494 0.965715 0.194502
O69   O     O_R   0.357955 0.064929 0.092989 -0.321160
O70   O     O_R   0.322680 0.067829 0.859938 -0.391782
N12   N     N_R   0.361436 0.951267 0.508606 0.185512
O71   O     O_R   0.395885 0.945538 0.596219 -0.338501
O72   O     O_R   0.334884 0.922182 0.478714 -0.394530
N13   N     N_R   0.791612 0.465031 0.854453 0.280317
O73   O     O_R   0.753160 0.458986 0.790935 -0.336251
O74   O     O_R   0.816731 0.435138 0.884854 -0.293810
N14   N     N_R   0.800775 0.553595 0.419362 0.248258
O75   O     O_R   0.771956 0.570340 0.510180 -0.331969
O76   O     O_R   0.821952 0.574578 0.316420 -0.321603
N15   N     N_R   0.300769 0.945762 0.915564 0.247823
O77   O     O_R   0.269923 0.928094 0.994946 -0.329955
O78   O     O_R   0.323469 0.925873 0.813318 -0.322122
N16   N     N_R   0.290331 0.034367 0.359614 0.279705
O79   O     O_R   0.251213 0.040125 0.301150 -0.335035
O80   O     O_R   0.315775 0.064391 0.384426 -0.294308

loop_
_geom_bond_atom_site_label_1
_geom_bond_atom_site_label_2
_geom_bond_distance
_ccdc_geom_bond_type
C15   H31   1.106713 S    
N5    C89   1.392527 Am   
C11   H23   1.110552 S    
C106  C110  1.503320 S    
C2    H10   1.110398 S    
C96   C100  1.441442 A    
C89   O61   1.221583 D    
C18   H42   1.106025 S    
C105  H93   1.084776 S    
C81   C85   1.417904 A    
O38   C13   1.394599 S    
C46   C50   1.417219 A    
C20   H48   1.110644 S    
C95   C99   1.441724 A    
Ba2   O45   2.966819 S    
C86   O58   1.219757 D    
C61   C65   1.408836 A    
C80   C84   1.408654 A    
C25   H53   1.111647 S    
C68   C92   1.416517 A    
C48   O56   1.221762 D    
C49   C53   1.409037 A    
O42   C6    1.402714 S    
C115  C119  1.476099 S    
P4    O8    1.543292 S    
O6    Ba1   2.766495 S    
C13   H33   1.109303 S    
C135  H111  1.086011 S    
P9    O41   1.753047 S    
O18   C22   1.406828 S    
C22   H50   1.095941 S    
P11   O43   1.748125 S    
C64   C68   1.408864 A    
C5    H17   1.109674 S    
N13   O74   1.298974 A    
N6    C130  1.467096 S    
O32   Ba4   2.723855 S    
C10   H22   1.108722 S    
C20   H44   1.106192 S    
C14   H30   1.106998 S    
C93   H97   1.085816 S    
C38   C42   1.417247 A    
C115  H87   1.082554 S    
C113  H85   1.082251 S    
P12   O44   1.753111 S    
C36   C120  1.464906 S    
C11   H71   1.109178 S    
C48   C52   1.417552 A    
O12   P15   1.750417 S    
C106  H94   1.084555 S    
C101  C133  1.377150 A    
Ba1   O45   2.764455 S    
O39   C16   1.394925 S    
C126  H102  1.078042 S    
C21   H49   1.095565 S    
C93   C97   1.441158 A    
C4    H12   1.110570 S    
C102  C134  1.377077 A    
C44   O52   1.222280 D    
C134  H110  1.085969 S    
C41   N1    1.387311 Am   
O23   P16   1.750785 S    
P12   C99   1.872797 S    
O21   P14   1.746943 S    
O10   Ba2   2.723773 S    
C34   C118  1.474900 S    
P16   C119  1.850648 S    
C67   C91   1.416905 A    
P9    C98   1.872866 S    
C116  H88   1.082253 S    
C14   H34   1.109446 S    
C73   C79   1.399768 A    
C1    H9    1.110328 S    
C50   C54   1.408747 A    
C17   H45   1.110645 S    
P6    C101  1.835829 S    
C115  C131  1.353387 D    
C51   C75   1.408527 A    
O22   C30   1.403717 S    
C44   N4    1.386853 Am   
P10   O42   1.753083 S    
N12   O71   1.294638 A    
O9    P14   1.749969 S    
C92   O64   1.221588 D    
P3    O7    1.542862 S    
C21   C25   1.547786 S    
P7    O48   1.547908 S    
H80   C76   1.083191 S    
C65   C89   1.416341 A    
P8    O47   1.547473 S    
N15   O77   1.302450 A    
C5    H13   1.110178 S    
C79   C83   1.408345 A    
C94   H98   1.085689 S    
C7    H15   1.111612 S    
C88   N8    1.391429 Am   
P10   C97   1.870413 S    
C57   C63   1.399718 A    
C30   H62   1.113263 S    
N3    C111  1.464002 S    
C94   C110  1.418741 A    
C4    H68   1.106289 S    
C35   C119  1.475442 S    
C38   C58   1.407912 A    
C127  H103  1.078189 S    
O29   Ba1   2.724091 S    
H73   C77   1.083229 S    
C59   C61   1.398871 A    
N16   O79   1.300366 A    
O31   Ba3   2.724091 S    
C114  C130  1.352007 D    
C121  C125  1.418924 A    
O24   C32   1.403691 S    
P9    O29   1.753956 S    
C19   H43   1.106367 S    
C58   H90   1.083193 S    
C128  H104  1.079034 S    
Ba3   O47   2.764455 S    
C27   H55   1.111194 S    
O4    Ba4   2.810600 S    
C104  C108  1.387870 A    
C11   H27   1.110875 S    
N2    C46   1.389312 Am   
C108  H96   1.084585 S    
C3    H11   1.110506 S    
C18   H38   1.110844 S    
C53   C71   1.426474 A    
N4    C48   1.387569 Am   
O28   Ba4   2.811132 S    
P5    O25   1.538370 D    
C91   O63   1.221093 D    
C47   C51   1.417037 A    
C94   C98   1.441683 A    
C45   C49   1.416533 A    
C52   C76   1.408479 A    
C9    H69   1.110705 S    
N9    O66   1.302641 A    
C16   H36   1.109402 S    
C128  C132  1.426156 A    
C23   N11   1.462861 S    
H78   C74   1.083196 S    
C62   H82   1.083220 S    
P8    C103  1.836323 S    
C66   C70   1.408094 A    
P2    O18   1.766741 S    
C70   C82   1.408559 A    
C13   C17   1.523209 S    
C24   H52   1.094608 S    
C15   C19   1.523131 S    
N14   O76   1.299030 A    
O19   C23   1.406454 S    
C74   C80   1.399665 A    
O41   C5    1.403265 S    
O17   C21   1.402326 S    
O25   Ba1   2.811739 S    
C7    C11   1.519662 S    
O27   Ba3   2.811739 S    
O30   Ba2   2.723855 S    
P5    O37   1.747934 S    
C124  C128  1.418980 A    
P2    Ba2   3.408141 S    
C20   H40   1.110847 S    
C85   N5    1.391397 Am   
P13   C118  1.845550 S    
C10   H70   1.110636 S    
C1    H65   1.105964 S    
C8    H16   1.110161 S    
C114  H86   1.082524 S    
C33   H105  1.081883 S    
C37   C41   1.417402 A    
C87   N7    1.388233 Am   
C35   H107  1.081519 S    
C77   C81   1.408629 A    
C40   C44   1.415813 A    
O9    Ba1   2.723534 S    
C26   N14   1.454141 S    
Ba2   O46   2.765064 S    
C26   H58   1.112856 S    
H75   C79   1.083248 S    
C116  C132  1.355133 D    
C37   C53   1.409774 A    
C31   H63   1.107864 S    
C43   O51   1.222116 D    
C103  C135  1.377028 A    
C96   C112  1.416441 A    
C41   O49   1.222141 D    
P6    O45   1.547473 S    
N10   O67   1.299296 A    
O1    Ba1   2.810000 S    
C45   O53   1.221441 D    
C88   O60   1.221795 D    
O22   P13   1.748905 S    
O11   Ba3   2.723534 S    
O3    Ba3   2.810000 S    
N6    C90   1.391610 Am   
C12   H28   1.110141 S    
C14   C18   1.523125 S    
O16   P15   1.546079 D    
C67   C71   1.408273 A    
C36   H108  1.081899 S    
C54   C72   1.427295 A    
C8    H20   1.109689 S    
P1    C121  1.861403 S    
N13   O73   1.300258 A    
C40   C56   1.409803 A    
C17   H41   1.106028 S    
P3    C123  1.874813 S    
O26   Ba2   2.811132 S    
C82   C86   1.417833 A    
P1    O1    1.538320 D    
C32   H64   1.113401 S    
C25   H57   1.111451 S    
O37   C14   1.394800 S    
P6    O38   1.747934 S    
P3    O3    1.538320 D    
C86   N6    1.388436 Am   
P4    O20   1.764536 S    
H2    C30   1.109483 S    
P5    O46   1.547908 S    
C136  H112  1.085201 S    
C101  C105  1.389922 A    
C103  C107  1.388127 A    
C34   H106  1.081575 S    
O24   P15   1.746896 S    
C95   C111  1.418675 A    
C33   C121  1.337603 D    
O44   C8    1.403335 S    
C35   C123  1.341461 D    
C126  C130  1.428876 A    
N3    C47   1.389182 Am   
O15   P16   1.549272 D    
C6    H18   1.108489 S    
O13   P14   1.546062 D    
C1    C29   1.517945 S    
C34   C122  1.341541 D    
C40   C60   1.407691 A    
C61   H81   1.083210 S    
P9    O33   1.547252 D    
P4    Ba4   3.408141 S    
C19   H47   1.110649 S    
P10   O30   1.755721 S    
P11   O35   1.544472 D    
O2    Ba2   2.810600 S    
C26   H54   1.110447 S    
N11   O69   1.299380 A    
C122  C126  1.422132 A    
H1    C29   1.111322 S    
C1    H5    1.110233 S    
C84   C88   1.418106 A    
C2    H6    1.108551 S    
C3    H7    1.109860 S    
C22   N10   1.462675 S    
P8    Ba4   3.408631 S    
C69   C81   1.408782 A    
O20   C24   1.401808 S    
N7    C91   1.390557 Am   
C108  C112  1.499987 S    
C107  H95   1.084592 S    
P6    O26   1.538396 D    
P1    O5    1.542862 S    
P8    O40   1.748453 S    
P7    Ba3   3.408917 S    
C125  H101  1.078708 S    
P5    C102  1.836932 S    
H76   C80   1.083229 S    
C16   C20   1.523092 S    
C83   C87   1.417063 A    
C22   C26   1.539564 S    
P12   O36   1.547352 D    
Ba1   Ba2   4.613413 S    
Ba3   Ba4   4.613413 S    
C29   H61   1.113333 S    
C68   C72   1.407757 A    
N5    C129  1.468552 S    
C42   N2    1.388308 Am   
C113  C117  1.475718 S    
C9    H21   1.109126 S    
C72   C84   1.408805 A    
H3    C31   1.105951 S    
C28   H56   1.111805 S    
P1    Ba1   3.407862 S    
C58   C64   1.398978 A    
C24   C28   1.547021 S    
C15   H35   1.109604 S    
C105  C109  1.502733 S    
N7    C131  1.465172 S    
C97   C133  1.434005 A    
C18   H46   1.110652 S    
C7    H19   1.109504 S    
N16   O80   1.299546 A    
C24   N12   1.451454 S    
C76   C78   1.400291 A    
C63   C67   1.408743 A    
C50   C74   1.408580 A    
C125  C129  1.426032 A    
Ba1   O46   2.966716 S    
C85   O57   1.221805 D    
C6    H14   1.109691 S    
C57   H89   1.083171 S    
C127  C131  1.425463 A    
P14   C117  1.837436 S    
C25   N13   1.462599 S    
C2    H66   1.105817 S    
O23   C31   1.402879 S    
P7    C104  1.827790 S    
C51   C55   1.408772 A    
P1    O17   1.764783 S    
C12   H72   1.110714 S    
P3    O19   1.766023 S    
P4    O4    1.538295 D    
C28   H60   1.111441 S    
C60   C62   1.398443 A    
O8    Ba3   2.766495 S    
C39   C59   1.407870 A    
N9    O65   1.294480 A    
C28   N16   1.462857 S    
C27   H59   1.113564 S    
P4    C124  1.860637 S    
C37   C57   1.408166 A    
N12   O72   1.302640 A    
C43   N3    1.388216 Am   
C107  C111  1.502914 S    
C23   H51   1.096273 S    
H74   C78   1.083241 S    
P3    Ba3   3.407862 S    
C62   C66   1.408550 A    
N1    C109  1.461637 S    
C133  H109  1.085680 S    
P15   C120  1.837537 S    
C27   N15   1.455421 S    
C10   H26   1.109043 S    
C16   H32   1.107196 S    
C12   H24   1.109182 S    
P5    Ba1   3.408917 S    
C56   C70   1.426601 A    
N1    C45   1.388291 Am   
P12   O32   1.753773 S    
C100  C136  1.430406 A    
C39   C43   1.417039 A    
C17   H37   1.110855 S    
P2    C122  1.879174 S    
C36   C124  1.337393 D    
C75   C77   1.399563 A    
C63   H83   1.083199 S    
P2    O2    1.538295 D    
C9    H25   1.110085 S    
C64   H84   1.083204 S    
P7    O39   1.747895 S    
C104  C136  1.374515 A    
Ba4   O48   2.765064 S    
C49   C73   1.408507 A    
C39   C55   1.409566 A    
C52   C56   1.409800 A    
C4    H8    1.110469 S    
C23   C27   1.539889 S    
H79   C75   1.083198 S    
C102  C106  1.388589 A    
C4    C32   1.517964 S    
H77   C73   1.083200 S    
C114  C118  1.472677 S    
N4    C112  1.459855 S    
C47   O55   1.221166 D    
C98   C134  1.434917 A    
C87   O59   1.220316 D    
C71   C83   1.408831 A    
C33   C117  1.465296 S    
Ba3   O48   2.966716 S    
N11   O70   1.301305 A    
Ba4   O47   2.966819 S    
C3    H67   1.109222 S    
N15   O78   1.299180 A    
C95   H99   1.085700 S    
C6    C10   1.518321 S    
O12   Ba4   2.723773 S    
O11   P16   1.754375 S    
O14   P13   1.549683 D    
C2    C30   1.518111 S    
N10   O68   1.301365 A    
O10   P13   1.748827 S    
C21   N9    1.452282 S    
P10   O34   1.546809 D    
C123  C127  1.418625 A    
P11   O31   1.755947 S    
P2    O6    1.543292 S    
C96   H100  1.085765 S    
P7    O27   1.538370 D    
C5    C9    1.518322 S    
P8    O28   1.538396 D    
C8    C12   1.518327 S    
C55   C69   1.427107 A    
P6    Ba2   3.408631 S    
C116  C120  1.475998 S    
C90   O62   1.221020 D    
N2    C110  1.464375 S    
P11   C100  1.867946 S    
C78   C82   1.408768 A    
C93   C109  1.416370 A    
O5    Ba2   2.765885 S    
N8    C92   1.392572 Am   
O7    Ba4   2.765885 S    
O40   C15   1.395711 S    
C99   C135  1.435011 A    
O43   C7    1.405212 S    
C38   C54   1.409562 A    
N14   O75   1.299188 A    
C3    C31   1.519726 S    
C42   O50   1.222100 D    
O21   C29   1.403513 S    
C66   C90   1.416009 A    
C113  C129  1.354934 D    
C65   C69   1.407755 A    
C46   O54   1.221164 D    
C19   H39   1.110833 S    
C59   H91   1.083197 S    
C13   H29   1.106932 S    
C60   H92   1.083213 S    
H4    C32   1.111497 S    
N8    C132  1.468765 S    
