data_mof_unit_45975.cif
_audit_creation_date              2012-12-10T18:24:40-0500
_audit_creation_method            fapswitch 2.2
_symmetry_space_group_name_H-M    P1
_symmetry_Int_Tables_number       1
_space_group_crystal_system       triclinic
_cell_length_a                    14.364912
_cell_length_b                    15.114852
_cell_length_c                    16.884924
_cell_angle_alpha                 89.56858
_cell_angle_beta                  83.398535
_cell_angle_gamma                 93.625355
_cell_volume                      3634.11434938

loop_
_atom_site_label
_atom_site_type_symbol
_atom_type_description
_atom_site_fract_x
_atom_site_fract_y
_atom_site_fract_z
_atom_type_partial_charge
C1    C     C_R   0.501960 0.673098 0.498989 0.881479
C2    C     C_R   0.497607 0.326737 0.499869 0.866222
C3    C     C_R   0.441049 0.181929 0.566097 -0.068015
C4    C     C_R   0.523675 0.818219 0.425283 -0.057961
C5    C     C_R   0.491314 0.229700 0.500172 -0.149311
C6    C     C_R   0.500932 0.769682 0.498114 -0.158240
C7    C     C_R   0.532679 0.183890 0.433388 -0.107769
C8    C     C_R   0.455147 0.810426 0.566196 -0.077800
C9    C     C_R   0.505419 0.093893 0.424646 0.025416
C10   C     C_R   0.435532 0.900947 0.562403 0.021467
C11   C     C_R   0.467233 0.044550 0.493283 0.024786
C12   C     C_R   0.468876 0.951084 0.493044 0.011472
C13   C     C_R   0.435920 0.088155 0.564110 0.069547
C14   C     C_R   0.504263 0.908530 0.423175 0.067973
C15   C     C_R   0.523000 0.049374 0.351188 -0.015250
C16   C     C_R   0.387191 0.944947 0.627153 -0.016559
C17   C     C_R   0.516807 0.957517 0.351447 -0.286870
C18   C     C_R   0.398567 0.036389 0.630940 -0.278508
C19   C     C_R   0.190542 0.432360 0.537583 0.164991
C20   C     C_R   0.809826 0.573179 0.475063 0.205081
C21   C     C_R   0.209300 0.565186 0.459478 0.016305
C22   C     C_R   0.790094 0.430809 0.535980 0.019760
C23   C     C_R   0.486430 0.506573 0.651957 0.863317
C24   C     C_R   0.513474 0.493506 0.347975 0.840843
C25   C     C_R   0.109398 0.565943 0.459761 -0.019085
C26   C     C_R   0.890165 0.428109 0.534232 -0.020486
C27   C     C_R   0.050109 0.497223 0.497519 0.057646
C28   C     C_R   0.949934 0.496382 0.496519 0.056792
C29   C     C_R   0.090443 0.429598 0.536386 0.028980
C30   C     C_R   0.909379 0.567416 0.463196 0.005961
C31   C     C_R   0.066896 0.634153 0.422083 -0.211598
C32   C     C_R   0.932207 0.359524 0.571411 -0.209152
C33   C     C_R   0.969863 0.635371 0.424791 -0.216617
C34   C     C_R   0.028967 0.360064 0.572296 -0.218565
C35   C     C_R   0.477343 0.522135 0.737291 -0.081518
C36   C     C_R   0.522285 0.474847 0.262954 -0.115576
C37   C     C_R   0.550667 0.566993 0.774311 0.161983
C38   C     C_R   0.449537 0.426996 0.227169 0.141397
C39   C     C_R   0.542744 0.565276 0.857553 -0.163895
C40   C     C_R   0.459138 0.423134 0.144025 -0.171448
C41   C     C_R   0.463239 0.524300 0.901911 0.143042
C42   C     C_R   0.538937 0.462075 0.098617 0.153312
C43   C     C_R   0.386217 0.493174 0.865037 -0.216080
C44   C     C_R   0.614725 0.497384 0.134856 -0.196281
C45   C     C_R   0.393343 0.491798 0.782755 -0.224285
C46   C     C_R   0.606207 0.504250 0.216862 -0.250168
C47   C     C_2   0.463067 0.507121 0.986352 -0.241436
C48   C     C_2   0.538772 0.476364 0.013746 -0.247648
H1    H     H_    0.107381 0.689168 0.391115 0.169335
H2    H     H_    0.891349 0.304117 0.601392 0.166447
H3    H     H_    0.943378 0.690836 0.396207 0.154827
H4    H     H_    0.052972 0.303926 0.601943 0.148470
H5    H     H_    0.663335 0.537645 0.243946 0.174353
H6    H     H_    0.334922 0.462306 0.754729 0.168959
H7    H     H_    0.603202 0.468737 0.974530 0.148741
H8    H     H_    0.398728 0.515054 0.025607 0.149826
H9    H     H_    0.323398 0.464093 0.899663 0.130934
H10   H     H_    0.677195 0.526266 0.099579 0.131168
H11   H     H_    0.404172 0.391971 0.113170 0.146860
H12   H     H_    0.598608 0.593834 0.888919 0.146908
H13   H     H_    0.525470 0.925155 0.294417 0.178314
H14   H     H_    0.373750 0.065396 0.686725 0.171562
N1    N     N_R   0.249970 0.499930 0.499970 -0.145413
N2    N     N_R   0.750030 0.500070 0.500030 -0.140835
O1    O     O_R   0.419720 0.632140 0.499990 -0.627431
O2    O     O_R   0.580280 0.367860 0.500010 -0.609455
O3    O     O_R   0.580270 0.632160 0.499980 -0.623445
O4    O     O_R   0.419730 0.367840 0.500020 -0.624478
O5    O     O_R   0.410240 0.500000 0.615800 -0.632740
O6    O     O_R   0.589760 0.500000 0.384200 -0.609616
O7    O     O_R   0.570790 0.500020 0.615800 -0.639093
O8    O     O_R   0.429210 0.499980 0.384200 -0.634960
Zn1   Zn    Zn3+2 0.392800 0.499980 0.500010 0.916977
Zn2   Zn    Zn3+2 0.607200 0.500020 0.499990 0.935784
C49   C     C_3   0.633561 0.618123 0.725399 -0.367017
C50   C     C_3   0.694267 0.681262 0.771629 -0.957695
H15   H     H_    0.650631 0.727729 0.807559 0.265476
H16   H     H_    0.734714 0.643294 0.810970 0.254511
H17   H     H_    0.745350 0.720809 0.728852 0.252201
H18   H     H_    0.680963 0.571610 0.694486 0.214144
H19   H     H_    0.606229 0.658012 0.678781 0.214901
C51   C     C_3   0.364913 0.379487 0.277261 -0.376835
C52   C     C_3   0.295564 0.324279 0.232266 -0.966686
H20   H     H_    0.261429 0.367392 0.192160 0.259593
H21   H     H_    0.330492 0.271363 0.197614 0.258796
H22   H     H_    0.239678 0.292034 0.275898 0.259484
H23   H     H_    0.391205 0.335001 0.321216 0.200566
H24   H     H_    0.322342 0.428409 0.310361 0.235709
C53   C     C_3   0.231586 0.353461 0.570532 -0.325414
C54   C     C_3   0.236549 0.281348 0.506514 -0.817697
H25   H     H_    0.268892 0.309264 0.447979 0.266899
H26   H     H_    0.278306 0.226632 0.522264 0.245026
H27   H     H_    0.165233 0.252652 0.498771 0.231122
H28   H     H_    0.298569 0.373097 0.592387 0.260067
H29   H     H_    0.190738 0.328261 0.626521 0.153080
C55   C     C_3   0.777446 0.664563 0.491829 -0.385188
C56   C     C_3   0.747411 0.708430 0.418891 -0.792442
H30   H     H_    0.807687 0.731691 0.375490 0.217612
H31   H     H_    0.701259 0.662323 0.387623 0.294328
H32   H     H_    0.710386 0.767378 0.440043 0.243553
H33   H     H_    0.722512 0.661838 0.543444 0.225200
H34   H     H_    0.833772 0.708450 0.513829 0.173351
C57   C     C_R   0.265987 0.634404 0.409572 0.208685
C58   C     C_R   0.276312 0.624105 0.326255 -0.184343
C59   C     C_R   0.297862 0.697724 0.275174 -0.189784
C60   C     C_R   0.309404 0.782462 0.306612 -0.118366
C61   C     C_R   0.298741 0.793693 0.389098 -0.166240
C62   C     C_R   0.276220 0.720376 0.440219 -0.153866
H35   H     H_    0.260337 0.560430 0.300701 0.131927
H36   H     H_    0.304301 0.689181 0.211241 0.137584
H37   H     H_    0.325960 0.839400 0.267106 0.135895
H38   H     H_    0.305074 0.859525 0.413447 0.145806
H39   H     H_    0.260604 0.731100 0.503348 0.118556
C63   C     C_R   0.732826 0.364335 0.588954 0.207939
C64   C     C_R   0.721394 0.277293 0.561998 -0.155849
C65   C     C_R   0.695096 0.206520 0.615352 -0.182154
C66   C     C_R   0.683227 0.221727 0.697285 -0.132290
C67   C     C_R   0.696101 0.307880 0.725417 -0.190598
C68   C     C_R   0.721252 0.378616 0.671646 -0.160604
H40   H     H_    0.740721 0.264559 0.500180 0.159139
H41   H     H_    0.687016 0.139736 0.593323 0.142502
H42   H     H_    0.664273 0.166953 0.738856 0.135567
H43   H     H_    0.688770 0.319593 0.788920 0.134695
H44   H     H_    0.739892 0.442680 0.694909 0.120787
C69   C     C_R   0.404768 0.227713 0.641003 0.119766
C70   C     C_R   0.467644 0.277500 0.683057 -0.147670
C71   C     C_R   0.442845 0.299299 0.762541 -0.140431
C72   C     C_R   0.351872 0.278093 0.799001 -0.120697
C73   C     C_R   0.285630 0.235562 0.755687 -0.171337
C74   C     C_R   0.311854 0.209889 0.677400 -0.192660
H45   H     H_    0.536888 0.296572 0.654996 0.172789
H46   H     H_    0.493952 0.333644 0.795644 0.148297
H47   H     H_    0.332466 0.295572 0.860445 0.126554
H48   H     H_    0.214902 0.219480 0.783664 0.131503
H49   H     H_    0.261375 0.170363 0.647542 0.142526
C75   C     C_R   0.566180 0.777429 0.349990 0.099882
C76   C     C_R   0.648996 0.817044 0.307276 -0.191884
C77   C     C_R   0.677155 0.792893 0.228895 -0.150929
C78   C     C_R   0.621428 0.731444 0.191067 -0.116688
C79   C     C_R   0.539695 0.691871 0.232754 -0.145936
C80   C     C_R   0.515042 0.711505 0.312827 -0.133719
H50   H     H_    0.689482 0.869486 0.333783 0.132466
H51   H     H_    0.740221 0.824300 0.196627 0.124259
H52   H     H_    0.641246 0.714741 0.129472 0.125420
H53   H     H_    0.495272 0.645678 0.202985 0.152977
H54   H     H_    0.453288 0.678811 0.344639 0.176582
C81   C     C_R   0.621770 0.218974 0.386240 0.133642
C82   C     C_R   0.702820 0.170781 0.386157 -0.184005
C83   C     C_R   0.786241 0.199206 0.339709 -0.161138
C84   C     C_R   0.789321 0.274822 0.291493 -0.125334
C85   C     C_R   0.708815 0.321392 0.289251 -0.104599
C86   C     C_R   0.625193 0.293389 0.336144 -0.051760
H55   H     H_    0.701553 0.111649 0.423028 0.129600
H56   H     H_    0.848255 0.162338 0.340855 0.130454
H57   H     H_    0.853717 0.296687 0.255035 0.123707
H58   H     H_    0.711602 0.378203 0.250007 0.139721
H59   H     H_    0.562142 0.326783 0.331690 0.096265
C87   C     C_R   0.438247 0.762939 0.644747 0.089455
C88   C     C_R   0.489925 0.792039 0.706587 -0.174400
C89   C     C_R   0.460616 0.765259 0.785426 -0.135280
C90   C     C_R   0.379789 0.709217 0.803196 -0.070518
C91   C     C_R   0.329495 0.677965 0.741958 -0.111429
C92   C     C_R   0.359193 0.703516 0.662964 -0.106793
H60   H     H_    0.549941 0.839162 0.694172 0.135619
H61   H     H_    0.498888 0.790060 0.833066 0.120477
H62   H     H_    0.356021 0.690124 0.864428 0.122568
H63   H     H_    0.266399 0.635087 0.755868 0.123912
H64   H     H_    0.315894 0.682461 0.617578 0.145015
C93   C     C_R   0.550897 0.094718 0.272899 0.144955
C94   C     C_R   0.494269 0.156506 0.243156 -0.172781
C95   C     C_R   0.521938 0.197708 0.168887 -0.130330
C96   C     C_R   0.605966 0.178218 0.124351 -0.110557
C97   C     C_R   0.662252 0.116361 0.153276 -0.135275
C98   C     C_R   0.634602 0.074176 0.226834 -0.131417
H65   H     H_    0.429111 0.172385 0.277274 0.135153
H66   H     H_    0.478461 0.244505 0.145183 0.138938
H67   H     H_    0.627149 0.210738 0.067209 0.119485
H68   H     H_    0.727264 0.100998 0.118688 0.119555
H69   H     H_    0.679236 0.026556 0.248645 0.119779
C99   C     C_R   0.309369 0.902167 0.682610 0.164639
C100  C     C_R   0.231760 0.859724 0.651699 -0.161085
C101  C     C_R   0.155062 0.824023 0.703011 -0.152584
C102  C     C_R   0.154298 0.832124 0.785464 -0.118396
C103  C     C_R   0.229904 0.876546 0.816690 -0.138585
C104  C     C_R   0.306878 0.912109 0.765565 -0.137280
H70   H     H_    0.230548 0.854880 0.587913 0.115088
H71   H     H_    0.096007 0.790528 0.678812 0.127463
H72   H     H_    0.094873 0.804476 0.825132 0.117447
H73   H     H_    0.228938 0.883351 0.880530 0.119828
H74   H     H_    0.364892 0.946551 0.790555 0.118424

loop_
_geom_bond_atom_site_label_1
_geom_bond_atom_site_label_2
_ccdc_geom_bond_type
C96   H67   S    
C25   C31   A    
C48   H7    S    
C95   C96   A    
C49   C50   S    
C26   C32   A    
C70   C71   A    
C55   H34   S    
C53   H29   S    
C27   C29   A    
C61   H38   S    
C23   O5    A    
C74   H49   S    
C50   H17   S    
C83   H56   S    
C8    C87   S    
C72   C73   A    
C101  C102  A    
C90   C91   A    
C24   O6    A    
C104  H74   S    
C39   C41   A    
C20   C30   A    
C68   H44   S    
C103  C104  A    
C24   C36   S    
C13   C18   A    
C52   H20   S    
C97   H68   S    
C35   C37   A    
C59   H36   S    
C50   H16   S    
C73   C74   A    
C2    O4    A    
C77   H51   S    
C58   H35   S    
C60   C61   A    
C64   C65   A    
O2    Zn2   S    
C100  C101  A    
O1    Zn1   S    
C65   C66   A    
C15   C93   S    
C15   C17   A    
C93   C94   A    
C53   H28   S    
C67   C68   A    
C17   H13   S    
C71   H46   S    
C69   C74   A    
C81   C82   A    
C44   H10   S    
C101  H71   S    
O6    Zn2   S    
C1    O1    A    
C85   C86   A    
C31   C33   A    
C36   C46   A    
C57   C62   A    
C49   H18   S    
C90   H62   S    
C3    C13   A    
C4    C75   S    
C40   C42   A    
C20   C55   S    
C76   C77   A    
C40   H11   S    
C55   H33   S    
C38   C51   S    
C4    C14   A    
C41   C43   A    
C14   C17   A    
C42   C44   A    
C31   H1    S    
C58   C59   A    
C56   H31   S    
C44   C46   A    
C56   H30   S    
C7    C81   S    
C94   H65   S    
C78   C79   A    
C76   H50   S    
C65   H41   S    
C1    C6    S    
C47   C48   D    
C23   O7    A    
C79   C80   A    
C4    C6    A    
C77   C78   A    
C19   N1    A    
C5    C7    A    
C18   H14   S    
C6    C8    A    
N1    Zn1   S    
C2    O2    A    
O4    Zn1   S    
C97   C98   A    
C29   C34   A    
C91   H63   S    
C32   C34   A    
C62   H39   S    
C20   N2    A    
C93   C98   A    
C66   H42   S    
C102  C103  A    
C72   H47   S    
C75   C80   A    
C19   C53   S    
C43   C45   A    
C78   H52   S    
C54   H26   S    
C88   C89   A    
C61   C62   A    
C55   C56   S    
C41   C47   S    
O3    Zn2   S    
C42   C48   S    
C85   H58   S    
C50   H15   S    
O5    Zn1   S    
C67   H43   S    
C9    C11   A    
C32   H2    S    
C10   C12   A    
C87   C92   A    
C80   H54   S    
C16   C18   A    
C52   H21   S    
C12   C14   A    
C45   H6    S    
C51   C52   S    
C23   C35   S    
C84   H57   S    
C22   C26   A    
C69   C70   A    
C2    C5    S    
C33   H3    S    
C82   H55   S    
C60   H37   S    
C19   C29   A    
C57   C58   A    
C56   H32   S    
C96   C97   A    
C24   O8    A    
C54   H27   S    
C91   C92   A    
C59   C60   A    
C7    C9    A    
C21   C25   A    
C86   H59   S    
C30   C33   A    
C84   C85   A    
C26   C28   A    
C49   H19   S    
C63   C68   A    
O8    Zn1   S    
C3    C5    A    
C79   H53   S    
O7    Zn2   S    
C100  H70   S    
C3    C69   S    
C63   C64   A    
C71   C72   A    
C25   C27   A    
C95   H66   S    
C102  H72   S    
C34   H4    S    
C89   C90   A    
C89   H61   S    
C81   C86   A    
C9    C15   A    
C37   C39   A    
C10   C16   A    
C66   C67   A    
C36   C38   A    
C38   C40   A    
C11   C13   A    
C54   H25   S    
C87   C88   A    
C70   H45   S    
C51   H24   S    
C39   H12   S    
C46   H5    S    
C28   C30   A    
C1    O3    A    
C92   H64   S    
C82   C83   A    
C37   C49   S    
C21   N1    A    
C99   C104  A    
C43   H9    S    
C22   N2    A    
C73   H48   S    
C21   C57   S    
C16   C99   S    
C22   C63   S    
C52   H22   S    
C8    C10   A    
C64   H40   S    
C94   C95   A    
C27   C28   A    
N2    Zn2   S    
C88   H60   S    
C75   C76   A    
C53   C54   S    
C83   C84   A    
C98   H69   S    
C103  H73   S    
C99   C100  A    
C51   H23   S    
C11   C12   A    
C47   H8    S    
C35   C45   A    
