data_mof_unit_45865.cif
_audit_creation_date              2012-12-11T15:15:13-0500
_audit_creation_method            fapswitch 2.2
_symmetry_space_group_name_H-M    P1
_symmetry_Int_Tables_number       1
_space_group_crystal_system       triclinic
_cell_length_a                    18.84884
_cell_length_b                    18.789382
_cell_length_c                    20.392849
_cell_angle_alpha                 107.048074
_cell_angle_beta                  106.532341
_cell_angle_gamma                 110.962015
_cell_volume                      5802.16730152

loop_
_atom_site_label
_atom_site_type_symbol
_atom_type_description
_atom_site_fract_x
_atom_site_fract_y
_atom_site_fract_z
_atom_type_partial_charge
C1    C     C_R   0.046967 0.088099 0.344251 0.306544
C2    C     C_R   0.746615 0.002875 0.465324 0.052163
C3    C     C_R   0.772676 0.725635 0.288923 0.033067
C4    C     C_R   0.056201 0.292364 0.553164 0.053584
C5    C     C_R   0.239161 0.190102 0.653993 -0.119451
C6    C     C_R   0.975135 0.799485 0.545659 -0.092987
C7    C     C_R   0.169098 0.933951 0.430566 -0.143034
C8    C     C_R   0.980897 0.051964 0.708909 -0.194924
C9    C     C_R   0.909049 0.911868 0.643157 0.277569
C10   C     C_R   0.238488 0.074249 0.495018 -0.129355
C11   C     C_R   0.160605 0.183636 0.718413 -0.123838
C12   C     C_R   0.754734 0.930145 0.455378 -0.071984
C13   C     C_R   0.052167 0.805059 0.480280 -0.128561
C14   C     C_R   0.242869 0.207900 0.726614 0.036444
C15   C     C_R   0.037721 0.781381 0.535651 0.047426
C16   C     C_R   0.242619 0.005460 0.450729 0.080644
C17   C     C_R   0.930110 0.978306 0.710183 -0.037424
C18   C     C_R   0.050282 0.712457 0.622660 -0.251454
C19   C     C_R   0.078252 0.741543 0.573953 0.110771
C20   C     C_R   0.136977 0.722326 0.554198 -0.210068
C21   C     C_R   0.154526 0.661578 0.569985 0.079866
C22   C     C_R   0.115686 0.622686 0.608786 0.033952
C23   C     C_R   0.848118 0.777285 0.290924 -0.126992
C24   C     C_R   0.067442 0.651860 0.639159 0.152142
C25   C     C_R   0.203044 0.633002 0.540612 -0.270232
C26   C     C_R   0.205245 0.559856 0.541553 0.333960
C27   C     C_R   0.158140 0.514662 0.572369 0.008199
C28   C     C_R   0.117584 0.549231 0.610173 -0.004661
C29   C     C_R   0.071377 0.505738 0.642442 0.167043
C30   C     C_R   0.031502 0.540605 0.679967 -0.209917
C31   C     C_R   0.029477 0.613445 0.678278 -0.196722
C32   C     C_R   0.143674 0.432509 0.560077 -0.180624
C33   C     C_R   0.088965 0.384915 0.583804 0.089891
C34   C     C_R   0.002136 0.237156 0.570492 -0.141451
C35   C     C_R   0.058560 0.424328 0.630051 -0.244050
C36   C     C_R   0.299952 0.932421 0.374960 -0.251936
C37   C     C_R   0.306016 0.008325 0.421508 0.114161
C38   C     C_R   0.376771 0.086244 0.445426 -0.238197
C39   C     C_R   0.445942 0.087813 0.432603 0.133563
C40   C     C_R   0.443288 0.010516 0.393925 0.029144
C41   C     C_R   0.368581 0.932866 0.361803 0.137622
C42   C     C_R   0.520498 0.164770 0.464241 -0.191382
C43   C     C_R   0.594447 0.164447 0.464620 -0.200819
C44   C     C_R   0.594217 0.087145 0.433586 0.136880
C45   C     C_R   0.770690 0.770604 0.355057 -0.133297
C46   C     C_R   0.517629 0.010167 0.394474 0.029050
C47   C     C_R   0.516911 0.932150 0.363180 0.136082
C48   C     C_R   0.440472 0.855895 0.324195 -0.191451
C49   C     C_R   0.366463 0.856255 0.323510 -0.196972
C50   C     C_R   0.669962 0.084833 0.448461 -0.248774
C51   C     C_R   0.669704 0.006488 0.427736 0.115604
C52   C     C_R   0.593282 0.931012 0.378849 -0.245756
C53   C     C_R   0.317849 0.239853 0.797802 0.141653
C54   C     C_R   0.314456 0.266813 0.868167 -0.183190
C55   C     C_R   0.385588 0.300227 0.935773 -0.147502
C56   C     C_R   0.082506 0.245466 0.509774 -0.076665
C57   C     C_R   0.462048 0.307305 0.934661 0.223258
C58   C     C_R   0.464964 0.278094 0.864393 -0.182809
C59   C     C_R   0.393439 0.244207 0.796476 -0.165087
C60   C     C_R   0.692469 0.500448 0.147218 -0.155877
C61   C     C_R   0.746108 0.586273 0.196804 -0.180614
C62   C     C_R   0.636580 0.592636 0.234112 -0.162512
C63   C     C_R   0.583109 0.506742 0.184716 -0.168831
C64   C     C_R   0.609468 0.460986 0.138765 0.221632
C65   C     C_2   0.542121 0.358853 0.004948 -0.218677
C66   C     C_2   0.544839 0.377806 0.074768 -0.223979
C67   C     C_R   0.824432 0.071542 0.520075 -0.131214
C68   C     C_R   0.717767 0.633849 0.239023 0.140621
C69   C     C_R   0.955261 0.025025 0.200641 0.170417
C70   C     C_R   0.929165 0.958133 0.130823 -0.181476
C71   C     C_R   0.888685 0.959238 0.062845 -0.158893
C72   C     C_R   0.873177 0.027304 0.063395 0.216754
C73   C     C_R   0.899214 0.094231 0.133107 -0.183954
C74   C     C_R   0.938815 0.092515 0.201338 -0.117587
C75   C     C_R   0.830956 0.032279 0.841339 -0.158537
C76   C     C_R   0.868177 0.036688 0.791475 -0.177002
C77   C     C_R   0.866245 0.903209 0.777245 -0.108888
C78   C     C_R   0.972910 0.946737 0.281183 -0.189074
C79   C     C_R   0.827623 0.897973 0.825704 -0.176634
C80   C     C_R   0.812392 0.963718 0.860055 0.220802
C81   C     C_2   0.842333 0.035045 0.992246 -0.219506
C82   C     C_2   0.792904 0.965815 0.925120 -0.222614
C83   C     C_R   0.887664 0.972923 0.760317 0.172102
C84   C     C_R   0.993233 0.020624 0.272078 -0.033272
H1    H     H_    0.949989 0.791377 0.585679 0.134772
H2    H     H_    0.144412 0.870703 0.387156 0.090304
H3    H     H_    0.996938 0.115713 0.745316 0.110651
H4    H     H_    0.278081 0.140368 0.511135 0.107361
H5    H     H_    0.097088 0.801106 0.458451 0.099298
H6    H     H_    0.008563 0.730097 0.641941 0.126720
H7    H     H_    0.163055 0.747991 0.520348 0.119136
H8    H     H_    0.707349 0.865248 0.416913 0.097537
H9    H     H_    0.169098 0.403190 0.526343 0.180853
H10   H     H_    0.018745 0.389775 0.651149 0.114120
H11   H     H_    0.997076 0.508438 0.706075 0.130198
H12   H     H_    0.244946 0.871913 0.353775 0.118204
H13   H     H_    0.381539 0.145595 0.479204 0.125228
H14   H     H_    0.522932 0.224703 0.492973 0.139631
H15   H     H_    0.652771 0.224125 0.493802 0.134674
H16   H     H_    0.728491 0.143988 0.482533 0.119669
H17   H     H_    0.876714 0.758112 0.254966 0.086764
H18   H     H_    0.592135 0.870385 0.358891 0.120159
H19   H     H_    0.438933 0.795643 0.298863 0.136211
H20   H     H_    0.308972 0.796266 0.297485 0.134878
H21   H     H_    0.257928 0.265452 0.871827 0.114363
H22   H     H_    0.489648 0.342351 0.081264 0.135989
H23   H     H_    0.523508 0.284154 0.862187 0.118393
H24   H     H_    0.715036 0.465812 0.113792 0.116324
H25   H     H_    0.597635 0.393857 0.998572 0.134091
H26   H     H_    0.381148 0.325146 0.988548 0.114289
H27   H     H_    0.519153 0.477426 0.178795 0.120355
H28   H     H_    0.941213 0.905500 0.128700 0.119846
H29   H     H_    0.882537 0.090357 0.778153 0.117708
H30   H     H_    0.882045 0.854118 0.755105 0.144854
H31   H     H_    0.759232 0.904961 0.924710 0.139895
H32   H     H_    0.889114 0.147835 0.134654 0.129060
H33   H     H_    0.819346 0.083548 0.867205 0.119683
H34   H     H_    0.955406 0.143387 0.254427 0.156180
H35   H     H_    0.729089 0.744201 0.378680 0.127311
H36   H     H_    0.876180 0.096690 0.994162 0.141048
H37   H     H_    0.872847 0.908362 0.010044 0.117042
H38   H     H_    0.815161 0.845406 0.840641 0.116543
H39   H     H_    0.138612 0.272266 0.502168 0.154157
H40   H     H_    0.841895 0.137944 0.541782 0.098949
H41   H     H_    0.931825 0.882401 0.237154 0.119702
H42   H     H_    0.290797 0.199761 0.638421 0.096846
N1    N     N_R   0.052580 0.056040 0.395500 -0.067552
N2    N     N_R   0.954640 0.834860 0.500130 -0.033827
N3    N     N_R   0.122510 0.958490 0.460420 -0.041891
N4    N     N_R   0.990180 0.030970 0.644220 -0.052994
N5    N     N_R   0.947420 0.943960 0.604500 -0.066532
N6    N     N_R   0.165270 0.045500 0.500140 -0.041688
N7    N     N_R   0.109790 0.150600 0.644220 -0.040869
N8    N     N_R   0.002890 0.838860 0.460420 -0.044904
N9    N     N_R   0.834730 0.954500 0.499860 -0.033180
N10   N     N_R   0.890210 0.849400 0.355780 -0.041135
N11   N     N_R   0.997110 0.161140 0.539580 -0.045591
N12   N     N_R   0.841950 0.845400 0.395490 -0.039163
N13   N     N_R   0.045360 0.165140 0.499870 -0.048432
N14   N     N_R   0.877490 0.041510 0.539580 -0.044141
N15   N     N_R   0.009820 0.969030 0.355780 -0.053345
N16   N     N_R   0.158050 0.154600 0.604510 -0.041771
Ni1   Ni    Ni4+2 0.104370 0.104380 0.500010 0.239485
Ni2   Ni    Ni4+2 0.895630 0.895620 0.499990 0.267404
Ni3   Ni    Ni4+2 0.006300 0.904810 0.408930 0.207500
Ni4   Ni    Ni4+2 0.993700 0.095190 0.591070 0.204569
Br1   Br    Br    0.123626 0.198956 0.362025 -0.581876
Br2   Br    Br    0.808197 0.804014 0.592353 -0.607841
H43   H     H_    0.139113 0.185988 0.762299 0.097835
H44   H     H_    0.234923 0.664299 0.512539 0.171322
Br3   Br    Br    0.268238 0.521756 0.494530 -0.516423
H45   H     H_    0.993433 0.636200 0.702980 0.136128
H46   H     H_    0.809239 0.615018 0.201110 0.113562
H47   H     H_    0.613064 0.627350 0.266196 0.119018
H48   H     H_    0.398197 0.222920 0.743340 0.115261
H49   H     H_    0.980439 0.254012 0.613368 0.090172

loop_
_geom_bond_atom_site_label_1
_geom_bond_atom_site_label_2
_ccdc_geom_bond_type
N4    Ni4   S    
C13   N8    A    
C3    C23   A    
C19   C20   A    
C75   H33   S    
C43   C44   A    
C2    C12   A    
C67   H40   S    
C49   H20   S    
C81   C82   D    
C53   C59   A    
C23   H17   S    
C53   C54   A    
C1    C84   A    
C40   C46   A    
N11   N13   A    
C81   H36   S    
C52   H18   S    
N7    N16   A    
C29   C30   A    
C73   H32   S    
C23   N10   A    
C18   C24   A    
C36   C37   A    
C37   C38   A    
C43   H15   S    
C82   H31   S    
C18   C19   A    
C42   H14   S    
N1    N15   A    
C38   C39   A    
C11   C14   A    
C7    H2    S    
C77   C83   A    
C58   H23   S    
C73   C74   A    
C6    C15   A    
C46   C47   A    
N13   Ni1   S    
C11   H43   S    
C3    C68   S    
C12   N9    A    
C5    H42   S    
C70   C71   A    
C11   N7    A    
C75   C80   A    
N3    Ni3   S    
N10   Ni3   S    
C60   H24   S    
N15   Ni3   S    
C16   C37   S    
N3    N6    A    
C45   H35   S    
N6    Ni1   S    
C77   C79   A    
C32   H9    S    
C22   C28   A    
C21   C22   A    
C4    C56   A    
C36   C41   A    
C66   H22   S    
C38   H13   S    
C76   C83   A    
C41   C49   A    
C20   H7    S    
C44   C46   A    
C76   H29   S    
C39   C42   A    
C57   C58   A    
C9    N5    A    
N9    N14   A    
C74   H34   S    
C79   H38   S    
C4    C34   A    
C7    N3    A    
C51   C52   A    
C18   H6    S    
C56   H39   S    
C1    N1    A    
N11   Ni4   S    
N10   N12   A    
C2    C67   A    
C78   N15   A    
N14   Ni4   S    
C39   C40   A    
C56   N13   A    
C59   H48   S    
C4    C33   S    
C58   C59   A    
C63   C64   A    
C48   H19   S    
C3    C45   A    
C62   H47   S    
C25   H44   S    
C17   C83   S    
C64   C66   S    
C15   C19   S    
C75   C76   A    
C30   H11   S    
N2    N8    A    
C36   H12   S    
C47   C48   A    
C10   H4    S    
C62   C63   A    
C50   C51   A    
C26   C27   A    
C69   C74   A    
N1    Ni1   S    
C67   N14   A    
N2    Ni2   S    
C65   H25   S    
C5    C14   A    
C70   H28   S    
C12   H8    S    
C9    C17   A    
C40   C41   A    
C55   C57   A    
C55   H26   S    
C8    N4    A    
C22   C24   A    
C1    Br1   S    
C42   C43   A    
C77   H30   S    
C28   C29   A    
C35   H10   S    
C44   C50   A    
N8    Ni3   S    
C21   C25   A    
C54   C55   A    
C26   Br3   S    
C34   N11   A    
C54   H21   S    
C13   H5    S    
C27   C32   A    
C71   H37   S    
C7    C16   A    
C72   C81   S    
C57   C65   S    
C72   C73   A    
C61   H46   S    
C47   C52   A    
C34   H49   S    
C29   C35   A    
C9    Br2   S    
C50   H16   S    
C8    C17   A    
C62   C68   A    
C60   C64   A    
C8    H3    S    
C32   C33   A    
C13   C15   A    
N4    N5    A    
C25   C26   A    
C24   C31   A    
C6    N2    A    
C71   C72   A    
C69   C84   S    
N12   Ni2   S    
C31   H45   S    
C61   C68   A    
C5    N16   A    
C30   C31   A    
C48   C49   A    
C45   N12   A    
C33   C35   A    
C80   C82   S    
C63   H27   S    
C69   C70   A    
C10   N6    A    
N9    Ni2   S    
C2    C51   S    
C79   C80   A    
C78   C84   A    
C14   C53   S    
C20   C21   A    
C65   C66   D    
C6    H1    S    
C27   C28   A    
N16   Ni1   S    
C60   C61   A    
C10   C16   A    
N7    Ni4   S    
C78   H41   S    
N5    Ni2   S    
