data_mof_unit_19014.cif
_audit_creation_date              2012-10-26T18:49:08-0400
_audit_creation_method            fapswitch 2.2
_symmetry_space_group_name_H-M    P1
_symmetry_Int_Tables_number       1
_space_group_crystal_system       triclinic
_cell_length_a                    10.811977
_cell_length_b                    10.919948
_cell_length_c                    9.69372
_cell_angle_alpha                 89.847909
_cell_angle_beta                  89.8199
_cell_angle_gamma                 90.227317
_cell_volume                      1144.48221039

loop_
_atom_site_label
_atom_site_type_symbol
_atom_type_description
_atom_site_fract_x
_atom_site_fract_y
_atom_site_fract_z
_atom_type_partial_charge
C1    C     C_R   0.499995 0.265435 0.500272 0.556512
C2    C     C_2   0.414974 0.446019 0.077921 0.048812
C3    C     C_R   0.260222 0.502233 0.500724 0.576565
C4    C     C_R   0.493492 0.734705 0.498939 0.611333
C5    C     C_R   0.740198 0.502993 0.499069 0.576790
C6    C     C_3   0.068989 0.501501 0.651254 -0.238765
C7    C     C_3   0.928062 0.521090 0.646746 -0.296859
C8    C     C_3   0.076651 0.629745 0.433263 0.142286
C9    C     C_3   0.073836 0.393957 0.421473 -0.274477
C10   C     C_3   0.122932 0.507844 0.502223 -0.049163
C11   C     C_3   0.872107 0.372514 0.200669 -0.070518
C12   C     C_3   0.878309 0.507309 0.495910 -0.016617
C13   C     C_3   0.655096 0.628291 0.883353 0.000658
C14   C     C_3   0.934527 0.615059 0.404458 0.110541
C15   C     C_3   0.931537 0.382408 0.441280 0.127459
C16   C     C_2   0.451174 0.936709 0.386228 0.235112
C17   C     C_2   0.479721 0.867086 0.498051 -0.023327
C18   C     C_2   0.449954 0.071127 0.397198 -0.127564
C19   C     C_2   0.501141 0.133366 0.501410 -0.123801
C20   C     C_2   0.427319 0.430838 0.923409 0.090250
Cu1   Cu    Cu3+1 0.500030 0.500020 0.638630 1.031487
Cu2   Cu    Cu3+1 0.499970 0.499980 0.361370 1.080007
H1    H     H_    0.111276 0.570570 0.720714 0.219735
H2    H     H_    0.583235 0.515089 0.108577 0.238138
H3    H     H_    0.884724 0.452399 0.717098 0.118735
H4    H     H_    0.903665 0.612319 0.688329 0.198076
H5    H     H_    0.102819 0.402955 0.312650 0.123420
H6    H     H_    0.118360 0.308873 0.460602 0.129817
H7    H     H_    0.920909 0.317357 0.529362 0.169043
H8    H     H_    0.966801 0.392162 0.164066 0.083423
H9    H     H_    0.812606 0.453999 0.190011 0.132347
H10   H     H_    0.834122 0.304350 0.127360 0.154438
H11   H     H_    0.264323 0.998903 0.156902 0.355743
H12   H     H_    0.123609 0.639392 0.331417 0.140635
H13   H     H_    0.672319 0.677703 0.785738 0.151397
H14   H     H_    0.710307 0.542372 0.888036 0.068913
H15   H     H_    0.688854 0.688238 0.967541 0.161481
H16   H     H_    0.046851 0.882902 0.689968 0.379450
H17   H     H_    0.739497 0.746593 0.575746 0.312240
H18   H     H_    0.932103 0.583071 0.296777 0.079910
H19   H     H_    0.490034 0.907790 0.598901 0.088215
H20   H     H_    0.408045 0.122254 0.313446 0.172234
H21   H     H_    0.545348 0.090149 0.588693 0.119736
H22   H     H_    0.373635 0.358918 0.874745 0.085500
H23   H     H_    0.334157 0.406869 0.128066 0.109441
H24   H     H_    0.089295 0.410244 0.697278 0.112882
N1    N     N_2   0.498630 0.498660 0.846910 -0.060255
N2    N     N_2   0.498590 0.498630 0.153040 -0.295149
O1    O     O_R   0.500020 0.321960 0.617040 -0.518090
O2    O     O_2   0.524231 0.828804 0.151019 -0.177483
O3    O     O_2   0.317837 0.774275 0.235512 -0.241455
O4    O     O_3   0.348979 0.986271 0.120329 -0.515643
O5    O     O_3   0.527448 0.608172 0.902903 -0.434528
O6    O     O_2   0.241089 0.745091 0.605718 -0.297117
O7    O     O_2   0.140734 0.872143 0.433960 -0.223814
O8    O     O_3   0.016278 0.804986 0.650346 -0.486568
O9    O     O_2   0.921777 0.851495 0.316272 -0.168314
O10   O     O_2   0.735862 0.730368 0.297198 -0.274001
O11   O     O_3   0.796112 0.809930 0.539355 -0.467740
O12   O     O_R   0.499980 0.321920 0.382900 -0.502141
O13   O     O_R   0.317710 0.500000 0.617070 -0.484278
O14   O     O_R   0.317670 0.499960 0.382930 -0.517139
O15   O     O_R   0.500020 0.678080 0.617100 -0.477625
O16   O     O_R   0.499980 0.678040 0.382960 -0.392778
O17   O     O_R   0.682330 0.500040 0.617070 -0.559363
O18   O     O_R   0.682290 0.500000 0.382930 -0.466321
O19   O     O_3   0.865089 0.320652 0.334409 -0.528652
S1    S     S_3+6 0.410291 0.876719 0.221220 0.097924
S2    S     S_3+6 0.121857 0.766244 0.531096 0.052972
S3    S     S_3+6 0.845587 0.754906 0.387436 0.065889

loop_
_geom_bond_atom_site_label_1
_geom_bond_atom_site_label_2
_ccdc_geom_bond_type
C6    C10   S    
Cu2   N2    S    
C13   H13   S    
C6    C7    S    
C16   S1    S    
O9    S3    D    
Cu2   O14   S    
C9    C10   S    
C4    O16   A    
C13   H15   S    
O4    S1    S    
C12   C15   S    
C12   C14   S    
N1    O5    S    
H17   O11   S    
Cu1   O1    S    
C9    C15   S    
C11   H9    S    
C3    C10   S    
C8    H12   S    
Cu1   Cu2   S    
C11   H8    S    
H11   O4    S    
C14   S3    S    
C4    O15   A    
C2    N2    D    
C8    S2    S    
O7    S2    D    
O6    S2    D    
C7    H4    S    
C5    C12   S    
C4    C17   S    
C16   C18   S    
C20   H22   S    
C19   H21   S    
C11   H10   S    
C15   H7    S    
C13   O5    S    
O3    S1    D    
C18   H20   S    
C2    H23   S    
Cu2   O12   S    
C7    C12   S    
C1    O12   A    
C17   H19   S    
Cu1   O15   S    
C20   N1    D    
C1    C19   S    
O11   S3    S    
C6    H1    S    
C3    O13   A    
C14   H18   S    
H2    N2    S    
C16   C17   D    
C15   O19   S    
H16   O8    S    
C9    H5    S    
C13   H14   S    
C5    O17   A    
O8    S2    S    
C3    O14   A    
Cu1   O13   S    
C2    C20   S    
O10   S3    D    
C18   C19   D    
C8    C14   S    
O2    S1    D    
C6    H24   S    
Cu2   O16   S    
Cu1   O17   S    
C1    O1    A    
C8    C10   S    
Cu2   O18   S    
C9    H6    S    
C11   O19   S    
C5    O18   A    
Cu1   N1    S    
C7    H3    S    
