data_mof_unit_60981.cif
_audit_creation_date              2012-12-10T20:50:04-0500
_audit_creation_method            fapswitch 2.2
_symmetry_space_group_name_H-M    P1
_symmetry_Int_Tables_number       1
_space_group_crystal_system       triclinic
_cell_length_a                    19.160324
_cell_length_b                    19.204418
_cell_length_c                    19.196906
_cell_angle_alpha                 94.56431
_cell_angle_beta                  90.207808
_cell_angle_gamma                 85.768756
_cell_volume                      7022.13711549

loop_
_atom_site_label
_atom_site_type_symbol
_atom_type_description
_atom_site_fract_x
_atom_site_fract_y
_atom_site_fract_z
_atom_type_partial_charge
C1    C     C_R   0.492107 0.492250 0.310633 0.504494
C2    C     C_R   0.122625 0.573890 0.538879 0.041213
C3    C     C_R   0.507597 0.512015 0.766792 0.044145
C4    C     C_R   0.506851 0.507626 0.689557 0.514699
C5    C     C_R   0.444723 0.508810 0.805065 -0.048012
C6    C     C_R   0.447280 0.510007 0.878056 -0.078484
C7    C     C_R   0.511143 0.514622 0.913880 0.186250
C8    C     C_R   0.572074 0.520957 0.876318 -0.106489
C9    C     C_R   0.571091 0.519340 0.803583 -0.002891
C10   C     C_R   0.458613 0.552280 0.130644 0.012925
C11   C     C_R   0.465906 0.551437 0.203062 -0.135300
C12   C     C_R   0.911549 0.499931 0.480132 0.195204
C13   C     C_R   0.473073 0.489779 0.088212 0.225852
C14   C     C_R   0.487416 0.489377 0.233778 0.032499
C15   C     C_R   0.500978 0.426346 0.190747 -0.036827
C16   C     C_R   0.493979 0.689895 0.506679 0.515035
C17   C     C_R   0.493130 0.427529 0.118240 -0.089044
C18   C     C_R   0.510959 0.233287 0.493045 0.019784
C19   C     C_R   0.448981 0.198953 0.500743 0.005136
C20   C     C_R   0.452574 0.127554 0.513266 0.021010
C21   C     C_R   0.518591 0.089357 0.512410 0.204691
C22   C     C_R   0.579512 0.123201 0.503255 -0.109850
C23   C     C_R   0.871437 0.503678 0.418616 0.006091
C24   C     C_R   0.576372 0.194594 0.493920 -0.015974
C25   C     C_R   0.560571 0.871161 0.500394 0.051841
C26   C     C_R   0.559931 0.799416 0.510446 0.002735
C27   C     C_R   0.497754 0.909718 0.483621 0.200213
C28   C     C_R   0.507018 0.310106 0.492295 0.519770
C29   C     C_R   0.496642 0.765955 0.502596 -0.007958
C30   C     C_R   0.435493 0.804544 0.483878 -0.160028
C31   C     C_R   0.435990 0.875427 0.473980 0.019198
C32   C     C_R   0.310814 0.507750 0.507840 0.511099
C33   C     C_R   0.689174 0.492619 0.491866 0.525666
C34   C     C_R   0.797943 0.500692 0.422057 0.007135
C35   C     C_R   0.765612 0.492546 0.486691 0.024660
C36   C     C_R   0.806507 0.486717 0.547072 -0.016428
C37   C     C_R   0.878448 0.490495 0.543676 -0.101633
C38   C     C_3   0.239492 0.379187 0.468488 -0.370238
C39   C     C_3   0.434561 0.619307 0.099213 -0.369112
C40   C     C_3   0.521364 0.357376 0.220442 -0.368600
C41   C     C_3   0.374223 0.506064 0.769909 -0.372379
C42   C     C_3   0.090476 0.379993 0.499505 -0.365868
C43   C     C_3   0.386268 0.094191 0.530290 -0.352025
C44   C     C_3   0.908699 0.511695 0.350704 -0.362816
C45   C     C_R   0.126674 0.447837 0.507009 0.019179
C46   C     C_R   0.199691 0.446859 0.496117 -0.031103
C47   C     C_R   0.088278 0.512272 0.526037 0.207133
C48   C     C_R   0.234122 0.509282 0.510386 0.022966
C49   C     C_R   0.195379 0.572599 0.531472 -0.015634
Cl1   Cl    Cl    0.651848 0.523332 0.761187 -0.047388
Cl2   Cl    Cl    0.769848 0.471317 0.627900 -0.057949
Cl3   Cl    Cl    0.639976 0.751742 0.527528 -0.031869
Cl4   Cl    Cl    0.641203 0.910734 0.503341 -0.043617
Cl5   Cl    Cl    0.656094 0.234004 0.487546 -0.057891
Cl6   Cl    Cl    0.357631 0.920752 0.449641 -0.083337
Cl7   Cl    Cl    0.366046 0.244825 0.493437 -0.101643
Cl8   Cl    Cl    0.745494 0.510597 0.346746 -0.071802
Cl9   Cl    Cl    0.238014 0.650438 0.551089 -0.063786
Cl10  Cl    Cl    0.073346 0.653147 0.564250 -0.042088
H1    H     H_    0.621156 0.525503 0.903936 0.133569
H2    H     H_    0.213238 0.356588 0.421198 0.125590
H3    H     H_    0.386456 0.611587 0.067979 0.145960
H4    H     H_    0.422524 0.662803 0.140039 0.118102
H5    H     H_    0.476101 0.635075 0.064840 0.163109
H6    H     H_    0.523779 0.313128 0.179357 0.117387
H7    H     H_    0.573938 0.358786 0.244736 0.172878
H8    H     H_    0.482244 0.346556 0.259979 0.143682
H9    H     H_    0.366571 0.548646 0.734116 0.142129
H10   H     H_    0.370417 0.454487 0.740260 0.172897
H11   H     H_    0.330629 0.512999 0.808410 0.115981
H12   H     H_    0.399228 0.507574 0.907034 0.140778
H13   H     H_    0.035948 0.385730 0.519330 0.165509
H14   H     H_    0.089620 0.359853 0.443716 0.133768
H15   H     H_    0.118525 0.340316 0.530448 0.121610
H16   H     H_    0.396414 0.041917 0.550395 0.171626
H17   H     H_    0.356858 0.127159 0.572124 0.128953
H18   H     H_    0.352983 0.089186 0.482961 0.147780
H19   H     H_    0.873575 0.513237 0.304910 0.136739
H20   H     H_    0.935782 0.561021 0.355147 0.153824
H21   H     H_    0.948208 0.466886 0.339856 0.144065
H22   H     H_    0.503014 0.379878 0.084458 0.127448
H23   H     H_    0.629896 0.093665 0.503908 0.141367
H24   H     H_    0.386947 0.779318 0.476420 0.152744
H25   H     H_    0.908649 0.484802 0.590945 0.149502
H26   H     H_    0.455034 0.599640 0.235799 0.137366
H27   H     H_    0.293813 0.386036 0.452292 0.146675
H28   H     H_    0.241146 0.341230 0.509197 0.148346
N1    N     N_2   0.985509 0.501938 0.475684 -0.241123
N2    N     N_2   0.014678 0.515664 0.532811 -0.245263
N3    N     N_2   0.516084 0.514103 0.987644 -0.239755
N4    N     N_2   0.466109 0.488312 0.015015 -0.257485
N5    N     N_2   0.525064 0.016895 0.521474 -0.234304
N6    N     N_2   0.495080 0.982298 0.474149 -0.225046
O1    O     O_3   0.500000 0.500000 0.500000 -0.445919
O2    O     O_R   0.340900 0.545940 0.467290 -0.529825
O3    O     O_R   0.655960 0.450920 0.450930 -0.528822
O4    O     O_R   0.347180 0.467040 0.545670 -0.546134
O5    O     O_R   0.655970 0.536100 0.536110 -0.525452
O6    O     O_R   0.536480 0.656330 0.545680 -0.525320
O7    O     O_R   0.545300 0.340270 0.450920 -0.533513
O8    O     O_R   0.451550 0.536740 0.347440 -0.546446
O9    O     O_R   0.466670 0.466660 0.655960 -0.548768
O10   O     O_R   0.536460 0.451300 0.340640 -0.544114
O11   O     O_R   0.545320 0.545300 0.655970 -0.525144
O12   O     O_R   0.451560 0.656600 0.467300 -0.543878
O13   O     O_R   0.466660 0.346810 0.536100 -0.532339
Zn1   Zn    Zn3+2 0.558430 0.558420 0.558430 0.971645
Zn2   Zn    Zn3+2 0.437090 0.558800 0.446440 0.941866
Zn3   Zn    Zn3+2 0.446060 0.446060 0.558420 0.934733
Zn4   Zn    Zn3+2 0.558420 0.436720 0.436720 0.948456

loop_
_geom_bond_atom_site_label_1
_geom_bond_atom_site_label_2
_ccdc_geom_bond_type
C19   Cl7   S    
O7    Zn4   S    
C47   N2    S    
C35   C36   A    
C7    C8    A    
C45   C46   A    
C39   H5    S    
C12   C23   A    
O1    Zn2   S    
C38   H27   S    
O10   Zn4   S    
C18   C24   A    
C22   H23   S    
C36   C37   A    
C25   Cl4   S    
C34   C35   A    
C30   C31   A    
C11   C14   A    
C24   Cl5   S    
C12   C37   A    
C32   O4    A    
C33   O5    A    
C30   H24   S    
C19   C20   A    
C28   O13   A    
C8    C9    A    
C40   H8    S    
C4    O9    A    
C34   Cl8   S    
C37   H25   S    
C1    O10   A    
C38   H2    S    
C28   O7    A    
O8    Zn2   S    
C40   H7    S    
C21   C22   A    
C13   N4    S    
C32   C48   S    
C41   H9    S    
C45   C47   A    
C43   H16   S    
C6    H12   S    
O12   Zn2   S    
C46   C48   A    
O1    Zn1   S    
C42   H15   S    
C12   N1    S    
C27   C31   A    
C44   H21   S    
C18   C28   S    
C10   C11   A    
C2    Cl10  S    
C18   C19   A    
C25   C26   A    
C7    N3    S    
O3    Zn4   S    
O1    Zn4   S    
O5    Zn1   S    
C10   C39   S    
C42   C45   S    
C29   C30   A    
C3    C9    A    
C2    C49   A    
C26   Cl3   S    
O4    Zn3   S    
C23   C34   A    
C42   H13   S    
N1    N2    D    
C36   Cl2   S    
C16   O12   A    
C48   C49   A    
C40   H6    S    
C22   C24   A    
C27   N6    S    
C43   H18   S    
C3    C4    S    
C33   O3    A    
C1    O8    A    
C20   C43   S    
O6    Zn1   S    
C41   H10   S    
C43   H17   S    
C15   C17   A    
C39   H3    S    
C5    C41   S    
C42   H14   S    
C44   H20   S    
C9    Cl1   S    
C3    C5    A    
C10   C13   A    
C16   O6    A    
C6    C7    A    
C2    C47   A    
C25   C27   A    
C39   H4    S    
O1    Zn3   S    
C13   C17   A    
C38   H28   S    
C44   H19   S    
C16   C29   S    
C8    H1    S    
N3    N4    D    
C5    C6    A    
C11   H26   S    
C4    O11   A    
N5    N6    D    
C33   C35   S    
C17   H22   S    
C15   C40   S    
C38   C46   S    
O2    Zn2   S    
C49   Cl9   S    
C32   O2    A    
C20   C21   A    
C26   C29   A    
C14   C15   A    
O9    Zn3   S    
C1    C14   S    
C31   Cl6   S    
C21   N5    S    
O11   Zn1   S    
C41   H11   S    
C23   C44   S    
O13   Zn3   S    
