data_mof_unit_45053.cif
_audit_creation_date              2013-03-05T15:44:46-0500
_audit_creation_method            fapswitch 2.2
_symmetry_space_group_name_H-M    P1
_symmetry_Int_Tables_number       1
_space_group_crystal_system       triclinic
_cell_length_a                    12.946152
_cell_length_b                    13.053792
_cell_length_c                    15.273677
_cell_angle_alpha                 116.95672
_cell_angle_beta                  63.517938
_cell_angle_gamma                 97.20382
_cell_volume                      2049.7896798

loop_
_atom_site_label
_atom_site_type_symbol
_atom_site_description
_atom_site_fract_x
_atom_site_fract_y
_atom_site_fract_z
_atom_type_partial_charge
C1    C     C_R   0.026936 0.834261 0.026629 -0.050694
H1    H     H_    0.075008 0.898105 0.063769 0.085195
N1    N     N_R   0.037310 0.720000 0.995790 -0.056372
C2    C     C_R   0.702005 0.403329 0.209851 -0.182303
H2    H     H_    0.644670 0.347572 0.179103 0.099284
N2    N     N_R   0.790790 0.446160 0.152010 -0.045278
C3    C     C_R   0.738789 0.580854 0.951385 -0.128101
H3    H     H_    0.746376 0.629850 0.908447 0.091880
N3    N     N_R   0.824890 0.517960 0.936420 -0.041148
C4    C     C_R   0.938536 0.720573 0.315515 -0.109727
H4    H     H_    0.885950 0.694677 0.378644 0.119881
N4    N     N_R   0.003210 0.648190 0.211380 -0.034687
C5    C     C_R   0.660904 0.484512 0.051401 -0.111499
H5    H     H_    0.602274 0.447658 0.103659 0.091718
N5    N     N_R   0.774330 0.457010 0.995840 -0.046296
C6    C     C_R   0.027883 0.821413 0.221862 -0.068495
H6    H     H_    0.065246 0.890596 0.201921 0.085221
N6    N     N_R   0.053760 0.709140 0.151960 -0.049176
C7    C     C_R   0.810438 0.479869 0.299196 0.156937
N7    N     N_R   0.853860 0.498840 0.211410 -0.054317
C8    C     C_R   0.927986 0.748074 0.929408 -0.150508
H7    H     H_    0.885385 0.732402 0.878505 0.096716
N8    N     N_R   0.974240 0.667310 0.936390 -0.045756
C9    C     C_R   0.951146 0.854397 0.993039 0.226682
C10   C     C_R   0.711395 0.423964 0.303292 0.000400
C11   C     C_R   0.636255 0.565048 0.026953 0.150202
C12   C     C_R   0.950239 0.831121 0.324418 0.050256
C13   C     C_R   0.322105 0.580538 0.012750 -0.130561
H8    H     H_    0.367643 0.644831 0.987577 0.084026
N9    N     N_R   0.225670 0.542990 0.004160 -0.047182
C14   C     C_R   0.903219 0.200662 0.791755 -0.136839
H9    H     H_    0.845346 0.147408 0.825940 0.084251
N10   N     N_R   0.946240 0.290860 0.848040 -0.039213
C15   C     C_R   0.220490 0.436580 0.684284 -0.122837
H10   H     H_    0.196182 0.386459 0.618740 0.097804
N11   N     N_R   0.146140 0.501160 0.788590 -0.042216
C16   C     C_R   0.097818 0.251014 0.043727 -0.046039
H11   H     H_    0.158478 0.266516 0.078130 0.104550
N12   N     N_R   0.025760 0.332690 0.063610 -0.034003
C17   C     C_R   0.000030 0.167258 0.945428 -0.137339
H12   H     H_    0.970965 0.104986 0.887016 0.104359
N13   N     N_R   0.962690 0.280000 0.004210 -0.043791
C18   C     C_R   0.321172 0.521596 0.781826 -0.129405
H13   H     H_    0.388666 0.549421 0.808122 0.094827
N14   N     N_R   0.209210 0.553840 0.847990 -0.045374
C19   C     C_R   0.243411 0.480732 0.108165 -0.152998
H14   H     H_    0.220056 0.451460 0.169907 0.124022
N15   N     N_R   0.175110 0.482040 0.063580 -0.040415
C20   C     C_R   0.985007 0.299900 0.696263 -0.140746
H15   H     H_    0.002714 0.338954 0.642605 0.096343
N16   N     N_R   0.996790 0.351810 0.788620 -0.038401
Ni1   Ni    Ni4+2 0.130310 0.630310 0.999970 0.212298
Ni2   Ni    Ni4+2 0.869690 0.369690 0.000030 0.211704
Ni3   Ni    Ni4+2 0.985640 0.509470 0.863740 0.220874
Ni4   Ni    Ni4+2 0.014360 0.490530 0.136260 0.257479
C21   C     C_R   0.335434 0.542978 0.077993 0.149203
C22   C     C_R   0.924934 0.204928 0.696357 0.057544
C23   C     C_R   0.331727 0.446852 0.677864 0.046098
C24   C     C_R   0.085523 0.144892 0.968109 0.015159
C25   C     C_R   0.929790 0.044198 0.423518 -0.062271
H16   H     H_    0.968398 0.052345 0.348277 0.156202
C26   C     C_R   0.922981 0.138923 0.517727 -0.171163
H17   H     H_    0.956796 0.216525 0.511400 0.131327
C27   C     C_R   0.887830 0.126897 0.613443 0.120859
C28   C     C_R   0.835673 0.028314 0.620098 -0.162521
H18   H     H_    0.801065 0.018665 0.694433 0.109291
C29   C     C_R   0.841923 0.933787 0.525948 -0.164283
H19   H     H_    0.811224 0.855109 0.531539 0.116495
C30   C     C_R   0.901186 0.937893 0.425349 0.134183
C31   C     C_R   0.632689 0.453537 0.493158 -0.104535
H20   H     H_    0.697201 0.510794 0.506617 0.138603
C32   C     C_R   0.541536 0.453467 0.584805 -0.168099
H21   H     H_    0.545968 0.505136 0.661470 0.109598
C33   C     C_R   0.441135 0.404511 0.578567 0.135294
C34   C     C_R   0.443219 0.334487 0.475730 -0.162722
H22   H     H_    0.368420 0.291583 0.468126 0.113750
C35   C     C_R   0.538798 0.328974 0.381811 -0.144539
H23   H     H_    0.535763 0.280839 0.303929 0.106195
C36   C     C_R   0.630530 0.395813 0.391404 0.186571
C37   C     C_2   0.429004 0.565021 0.109301 -0.192726
H24   H     H_    0.431309 0.521285 0.154194 0.127881
C38   C     C_2   0.522054 0.609067 0.058202 -0.184740
H25   H     H_    0.518547 0.656767 0.017006 0.122411
C39   C     C_2   0.901956 0.965155 0.017798 -0.424869
H26   H     H_    0.890623 0.969705 0.953499 0.126446
C40   C     C_2   0.863081 0.058363 0.115959 0.358789
N17   N     N_R   0.855879 0.061849 0.213706 0.231553
O1    O     O_R   0.845074 0.161987 0.294974 -0.396278
O2    O     O_R   0.831836 0.971401 0.231714 -0.423012
I1    I     I_    0.925573 0.460807 0.357486 -0.476887

loop_
_geom_bond_atom_site_label_1
_geom_bond_atom_site_label_2
_geom_bond_distance
_ccdc_geom_bond_type
C4    C12   1.381856 A    
N15   Ni4   1.860516 S    
N17   O1    1.299602 A    
N1    N8    1.384535 A    
C7    N7    1.330050 A    
C18   H13   1.076035 S    
C2    C10   1.386422 A    
C13   C21   1.371404 A    
N6    Ni1   1.862347 S    
C3    H3    1.075125 S    
C35   H23   1.081302 S    
C26   H17   1.080260 S    
C3    C11   1.384791 A    
C22   C27   1.456818 S    
N5    Ni2   1.821261 S    
N9    N15   1.370912 A    
C13   H8    1.079846 S    
C39   C40   1.344716 D    
C1    H1    1.076947 S    
N13   Ni2   1.820521 S    
C37   H24   1.083719 S    
C20   C22   1.378628 A    
C25   C26   1.381415 A    
C15   H10   1.079261 S    
C26   C27   1.402076 A    
C18   C23   1.388283 A    
N12   Ni4   1.831866 S    
C6    H6    1.072734 S    
C20   N16   1.331049 A    
C14   N10   1.334320 A    
C31   H20   1.075033 S    
C12   C30   1.457149 S    
C6    C12   1.388465 A    
C17   N13   1.341307 A    
C11   C38   1.441851 S    
C17   C24   1.394611 A    
C8    H7    1.077215 S    
N7    Ni4   1.861011 S    
N12   N13   1.384536 A    
C35   C36   1.404452 A    
C8    N8    1.341142 A    
N10   Ni2   1.862348 S    
C19   N15   1.340606 A    
C33   C34   1.403582 A    
C29   H19   1.080263 S    
C39   H26   1.083106 S    
C32   C33   1.397819 A    
C40   N17   1.433524 S    
C2    H2    1.080165 S    
N14   Ni1   1.862390 S    
C28   C29   1.381866 A    
C25   H16   1.080276 S    
C1    N1    1.349617 A    
C34   H22   1.081760 S    
C16   H11   1.079602 S    
C34   C35   1.392759 A    
C14   H9    1.080176 S    
N11   N14   1.384519 A    
C18   N14   1.326804 A    
C16   C24   1.391543 A    
C4    N4    1.331088 A    
C2    N2    1.339877 A    
C17   H12   1.078657 S    
C38   H25   1.083263 S    
C5    N5    1.322864 A    
C5    C11   1.375797 A    
N2    Ni2   1.862390 S    
N4    N6    1.370898 A    
C23   C33   1.460273 S    
N8    Ni3   1.831867 S    
C3    N3    1.341999 A    
N9    Ni1   1.821262 S    
C19   H14   1.081748 S    
C31   C36   1.398450 A    
C10   C36   1.462048 S    
C32   H21   1.078667 S    
N1    Ni1   1.820519 S    
N10   N16   1.370896 A    
N2    N7    1.384519 A    
C21   C37   1.443373 S    
N16   Ni3   1.832706 S    
C27   C28   1.400650 A    
C14   C22   1.381868 A    
C13   N9    1.323029 A    
C9    C39   1.469474 S    
C16   N12   1.342551 A    
C7    I1    2.133932 S    
C25   C30   1.400232 A    
C37   C38   1.336241 D    
C15   N11   1.339218 A    
C28   H18   1.080504 S    
N3    N5    1.370910 A    
C7    C10   1.384102 A    
N4    Ni4   1.832707 S    
N11   Ni3   1.861009 S    
C4    H4    1.076955 S    
C1    C9    1.389572 A    
C6    N6    1.336255 A    
C20   H15   1.079844 S    
C8    C9    1.375989 A    
C19   C21   1.378036 A    
C15   C23   1.392487 A    
N17   O2    1.300959 A    
C31   C32   1.371013 A    
N3    Ni3   1.860517 S    
C29   C30   1.401927 A    
C5    H5    1.077449 S    
