data_mof_unit_35242.cif
_audit_creation_date              2013-03-05T15:48:06-0500
_audit_creation_method            fapswitch 2.2
_symmetry_space_group_name_H-M    P1
_symmetry_Int_Tables_number       1
_space_group_crystal_system       triclinic
_cell_length_a                    15.082796
_cell_length_b                    12.993874
_cell_length_c                    11.755771
_cell_angle_alpha                 99.596731
_cell_angle_beta                  93.572761
_cell_angle_gamma                 91.894927
_cell_volume                      2265.07329972

loop_
_atom_site_label
_atom_site_type_symbol
_atom_site_description
_atom_site_fract_x
_atom_site_fract_y
_atom_site_fract_z
_atom_type_partial_charge
O1    O     O_R   0.504720 0.354460 0.582000 -0.552654
O2    O     O_R   0.495280 0.645540 0.418000 -0.552556
O3    O     O_R   0.493480 0.341410 0.386200 -0.577656
O4    O     O_R   0.506520 0.658590 0.613800 -0.578798
C1    C     C_R   0.498805 0.299273 0.478740 0.816171
C2    C     C_R   0.501191 0.700727 0.521260 0.814108
O5    O     O_R   0.375880 0.506510 0.597910 -0.552527
O6    O     O_R   0.624120 0.493490 0.402090 -0.551305
O7    O     O_R   0.364640 0.493450 0.402110 -0.577342
O8    O     O_R   0.635360 0.506550 0.597890 -0.577050
C3    C     C_R   0.328745 0.500549 0.500414 0.822171
C4    C     C_R   0.671256 0.499545 0.499588 0.823809
Cu1   Cu    Cu3+1 0.506660 0.507730 0.615930 1.015717
Cu2   Cu    Cu3+1 0.493340 0.492270 0.384070 1.016831
C5    C     C_R   0.820278 0.528393 0.602953 -0.219709
C6    C     C_R   0.179740 0.473089 0.396920 -0.219523
C7    C     C_R   0.768099 0.498961 0.499187 -0.084158
C8    C     C_R   0.231921 0.501864 0.500786 -0.084457
C9    C     C_R   0.808530 0.468964 0.395474 -0.166917
C10   C     C_R   0.191521 0.532281 0.604446 -0.168632
C11   C     C_R   0.901271 0.470332 0.393837 0.091355
C12   C     C_R   0.098788 0.532516 0.605822 0.089828
C13   C     C_R   0.953499 0.500778 0.499261 0.018032
C14   C     C_R   0.046553 0.502037 0.500404 0.017679
C15   C     C_R   0.912594 0.529634 0.603794 0.086141
C16   C     C_R   0.087443 0.472649 0.395956 0.085040
C17   C     C_R   0.942801 0.441701 0.289467 0.155457
C18   C     C_R   0.057254 0.561912 0.710058 0.162029
C19   C     C_R   0.035816 0.442882 0.291787 -0.236279
C20   C     C_R   0.964225 0.559759 0.707900 -0.241073
H1    H     H_    0.789144 0.551001 0.683352 0.156917
H2    H     H_    0.210852 0.450201 0.316551 0.157658
H3    H     H_    0.767343 0.443564 0.316392 0.206311
H4    H     H_    0.232732 0.556450 0.683734 0.204918
H5    H     H_    0.068055 0.420816 0.211952 0.142248
H6    H     H_    0.931991 0.582121 0.787687 0.138626
C21   C     C_R   0.503287 0.814242 0.533527 -0.049562
C22   C     C_R   0.496699 0.185757 0.466473 -0.049165
C23   C     C_R   0.463566 0.015251 0.350086 -0.189270
C24   C     C_R   0.536410 0.984750 0.649916 -0.189065
C25   C     C_R   0.469287 0.123356 0.359994 -0.187027
C26   C     C_R   0.530693 0.876645 0.640008 -0.189486
C27   C     C_R   0.520465 0.139255 0.562434 -0.195322
C28   C     C_R   0.479516 0.860744 0.437567 -0.196535
C29   C     C_R   0.514437 0.031237 0.553477 0.157943
C30   C     C_R   0.485540 0.968762 0.446524 0.157984
H7    H     H_    0.456257 0.813077 0.355845 0.179602
H8    H     H_    0.543725 0.186921 0.644156 0.180056
H9    H     H_    0.548739 0.842033 0.715239 0.160848
H10   H     H_    0.451240 0.157969 0.284762 0.160876
H11   H     H_    0.441718 0.968185 0.267460 0.147638
H12   H     H_    0.558256 0.031815 0.732542 0.148562
N1    N     N_R   0.516670 0.519360 0.790130 -0.234652
N2    N     N_R   0.483330 0.480640 0.209870 -0.234537
C31   C     C_R   0.414999 0.401730 0.023409 -0.292714
C32   C     C_R   0.584998 0.598268 0.976595 -0.298626
C33   C     C_R   0.422963 0.410690 0.144654 0.295482
C34   C     C_R   0.577029 0.589319 0.855352 0.296399
C35   C     C_R   0.537408 0.542874 0.156199 0.481157
C36   C     C_R   0.462598 0.457117 0.843799 0.479033
C37   C     C_R   0.530994 0.535699 0.033581 -0.093831
C38   C     C_R   0.469011 0.464289 0.966419 -0.093459
H13   H     H_    0.366320 0.345404 0.975050 0.208377
H14   H     H_    0.633674 0.654597 0.024956 0.206891
N3    N     N_3   0.890547 0.411646 0.181677 -0.588401
H15   H     H_    0.862357 0.479005 0.160438 0.239867
H16   H     H_    0.931099 0.384286 0.115140 0.221367
N4    N     N_3   0.109509 0.593237 0.817642 -0.571106
H17   H     H_    0.139081 0.666827 0.815872 0.210845
H18   H     H_    0.068772 0.602559 0.887116 0.219539
N5    N     N_R   0.398731 0.384485 0.776254 0.132279
O9    O     O_R   0.416768 0.286230 0.756104 -0.395078
O10   O     O_R   0.315841 0.408899 0.771187 -0.378591
N6    N     N_R   0.601270 0.615514 0.223743 0.133567
O11   O     O_R   0.583214 0.713763 0.243912 -0.394489
O12   O     O_R   0.684167 0.591128 0.228769 -0.401376
N7    N     N_3   0.632636 0.654497 0.800427 -0.520921
H19   H     H_    0.621433 0.732187 0.834340 0.192094
H20   H     H_    0.698731 0.641273 0.823859 0.189124
N8    N     N_3   0.367335 0.345542 0.199594 -0.520532
H21   H     H_    0.301242 0.358843 0.176235 0.191658
H22   H     H_    0.378478 0.267842 0.165651 0.192149

loop_
_geom_bond_atom_site_label_1
_geom_bond_atom_site_label_2
_geom_bond_distance
_ccdc_geom_bond_type
C23   H11   1.083878 S    
C3    C8    1.461319 S    
C17   C19   1.401011 A    
C23   C25   1.389384 A    
C29   C30   1.413431 A    
O5    C3    1.300104 A    
N6    O12   1.300166 A    
O1    C1    1.299144 A    
C18   N4    1.438509 S    
C14   C16   1.409773 A    
C5    C15   1.391349 A    
C31   C38   1.406805 A    
O4    Cu1   1.964654 S    
C36   C38   1.425897 A    
C21   C26   1.403629 A    
C34   N7    1.428461 S    
N4    H17   1.045618 S    
N3    H16   1.045761 S    
C31   H13   1.082421 S    
C4    C7    1.461235 S    
C13   C14   1.402267 A    
C32   H14   1.082425 S    
C27   H8    1.083919 S    
C28   H7    1.083919 S    
N7    H19   1.045014 S    
C10   H4    1.082152 S    
C24   C26   1.389377 A    
C11   C17   1.412509 A    
C12   C18   1.412568 A    
Cu1   Cu2   2.693814 S    
C33   N8    1.428480 S    
O2    C2    1.299143 A    
N1    C36   1.381288 A    
C28   C30   1.389412 A    
Cu1   N1    2.023887 S    
N2    C35   1.381279 A    
N7    H20   1.045028 S    
C6    C16   1.391254 A    
C24   C29   1.398134 A    
C35   C37   1.425876 A    
N6    O11   1.300111 A    
C22   C25   1.403634 A    
N8    H22   1.045015 S    
C9    H3    1.082251 S    
N5    O10   1.300181 A    
C36   N5    1.429621 S    
C24   H12   1.083878 S    
O7    Cu2   1.966085 S    
C17   N3    1.438587 S    
O7    C3    1.297245 A    
O6    C4    1.299996 A    
C2    C21   1.457005 S    
C27   C29   1.389406 A    
C35   N6    1.429624 S    
O3    Cu2   1.964656 S    
O8    C4    1.297320 A    
C23   C30   1.398138 A    
O4    C2    1.296271 A    
Cu2   N2    2.023885 S    
C10   C12   1.399866 A    
C31   C33   1.407823 A    
C12   C14   1.416812 A    
O1    Cu1   1.963703 S    
C25   H10   1.081326 S    
C15   C20   1.399565 A    
C5    C7    1.399488 A    
O6    Cu2   1.969958 S    
C9    C11   1.399701 A    
N8    H21   1.045037 S    
O3    C1    1.296270 A    
O8    Cu1   1.966084 S    
N1    C34   1.367074 A    
C5    H1    1.082579 S    
C6    H2    1.082637 S    
C19   H5    1.084369 S    
C20   H6    1.084375 S    
C21   C28   1.399075 A    
C11   C13   1.416773 A    
C22   C27   1.399071 A    
C18   C20   1.401046 A    
C7    C9    1.400082 A    
C32   C34   1.407810 A    
C8    C10   1.400147 A    
C13   C15   1.409787 A    
C37   C38   1.401684 A    
O2    Cu2   1.963705 S    
C26   H9    1.081317 S    
O5    Cu1   1.969955 S    
N5    O9    1.300113 A    
C16   C19   1.399588 A    
C6    C8    1.399523 A    
N3    H15   1.045681 S    
N4    H18   1.045810 S    
C32   C37   1.406780 A    
C1    C22   1.457007 S    
N2    C33   1.367062 A    
