data_mof_unit_37559.cif
_audit_creation_date              2012-12-11T15:53:30-0500
_audit_creation_method            fapswitch 2.2
_symmetry_space_group_name_H-M    P1
_symmetry_Int_Tables_number       1
_space_group_crystal_system       triclinic
_cell_length_a                    6.928642
_cell_length_b                    14.544158
_cell_length_c                    15.966592
_cell_angle_alpha                 90.493783
_cell_angle_beta                  90.01708
_cell_angle_gamma                 89.994529
_cell_volume                      1608.91382802

loop_
_atom_site_label
_atom_site_type_symbol
_atom_type_description
_atom_site_fract_x
_atom_site_fract_y
_atom_site_fract_z
_atom_type_partial_charge
O1    O     O_R   0.361600 0.167310 0.164620 -0.540065
O2    O     O_R   0.638400 0.832690 0.835380 -0.540065
O3    O     O_R   0.691080 0.157570 0.338750 -0.543713
O4    O     O_R   0.308920 0.842430 0.661250 -0.543713
O5    O     O_R   0.861410 0.336420 0.339360 -0.541572
O6    O     O_R   0.138590 0.663580 0.660640 -0.541571
C1    C     C_R   0.522049 0.135256 0.367537 0.689291
C2    C     C_R   0.477951 0.864744 0.632463 0.689293
O7    O     O_R   0.691320 0.156280 0.165240 -0.542925
O8    O     O_R   0.308680 0.843720 0.834760 -0.542925
O9    O     O_R   0.861640 0.335130 0.164600 -0.541232
O10   O     O_R   0.138360 0.664870 0.835400 -0.541232
C3    C     C_R   0.522263 0.133798 0.136072 0.688728
C4    C     C_R   0.477737 0.866202 0.863928 0.688728
O11   O     O_R   0.361370 0.168600 0.339370 -0.540007
O12   O     O_R   0.638630 0.831400 0.660630 -0.540007
O13   O     O_3   0.527990 0.310540 0.251980 -0.371175
O14   O     O_3   0.472010 0.689460 0.748020 -0.371174
V1    V     V_3+5 0.802830 0.240980 0.251990 1.391591
V2    V     V_3+5 0.197170 0.759020 0.748010 1.391590
O15   O     O_R   0.191360 0.346160 0.165220 -0.543544
O16   O     O_R   0.808640 0.653840 0.834780 -0.543544
C5    C     C_R   0.022275 0.368290 0.136092 0.681886
C6    C     C_R   0.977725 0.631710 0.863908 0.681885
O17   O     O_R   0.191130 0.347440 0.338740 -0.540246
O18   O     O_R   0.808870 0.652560 0.661260 -0.540246
C7    C     C_R   0.022170 0.369918 0.367295 0.690896
C8    C     C_R   0.977830 0.630082 0.632705 0.690892
V3    V     V_3+5 0.302840 0.262750 0.251990 1.395683
V4    V     V_3+5 0.697160 0.737250 0.748010 1.395682
O19   O     O_3   0.027820 0.193180 0.251990 -0.369002
O20   O     O_3   0.972180 0.806820 0.748010 -0.369003
C9    C     C_3   0.941728 0.416807 0.526738 -0.179840
C10   C     C_3   0.058272 0.583192 0.473263 -0.179860
C11   C     C_3   0.113155 0.472968 0.562187 0.192931
C12   C     C_3   0.886845 0.527032 0.437815 0.192916
H1    H     H_    0.894722 0.348129 0.548644 0.112146
H2    H     H_    0.105278 0.651871 0.451357 0.112147
C13   C     C_3   0.988730 0.560486 0.562667 -0.082095
C14   C     C_3   0.011270 0.439513 0.437334 -0.082097
C15   C     C_3   0.815975 0.505320 0.527223 -0.156713
C16   C     C_3   0.184025 0.494679 0.472779 -0.156749
C17   C     C_R   0.820451 0.525593 0.967674 -0.156523
C18   C     C_R   0.179549 0.474407 0.032326 -0.156523
C19   C     C_R   0.831451 0.462638 0.033447 -0.153116
C20   C     C_R   0.168549 0.537362 0.966552 -0.153116
H3    H     H_    0.698515 0.434658 0.058122 0.118659
H4    H     H_    0.301485 0.565342 0.941877 0.118659
C21   C     C_R   0.011159 0.436129 0.066735 -0.047617
C22   C     C_R   0.988841 0.563871 0.933265 -0.047616
C23   C     C_R   0.679297 0.024883 0.467018 -0.159965
C24   C     C_R   0.320703 0.975116 0.532982 -0.159964
H5    H     H_    0.819890 0.042866 0.442514 0.116809
H6    H     H_    0.180110 0.957133 0.557486 0.116808
C25   C     C_R   0.668365 0.959636 0.530718 -0.154010
C26   C     C_R   0.331635 0.040363 0.469281 -0.154005
C27   C     C_R   0.488928 0.933914 0.564596 -0.044796
C28   C     C_R   0.511072 0.066086 0.435404 -0.044796
C29   C     C_R   0.679527 0.025532 0.032794 -0.156861
C30   C     C_R   0.320473 0.974468 0.967206 -0.156861
H7    H     H_    0.820330 0.044166 0.056976 0.116930
H8    H     H_    0.179670 0.955834 0.943024 0.116930
C31   C     C_R   0.668520 0.961465 0.967028 -0.151838
C32   C     C_R   0.331480 0.038535 0.032972 -0.151837
H9    H     H_    0.801384 0.932543 0.942719 0.118997
H10   H     H_    0.198616 0.067456 0.057281 0.118997
C33   C     C_R   0.488840 0.935059 0.933296 -0.047071
C34   C     C_R   0.511160 0.064941 0.066704 -0.047071
C35   C     C_3   0.243912 0.442830 0.633938 -0.363394
C36   C     C_3   0.349901 0.353751 0.612406 -0.765125
H11   H     H_    0.245071 0.297393 0.600341 0.226284
H12   H     H_    0.441821 0.362981 0.556114 0.220045
H13   H     H_    0.443788 0.334001 0.665681 0.219383
H14   H     H_    0.351316 0.497792 0.647040 0.185304
H15   H     H_    0.155052 0.432675 0.691004 0.169993
C37   C     C_3   0.756093 0.557184 0.366065 -0.363370
C38   C     C_3   0.650023 0.646242 0.387622 -0.765090
H16   H     H_    0.558024 0.636966 0.443884 0.220020
H17   H     H_    0.754810 0.702603 0.399747 0.226283
H18   H     H_    0.556198 0.666026 0.334336 0.219369
H19   H     H_    0.844968 0.567377 0.309007 0.169983
H20   H     H_    0.648720 0.502215 0.352940 0.185306
H21   H     H_    0.664472 0.510198 0.549378 0.122236
H22   H     H_    0.335529 0.489801 0.450625 0.122236
H23   H     H_    0.679579 0.544299 0.943905 0.116385
H24   H     H_    0.320421 0.455701 0.056094 0.116385
H25   H     H_    0.801051 0.929327 0.553344 0.118297
H26   H     H_    0.198949 0.070673 0.446656 0.118298

loop_
_geom_bond_atom_site_label_1
_geom_bond_atom_site_label_2
_ccdc_geom_bond_type
C18   C21   A    
C31   H9    S    
O13   V3    S    
C10   C16   S    
O4    C2    A    
V1    O19   S    
C13   C15   S    
C38   H16   S    
O9    V1    S    
C32   C34   A    
O3    C1    A    
C29   C34   A    
C5    C21   S    
O12   V4    S    
C15   H21   S    
C30   H8    S    
C19   H3    S    
C11   C16   S    
O7    C3    A    
C12   C37   S    
C9    C11   S    
O5    C7    A    
O7    V1    S    
O6    C8    A    
C30   C33   A    
C18   C20   A    
C4    C33   S    
O3    V1    S    
C36   H11   S    
O14   V4    S    
C1    C28   S    
C23   C25   A    
C14   C16   S    
C2    O12   A    
O17   V3    S    
C12   C15   S    
C18   H24   S    
C24   H6    S    
O11   V3    S    
C20   H4    S    
C38   H17   S    
C6    C22   S    
C31   C33   A    
C29   H7    S    
C9    C14   S    
C10   C13   S    
C17   H23   S    
C12   C14   S    
C16   H22   S    
C37   C38   S    
O8    C4    A    
C37   H20   S    
C1    O11   A    
C8    C13   S    
O15   V3    S    
C9    H1    S    
C23   H5    S    
C32   H10   S    
C11   C13   S    
C2    C27   S    
C19   C21   A    
C7    C14   S    
O10   V2    S    
C36   H13   S    
O1    V3    S    
C35   H14   S    
C23   C28   A    
C17   C19   A    
O18   V4    S    
C25   C27   A    
O16   C6    A    
O1    C3    A    
V2    O20   S    
C38   H18   S    
O10   C6    A    
O16   V4    S    
C10   H2    S    
C29   C31   A    
C37   H19   S    
C17   C22   A    
O5    V1    S    
O17   C7    A    
O6    V2    S    
C20   C22   A    
O18   C8    A    
O2    V4    S    
C30   C32   A    
C9    C15   S    
O15   C5    A    
V3    O19   S    
V4    O20   S    
O8    V2    S    
O9    C5    A    
O13   V1    S    
C10   C12   S    
C26   C28   A    
C35   H15   S    
O14   V2    S    
C25   H25   S    
C35   C36   S    
O2    C4    A    
C26   H26   S    
C24   C27   A    
O4    V2    S    
C11   C35   S    
C36   H12   S    
C24   C26   A    
C3    C34   S    
