data_mof_unit_58725.cif
_audit_creation_date              2012-12-11T15:26:10-0500
_audit_creation_method            fapswitch 2.2
_symmetry_space_group_name_H-M    P1
_symmetry_Int_Tables_number       1
_space_group_crystal_system       triclinic
_cell_length_a                    24.535105
_cell_length_b                    17.31248
_cell_length_c                    15.866398
_cell_angle_alpha                 89.947957
_cell_angle_beta                  51.015204
_cell_angle_gamma                 90.411116
_cell_volume                      5238.41250346

loop_
_atom_site_label
_atom_site_type_symbol
_atom_type_description
_atom_site_fract_x
_atom_site_fract_y
_atom_site_fract_z
_atom_type_partial_charge
C1    C     C_R   0.330556 0.094156 0.803716 -0.090139
C2    C     C_2   0.330657 0.774927 0.902094 -0.224783
C3    C     C_3   0.484562 0.839779 0.790511 -0.446827
C4    C     C_3   0.452631 0.799527 0.898336 -0.264022
C5    C     C_3   0.507672 0.782049 0.911300 -0.954932
C6    C     C_3   0.456845 0.109630 0.854052 -0.436146
C7    C     C_3   0.503681 0.041797 0.830378 -0.273958
C8    C     C_3   0.558696 0.062919 0.842733 -0.939244
C9    C     C_3   0.528253 0.862469 0.177287 -0.432466
C10   C     C_3   0.523017 0.940916 0.138592 -0.260391
C11   C     C_3   0.485081 0.934325 0.091132 -0.973011
C12   C     C_3   0.051722 0.665650 0.169295 -0.414104
C13   C     C_2   0.299329 0.140853 0.976760 -0.140698
C14   C     C_3   0.021041 0.638246 0.115033 -0.302354
C15   C     C_3   0.998803 0.706349 0.081963 -0.889183
C16   C     C_3   0.984562 0.339779 0.790511 -0.446828
C17   C     C_3   0.952632 0.299523 0.898334 -0.264018
C18   C     C_3   0.007674 0.282042 0.911294 -0.954937
C19   C     C_3   0.956845 0.609631 0.854051 -0.436144
C20   C     C_3   0.003684 0.541798 0.830376 -0.273959
C21   C     C_3   0.058701 0.562924 0.842721 -0.939246
C22   C     C_3   0.028252 0.362467 0.177289 -0.432462
C23   C     C_3   0.023019 0.440914 0.138590 -0.260397
C24   C     C_2   0.665453 0.782491 0.092056 -0.272490
C25   C     C_3   0.985082 0.434322 0.091131 -0.973026
C26   C     C_3   0.241541 0.284609 0.716342 -0.439498
C27   C     C_3   0.181760 0.224445 0.771185 -0.276170
C28   C     C_3   0.142612 0.219675 0.892784 -0.905195
C29   C     C_3   0.854821 0.885756 0.284373 -0.437481
C30   C     C_3   0.859490 0.974073 0.287233 -0.273199
C31   C     C_3   0.900104 0.009057 0.173988 -0.895312
C32   C     C_3   0.762984 0.284816 0.280924 -0.443945
C33   C     C_3   0.825798 0.231035 0.233850 -0.251117
C34   C     C_3   0.848983 0.192693 0.130138 -0.942053
C35   C     C_2   0.205225 0.624822 0.014036 -0.148400
C36   C     C_3   0.145205 0.884322 0.715563 -0.434130
C37   C     C_3   0.141575 0.972924 0.716695 -0.274265
C38   C     C_3   0.104537 0.004210 0.830610 -0.886304
C39   C     C_3   0.741540 0.784609 0.716342 -0.439498
C40   C     C_3   0.681759 0.724445 0.771186 -0.276175
C41   C     C_3   0.642611 0.719674 0.892784 -0.905195
C42   C     C_3   0.354821 0.385756 0.284373 -0.437480
C43   C     C_3   0.359490 0.474073 0.287233 -0.273200
C44   C     C_3   0.400104 0.509057 0.173987 -0.895312
C45   C     C_3   0.262984 0.784816 0.280924 -0.443947
C46   C     C_2   0.830656 0.274929 0.902097 -0.224784
C47   C     C_3   0.325798 0.731035 0.233851 -0.251114
C48   C     C_3   0.348983 0.692694 0.130138 -0.942059
C49   C     C_3   0.645204 0.384323 0.715562 -0.434129
C50   C     C_3   0.641575 0.472926 0.716694 -0.274263
C51   C     C_3   0.604536 0.504212 0.830609 -0.886307
C52   C     C_2   0.799330 0.640854 0.976759 -0.140698
C53   C     C_2   0.165452 0.282489 0.092059 -0.272489
C54   C     C_2   0.759924 0.164798 0.990202 -0.029016
C55   C     C_2   0.305969 0.709933 0.892556 -0.035591
C56   C     C_2   0.258514 0.196053 0.987407 -0.048153
C57   C     C_R   0.654149 0.864980 0.230464 -0.025878
C58   C     C_2   0.698722 0.722578 0.091303 -0.004946
C59   C     C_2   0.259925 0.664797 0.990201 -0.029016
C60   C     C_2   0.805968 0.209935 0.892558 -0.035592
C61   C     C_2   0.758515 0.696054 0.987406 -0.048155
C62   C     C_2   0.198722 0.222576 0.091305 -0.004946
C63   C     C_R   0.592461 0.144800 0.585087 -0.124579
C64   C     C_R   0.379369 0.905185 0.415229 -0.150376
C65   C     C_R   0.402002 0.139484 0.413967 -0.154705
C66   C     C_R   0.621661 0.906529 0.583427 -0.165163
C67   C     C_R   0.092460 0.644800 0.585087 -0.124578
C68   C     C_R   0.669941 0.082538 0.193188 -0.059795
C69   C     C_R   0.879369 0.405186 0.415229 -0.150374
C70   C     C_R   0.902002 0.639484 0.413968 -0.154705
C71   C     C_R   0.121661 0.406529 0.583428 -0.165165
C72   C     C_R   0.665282 0.141477 0.404829 -0.172647
C73   C     C_R   0.309483 0.903491 0.592778 -0.125962
C74   C     C_R   0.338811 0.143317 0.592713 -0.172664
C75   C     C_R   0.690615 0.904521 0.406519 -0.062375
C76   C     C_R   0.165281 0.641477 0.404829 -0.172647
C77   C     C_R   0.809483 0.403491 0.592778 -0.125963
C78   C     C_R   0.838810 0.643317 0.592713 -0.172664
C79   C     C_R   0.341855 0.868613 0.774399 -0.076854
C80   C     C_R   0.190615 0.404521 0.406519 -0.062378
C81   C     C_R   0.581518 0.099927 0.192016 0.081858
C82   C     C_R   0.433739 0.864861 0.772742 0.114583
C83   C     C_R   0.419122 0.100144 0.807176 0.126099
C84   C     C_R   0.566110 0.869662 0.223319 0.147980
C85   C     C_R   0.081518 0.599927 0.192016 0.081859
C86   C     C_R   0.933739 0.364862 0.772743 0.114583
C87   C     C_R   0.919122 0.600144 0.807176 0.126099
C88   C     C_R   0.066109 0.369661 0.223321 0.147979
C89   C     C_R   0.348055 0.110414 0.868334 0.058638
C90   C     C_R   0.830556 0.594156 0.803716 -0.090139
C91   C     C_R   0.626432 0.830962 0.185732 0.057802
C92   C     C_R   0.654120 0.096067 0.125867 0.067915
C93   C     C_R   0.369977 0.829399 0.814022 0.100182
C94   C     C_R   0.848056 0.610415 0.868334 0.058639
C95   C     C_R   0.126431 0.330960 0.185735 0.057803
C96   C     C_R   0.154120 0.596067 0.125867 0.067915
C97   C     C_R   0.869976 0.329400 0.814024 0.100182
C98   C     C_R   0.644208 0.187856 0.491811 0.076849
C99   C     C_R   0.310053 0.892450 0.506824 0.064314
C100  C     C_R   0.355024 0.185347 0.505496 0.087369
C101  C     C_R   0.154149 0.364979 0.230465 -0.025879
C102  C     C_R   0.690304 0.892831 0.491971 0.064272
C103  C     C_R   0.144207 0.687856 0.491811 0.076848
C104  C     C_R   0.810053 0.392451 0.506824 0.064314
C105  C     C_R   0.855023 0.685347 0.505497 0.087369
C106  C     C_R   0.190304 0.392831 0.491971 0.064275
C107  C     C_R   0.269645 0.299900 0.601449 0.167167
C108  C     C_R   0.817524 0.849969 0.395787 0.177923
C109  C     C_R   0.730497 0.304023 0.396330 0.170087
C110  C     C_R   0.181490 0.852245 0.602826 0.168299
C111  C     C_R   0.769644 0.799899 0.601449 0.167168
C112  C     C_R   0.169941 0.582538 0.193188 -0.059795
C113  C     C_R   0.317524 0.349969 0.395787 0.177922
C114  C     C_R   0.230497 0.804024 0.396331 0.170088
C115  C     C_R   0.681490 0.352246 0.602826 0.168298
C116  C     C_R   0.732423 0.853902 0.590863 -0.265114
C117  C     C_R   0.354287 0.294564 0.406155 -0.260529
C118  C     C_R   0.266634 0.859534 0.408008 -0.260285
C119  C     C_R   0.643709 0.298456 0.591382 -0.260605
C120  C     C_R   0.232423 0.353903 0.590863 -0.265115
C121  C     C_R   0.854287 0.794564 0.406156 -0.260529
C122  C     C_R   0.766634 0.359534 0.408008 -0.260283
C123  C     C_R   0.841854 0.368614 0.774401 -0.076855
C124  C     C_R   0.143709 0.798457 0.591382 -0.260606
C125  C     C_R   0.749433 0.870378 0.490433 0.060766
C126  C     C_R   0.326305 0.261240 0.506746 0.060517
C127  C     C_R   0.250074 0.873263 0.508495 0.059397
C128  C     C_R   0.672552 0.264945 0.490671 0.056316
C129  C     C_R   0.249433 0.370378 0.490433 0.060766
C130  C     C_R   0.826305 0.761240 0.506746 0.060518
C131  C     C_R   0.750074 0.373263 0.508495 0.059398
C132  C     C_R   0.172552 0.764945 0.490671 0.056317
C133  C     C_2   0.260521 0.069310 0.841338 0.444136
C134  C     C_2   0.705225 0.124822 0.014036 -0.148398
C135  C     C_2   0.724845 0.852437 0.196093 0.459047
C136  C     C_2   0.734487 0.045503 0.161019 0.393813
C137  C     C_2   0.267309 0.868692 0.821775 0.518124
C138  C     C_2   0.760521 0.569310 0.841338 0.444134
C139  C     C_2   0.224845 0.352436 0.196093 0.459051
C140  C     C_2   0.234488 0.545503 0.161019 0.393813
C141  C     C_2   0.767309 0.368693 0.821776 0.518125
C142  C     C_3   0.551723 0.165652 0.169295 -0.414105
C143  C     C_3   0.521042 0.138249 0.115031 -0.302353
C144  C     C_3   0.498806 0.206353 0.081960 -0.889177
H1    H     H_    0.566800 0.161466 0.666052 0.114395
H2    H     H_    0.264524 0.917135 0.672459 0.093378
H3    H     H_    0.971325 0.492440 0.080810 0.257464
H4    H     H_    0.994475 0.481438 0.207608 0.198658
H5    H     H_    0.076541 0.464979 0.075618 0.199495
H6    H     H_    0.056378 0.322654 0.107433 0.194776
H7    H     H_    0.976645 0.334558 0.237545 0.183891
H8    H     H_    0.178733 0.202400 0.908442 0.282587
H9    H     H_    0.119793 0.276568 0.930467 0.253877
H10   H     H_    0.099677 0.176126 0.930616 0.265061
H11   H     H_    0.144954 0.241094 0.756475 0.210417
H12   H     H_    0.200497 0.166325 0.735616 0.198369
H13   H     H_    0.307750 0.158902 0.675252 0.109427
H14   H     H_    0.283561 0.272020 0.721311 0.172735
H15   H     H_    0.219725 0.339290 0.762995 0.189526
H16   H     H_    0.953023 0.983177 0.117707 0.268927
H17   H     H_    0.871201 0.999345 0.142211 0.273745
H18   H     H_    0.906701 0.071992 0.178026 0.256609
H19   H     H_    0.806515 0.999985 0.340871 0.194245
H20   H     H_    0.886987 0.989535 0.320024 0.211407
H21   H     H_    0.909681 0.864897 0.227877 0.191577
H22   H     H_    0.831567 0.865811 0.246982 0.209321
H23   H     H_    0.818175 0.139675 0.149909 0.265357
H24   H     H_    0.735562 0.919196 0.326246 0.083150
H25   H     H_    0.841088 0.231761 0.083839 0.259065
H26   H     H_    0.904802 0.175943 0.079941 0.268171
H27   H     H_    0.870436 0.265449 0.216180 0.193502
H28   H     H_    0.812819 0.185289 0.293413 0.203017
H29   H     H_    0.723524 0.264386 0.273245 0.182975
H30   H     H_    0.783004 0.338783 0.231274 0.178165
H31   H     H_    0.050614 0.979743 0.887862 0.266360
H32   H     H_    0.134338 0.989411 0.859438 0.274872
H33   H     H_    0.100779 0.067937 0.829422 0.246722
H34   H     H_    0.194785 0.999252 0.661066 0.195211
H35   H     H_    0.204891 0.650581 0.320003 0.123667
H36   H     H_    0.112015 0.991008 0.688464 0.211406
H37   H     H_    0.090122 0.862717 0.772286 0.192413
H38   H     H_    0.168839 0.861604 0.751039 0.203954
H39   H     H_    0.678734 0.702400 0.908441 0.282587
H40   H     H_    0.619792 0.776567 0.930468 0.253880
H41   H     H_    0.599677 0.676125 0.930616 0.265060
H42   H     H_    0.644953 0.741095 0.756477 0.210418
H43   H     H_    0.700496 0.666325 0.735616 0.198371
H44   H     H_    0.783560 0.772020 0.721311 0.172735
H45   H     H_    0.719725 0.839290 0.762995 0.189525
H46   H     H_    0.764524 0.417135 0.672459 0.093378
H47   H     H_    0.453023 0.483178 0.117706 0.268927
H48   H     H_    0.371200 0.499344 0.142211 0.273745
H49   H     H_    0.406700 0.571992 0.178026 0.256610
H50   H     H_    0.306515 0.499985 0.340871 0.194245
H51   H     H_    0.386987 0.489535 0.320023 0.211408
H52   H     H_    0.409681 0.364897 0.227876 0.191577
H53   H     H_    0.331567 0.365811 0.246982 0.209320
H54   H     H_    0.318177 0.639675 0.149907 0.265358
H55   H     H_    0.341087 0.731762 0.083840 0.259065
H56   H     H_    0.404803 0.675947 0.079940 0.268172
H57   H     H_    0.807749 0.658902 0.675252 0.109427
H58   H     H_    0.370435 0.765448 0.216182 0.193498
H59   H     H_    0.312817 0.685288 0.293413 0.203017
H60   H     H_    0.223524 0.764387 0.273245 0.182975
H61   H     H_    0.283004 0.838783 0.231274 0.178165
H62   H     H_    0.550613 0.479744 0.887859 0.266361
H63   H     H_    0.634337 0.489413 0.859438 0.274872
H64   H     H_    0.600778 0.567938 0.829419 0.246722
H65   H     H_    0.694786 0.499252 0.661065 0.195211
H66   H     H_    0.612016 0.491009 0.688461 0.211406
H67   H     H_    0.590122 0.362718 0.772285 0.192413
H68   H     H_    0.235562 0.419196 0.326246 0.083150
H69   H     H_    0.668838 0.361605 0.751040 0.203953
H70   H     H_    0.685883 0.877537 0.664421 0.127961
H71   H     H_    0.404161 0.275120 0.334092 0.122129
H72   H     H_    0.313038 0.885004 0.335089 0.124330
H73   H     H_    0.395068 0.918499 0.336847 0.113962
H74   H     H_    0.593095 0.279535 0.663486 0.119737
H75   H     H_    0.185884 0.377537 0.664421 0.127962
H76   H     H_    0.904161 0.775120 0.334092 0.122129
H77   H     H_    0.813039 0.385004 0.335088 0.124326
H78   H     H_    0.093095 0.779535 0.663486 0.119737
H79   H     H_    0.315278 0.694588 0.818030 0.157427
H80   H     H_    0.765717 0.173926 0.051890 0.131687
H81   H     H_    0.686409 0.699513 0.165340 0.174678
H82   H     H_    0.269362 0.221647 0.915302 0.109266
H83   H     H_    0.815277 0.194590 0.818032 0.157427
H84   H     H_    0.416255 0.147545 0.335634 0.118554
H85   H     H_    0.265718 0.673924 0.051888 0.131688
H86   H     H_    0.186409 0.199512 0.165342 0.174677
H87   H     H_    0.769363 0.721647 0.915300 0.109266
H88   H     H_    0.316947 0.791826 0.979166 0.112232
H89   H     H_    0.693962 0.122195 0.957929 0.137875
H90   H     H_    0.676640 0.804306 0.018268 0.141847
H91   H     H_    0.293774 0.116485 0.044951 0.131648
H92   H     H_    0.816946 0.291828 0.979168 0.112233
H93   H     H_    0.193962 0.622195 0.957930 0.137876
H94   H     H_    0.176638 0.304305 0.018270 0.141847
H95   H     H_    0.608619 0.922454 0.659175 0.093700
H96   H     H_    0.793775 0.616487 0.044951 0.131649
H97   H     H_    0.253368 0.053556 0.782776 0.003992
H98   H     H_    0.763784 0.898035 0.157183 0.053668
H99   H     H_    0.739525 0.031493 0.222408 -0.002620
H100  H     H_    0.242782 0.921958 0.827686 0.004349
H101  H     H_    0.753368 0.553556 0.782776 0.003992
H102  H     H_    0.263784 0.398035 0.157185 0.053666
H103  H     H_    0.239525 0.531494 0.222408 -0.002619
H104  H     H_    0.742782 0.421960 0.827686 0.004349
H105  H     H_    0.459775 0.241714 0.153624 0.252004
H106  H     H_    0.066797 0.661468 0.666051 0.114397
H107  H     H_    0.544982 0.242950 0.020525 0.277163
H108  H     H_    0.474158 0.185044 0.046932 0.249814
H109  H     H_    0.561318 0.104809 0.041407 0.208577
H110  H     H_    0.474782 0.100450 0.170616 0.200501
H111  H     H_    0.515229 0.200367 0.242556 0.180991
H112  H     H_    0.593731 0.208642 0.113786 0.215171
H113  H     H_    0.530055 0.724436 0.876401 0.267583
H114  H     H_    0.549984 0.826557 0.870815 0.266004
H115  H     H_    0.483278 0.779990 0.998446 0.269450
H116  H     H_    0.412169 0.837436 0.965902 0.203521
H117  H     H_    0.895068 0.418501 0.336847 0.113959
H118  H     H_    0.429963 0.743058 0.901213 0.224983
H119  H     H_    0.524449 0.801679 0.722901 0.213247
H120  H     H_    0.509029 0.891913 0.791553 0.183117
H121  H     H_    0.593814 0.109690 0.784950 0.268871
H122  H     H_    0.532758 0.082088 0.926461 0.273037
H123  H     H_    0.590833 0.011450 0.826051 0.247422
H124  H     H_    0.469756 0.994949 0.889121 0.203688
H125  H     H_    0.531118 0.021565 0.746887 0.209784
H126  H     H_    0.484401 0.166055 0.829388 0.184036
H127  H     H_    0.417986 0.114368 0.943693 0.182282
H128  H     H_    0.916255 0.647545 0.335634 0.118556
H129  H     H_    0.520197 0.907206 0.010375 0.278210
H130  H     H_    0.436030 0.899677 0.144907 0.262536
H131  H     H_    0.471307 0.992442 0.080836 0.257456
H132  H     H_    0.494472 0.981439 0.207612 0.198655
H133  H     H_    0.576539 0.964984 0.075622 0.199492
H134  H     H_    0.556380 0.822658 0.107429 0.194777
H135  H     H_    0.476647 0.834558 0.237542 0.183888
H136  H     H_    0.959772 0.741711 0.153626 0.252006
H137  H     H_    0.044978 0.742946 0.020526 0.277162
H138  H     H_    0.974153 0.685039 0.046938 0.249814
H139  H     H_    0.108618 0.422453 0.659176 0.093702
H140  H     H_    0.061316 0.604806 0.041408 0.208575
H141  H     H_    0.974781 0.600447 0.170618 0.200505
H142  H     H_    0.015229 0.700367 0.242555 0.180991
H143  H     H_    0.093731 0.708640 0.113784 0.215171
H144  H     H_    0.030058 0.224430 0.876389 0.267583
H145  H     H_    0.049985 0.326551 0.870812 0.266005
H146  H     H_    0.983281 0.279979 0.998439 0.269448
H147  H     H_    0.912170 0.337432 0.965902 0.203522
H148  H     H_    0.929964 0.243055 0.901209 0.224984
H149  H     H_    0.024449 0.301681 0.722899 0.213248
H150  H     H_    0.704891 0.150581 0.320003 0.123666
H151  H     H_    0.009028 0.391913 0.791557 0.183114
H152  H     H_    0.093820 0.609692 0.784932 0.268870
H153  H     H_    0.032767 0.582098 0.926445 0.273037
H154  H     H_    0.090838 0.511454 0.826043 0.247425
H155  H     H_    0.969761 0.494951 0.889121 0.203686
H156  H     H_    0.031118 0.521564 0.746887 0.209786
H157  H     H_    0.984400 0.666056 0.829389 0.184038
H158  H     H_    0.917987 0.614367 0.943692 0.182279
H159  H     H_    0.020192 0.407186 0.010385 0.278214
H160  H     H_    0.936023 0.399691 0.144918 0.262536
N1    N     N_R   0.388930 0.078160 0.705470 -0.087511
N2    N     N_R   0.419500 0.922160 0.443350 -0.036395
N3    N     N_R   0.419500 0.077840 0.443350 -0.035448
N4    N     N_R   0.580500 0.922160 0.556650 -0.042844
N5    N     N_R   0.080500 0.577840 0.556650 -0.041296
N6    N     N_R   0.919500 0.422160 0.443350 -0.036395
N7    N     N_R   0.919500 0.577840 0.443350 -0.035448
N8    N     N_R   0.080500 0.422160 0.556650 -0.042845
N9    N     N_R   0.626210 0.077590 0.443410 -0.048231
N10   N     N_R   0.373790 0.922410 0.556590 -0.047322
N11   N     N_R   0.373790 0.077590 0.556590 -0.045229
N12   N     N_R   0.611070 0.921840 0.294530 -0.097061
N13   N     N_R   0.626210 0.922410 0.443410 -0.049976
N14   N     N_R   0.126210 0.577590 0.443410 -0.048231
N15   N     N_R   0.873790 0.422410 0.556590 -0.047322
N16   N     N_R   0.873790 0.577590 0.556590 -0.045228
N17   N     N_R   0.126210 0.422410 0.443410 -0.049976
N18   N     N_R   0.554800 0.077270 0.294580 -0.060814
N19   N     N_R   0.445200 0.922730 0.705420 -0.071560
N20   N     N_R   0.445200 0.077270 0.705420 -0.060801
N21   N     N_R   0.554800 0.922730 0.294580 -0.068651
N22   N     N_R   0.054800 0.577270 0.294580 -0.060814
N23   N     N_R   0.611070 0.078160 0.294530 -0.085365
N24   N     N_R   0.945200 0.422730 0.705420 -0.071560
N25   N     N_R   0.945200 0.577270 0.705420 -0.060801
N26   N     N_R   0.054800 0.422730 0.294580 -0.068652
N27   N     N_R   0.388930 0.921840 0.705470 -0.094296
N28   N     N_R   0.888930 0.578160 0.705470 -0.087511
N29   N     N_R   0.111070 0.421840 0.294530 -0.097061
N30   N     N_R   0.111070 0.578160 0.294530 -0.085365
N31   N     N_R   0.888930 0.421840 0.705470 -0.094296
N32   N     N_R   0.580500 0.077840 0.556650 -0.041296
Ni1   Ni    Ni4+2 0.382710 0.000000 0.629850 0.190770
Ni2   Ni    Ni4+2 0.617290 0.000000 0.370150 0.195503
Ni3   Ni    Ni4+2 0.882710 0.500000 0.629850 0.190769
Ni4   Ni    Ni4+2 0.117290 0.500000 0.370150 0.195503
Ni5   Ni    Ni4+2 0.513020 0.000000 0.629850 0.196181
Ni6   Ni    Ni4+2 0.486980 0.000000 0.370150 0.200597
Ni7   Ni    Ni4+2 0.013020 0.500000 0.629850 0.196182
Ni8   Ni    Ni4+2 0.986980 0.500000 0.370150 0.200597
O1    O     O_2   0.210731 0.062622 0.937670 -0.581478
O2    O     O_2   0.739952 0.790784 0.213580 -0.609795
O3    O     O_2   0.781583 0.027658 0.067064 -0.593028
O4    O     O_2   0.232002 0.809587 0.855618 -0.608642
O5    O     O_2   0.710731 0.562622 0.937670 -0.581477
O6    O     O_2   0.239952 0.290784 0.213579 -0.609795
O7    O     O_2   0.281583 0.527657 0.067064 -0.593029
O8    O     O_2   0.732001 0.309589 0.855621 -0.608642

loop_
_geom_bond_atom_site_label_1
_geom_bond_atom_site_label_2
_ccdc_geom_bond_type
C31   H17   S    
C55   C59   S    
C6    H126  S    
C140  H103  S    
C107  C120  A    
C19   C20   S    
C30   H20   S    
C69   N6    A    
C102  C125  S    
C22   H6    S    
C51   H62   S    
C40   H43   S    
C37   H34   S    
C43   H50   S    
C77   H46   S    
C15   H136  S    
C63   C98   A    
C19   C87   S    
C52   C61   D    
C12   H143  S    
C85   C96   A    
C72   N9    A    
C53   C95   S    
C14   H141  S    
C143  C144  S    
C54   C134  D    
C87   C94   A    
C49   H69   S    
C141  H104  S    
C11   H129  S    
C65   N3    A    
C88   N26   A    
C66   N4    A    
C133  O1    D    
C50   H65   S    
C143  H110  S    
C29   C108  S    
C84   C91   A    
C64   N2    A    
C103  C132  S    
C119  C128  A    
C76   C103  A    
C39   C111  S    
C23   H5    S    
C88   C95   A    
C4    H116  S    
C21   H152  S    
C68   N23   A    
N3    Ni6   S    
C75   N13   A    
C45   C47   S    
C32   C109  S    
C48   H55   S    
N2    N10   A    
N10   Ni1   S    
C4    C5    S    
N8    Ni7   S    
C74   C100  A    
C17   H147  S    
C46   H92   S    
C29   H22   S    
C43   C44   S    
C140  O7    D    
C37   C38   S    
C111  C130  A    
C38   H32   S    
C7    H125  S    
N7    N16   A    
C123  C141  S    
C26   C27   S    
C25   H3    S    
C49   C115  S    
C124  H78   S    
C121  H76   S    
C56   C62   S    
C9    H134  S    
C141  O8    D    
C34   H23   S    
C70   N7    A    
C23   H4    S    
C27   H12   S    
C37   H36   S    
C6    C83   S    
C74   H13   S    
C46   C60   D    
N11   Ni1   S    
C86   N24   A    
C8    H121  S    
C70   C105  A    
C9    H135  S    
C6    C7    S    
C32   H29   S    
C2    C55   D    
C44   H48   S    
C120  H75   S    
C68   C92   A    
C26   H14   S    
C24   H90   S    
C18   H144  S    
C20   C21   S    
C4    H118  S    
C71   C106  A    
C83   N20   A    
C138  H101  S    
C22   C23   S    
C57   C135  S    
C57   N12   A    
C36   H37   S    
C33   H28   S    
N8    N17   A    
C144  H105  S    
N22   N30   A    
C112  C140  S    
C35   H93   S    
C121  C130  A    
C76   H35   S    
N22   Ni8   S    
C101  C139  S    
C67   C103  A    
C7    C8    S    
C35   C96   S    
C18   H146  S    
C64   H73   S    
C100  C126  S    
C36   C37   S    
N24   N31   A    
C39   H45   S    
C51   H63   S    
C40   H42   S    
N6    N15   A    
C80   C106  A    
C142  H112  S    
C124  C132  A    
C43   H51   S    
N7    Ni8   S    
C117  H71   S    
C86   C97   A    
C12   H142  S    
C81   C92   A    
N12   Ni2   S    
C45   C114  S    
C64   C99   A    
N18   N23   A    
C62   H86   S    
C104  C131  S    
C41   H40   S    
C9    C10   S    
C2    H88   S    
C80   H68   S    
C13   C56   D    
C123  N31   A    
C38   H33   S    
C80   N17   A    
C8    H123  S    
C1    C133  S    
C90   C138  S    
C83   C89   A    
C120  C129  A    
C39   C40   S    
N27   Ni1   S    
C1    N1    A    
C47   H58   S    
C48   H54   S    
C29   C30   S    
N5    N14   A    
C5    H113  S    
C17   C18   S    
C19   H158  S    
C75   H24   S    
C34   H25   S    
C113  C117  A    
C39   H44   S    
C137  O4    D    
C81   C142  S    
C144  H107  S    
C115  C119  A    
C116  C125  A    
C36   C110  S    
C28   H9    S    
N3    N11   A    
C118  C127  A    
C3    C4    S    
C59   H85   S    
C85   N22   A    
C117  C126  A    
C22   H7    S    
C138  O5    D    
C6    H127  S    
N9    Ni2   S    
C135  O2    D    
C92   C134  S    
C10   H132  S    
C28   H8    S    
C105  C130  S    
C71   H139  S    
C73   N10   A    
C97   C123  A    
N6    Ni8   S    
C101  N29   A    
C58   C61   S    
C139  O6    D    
C10   H133  S    
C10   C11   S    
C52   H96   S    
N30   Ni4   S    
C50   H66   S    
C49   C50   S    
C143  H109  S    
C14   C15   S    
C15   H138  S    
C118  H72   S    
C71   N8    A    
C63   H1    S    
N21   Ni6   S    
C95   C101  A    
C122  C131  A    
C78   H57   S    
C108  C121  A    
C112  N30   A    
C25   H160  S    
C44   H49   S    
C48   H56   S    
C90   N28   A    
N13   Ni2   S    
C30   C31   S    
C66   H95   S    
C5    H115  S    
C20   H155  S    
C35   C59   D    
C29   H21   S    
C110  C124  A    
C87   N25   A    
C16   C17   S    
N26   N29   A    
C119  H74   S    
C111  C116  A    
C22   C88   S    
C31   H16   S    
C136  H99   S    
C13   H91   S    
C13   C89   S    
C98   C128  S    
C31   H18   S    
C82   C93   A    
C16   C86   S    
N9    N32   A    
C82   N19   A    
C30   H19   S    
N28   Ni3   S    
C90   C94   A    
C27   H11   S    
N19   Ni5   S    
C8    H122  S    
C74   N11   A    
N17   Ni4   S    
C72   C98   A    
C16   H151  S    
C14   H140  S    
C81   N18   A    
C32   H30   S    
C26   C107  S    
C11   H130  S    
C109  C128  A    
C54   H80   S    
N4    N13   A    
C47   H59   S    
C26   H15   S    
C42   H52   S    
C58   H81   S    
C46   C97   S    
C21   H153  S    
C36   H38   S    
C42   C43   S    
C33   H27   S    
N24   Ni7   S    
C55   H79   S    
N14   Ni4   S    
N4    Ni5   S    
C45   H61   S    
C57   C91   A    
C42   H53   S    
C65   C100  A    
N18   Ni6   S    
C99   C127  S    
C17   H148  S    
C67   N5    A    
C69   H117  S    
C16   H149  S    
C32   C33   S    
C136  O3    D    
C38   H31   S    
C45   H60   S    
C61   H87   S    
C79   N27   A    
C9    C84   S    
C67   H106  S    
C24   C58   D    
C142  C143  S    
C41   H39   S    
C77   C104  A    
C139  H102  S    
C106  C129  S    
N1    N20   A    
C84   N21   A    
C66   C102  A    
C54   C60   S    
C96   C112  A    
C113  C129  A    
C12   C85   S    
C78   C105  A    
C135  H98   S    
C79   C93   A    
C44   H47   S    
C115  C131  A    
C109  C122  A    
C76   N14   A    
C77   N15   A    
C78   N16   A    
N1    Ni1   S    
N25   Ni7   S    
C133  H97   S    
C137  H100  S    
C122  H77   S    
C75   C102  A    
C19   H157  S    
C52   C94   S    
C108  C125  A    
C34   H26   S    
C110  C127  A    
C144  H108  S    
C28   H10   S    
N20   Ni5   S    
C50   C51   S    
C18   H145  S    
C21   H154  S    
C68   C136  S    
C116  H70   S    
N2    Ni6   S    
C51   H64   S    
N29   Ni4   S    
C142  H111  S    
C65   H84   S    
N15   Ni3   S    
N16   Ni3   S    
N32   Ni5   S    
C53   C62   D    
C42   C113  S    
C70   H128  S    
C47   C48   S    
C49   H67   S    
C3    C82   S    
C33   C34   S    
C41   H41   S    
N5    Ni7   S    
C11   H131  S    
C114  C118  A    
C40   C41   S    
C12   C14   S    
C3    H120  S    
C3    H119  S    
N25   N28   A    
C15   H137  S    
N19   N27   A    
C24   C91   S    
C69   C104  A    
C73   C99   A    
C1    C89   A    
C79   C137  S    
C114  C132  A    
C2    C93   S    
C107  C126  A    
C53   H94   S    
C25   H159  S    
C56   H82   S    
C73   H2    S    
C60   H83   S    
N23   Ni2   S    
N31   Ni3   S    
N12   N21   A    
C5    H114  S    
C20   H156  S    
C134  H89   S    
C63   N32   A    
C23   C25   S    
C7    H124  S    
C27   C28   S    
N26   Ni8   S    
C72   H150  S    
