data_mof_unit_43279.cif
_audit_creation_date              2012-10-26T19:55:49-0400
_audit_creation_method            fapswitch 2.2
_symmetry_space_group_name_H-M    P1
_symmetry_Int_Tables_number       1
_space_group_crystal_system       triclinic
_cell_length_a                    10.896707
_cell_length_b                    10.83511
_cell_length_c                    9.698167
_cell_angle_alpha                 88.738902
_cell_angle_beta                  91.240842
_cell_angle_gamma                 94.110258
_cell_volume                      1141.58050676

loop_
_atom_site_label
_atom_site_type_symbol
_atom_type_description
_atom_site_fract_x
_atom_site_fract_y
_atom_site_fract_z
_atom_type_partial_charge
C1    C     C_R   0.496923 0.263357 0.501144 0.535932
C2    C     C_R   0.836515 0.442442 0.995370 -0.086673
C3    C     C_R   0.776465 0.323978 0.997677 0.257297
C4    C     C_R   0.262133 0.494455 0.498748 0.555317
C5    C     C_R   0.769631 0.254047 0.878216 -0.032372
C6    C     C_R   0.822325 0.303192 0.757224 -0.051344
C7    C     C_R   0.882799 0.422418 0.755773 0.060904
C8    C     C_R   0.267932 0.118812 0.554738 -0.077443
C9    C     C_R   0.160509 0.049645 0.589867 -0.102583
C10   C     C_R   0.165604 0.926544 0.629966 -0.052073
C11   C     C_R   0.275513 0.868099 0.622602 0.228271
C12   C     C_R   0.132431 0.308448 0.995400 0.228608
C13   C     C_R   0.380237 0.930409 0.559052 -0.008442
C14   C     C_R   0.378846 0.060972 0.541300 -0.023168
C15   C     C_R   0.487427 0.129905 0.502958 -0.041006
C16   C     C_R   0.489328 0.736563 0.499125 0.599779
C17   C     C_R   0.583521 0.071659 0.448589 -0.113167
C18   C     C_R   0.570363 0.945449 0.427319 0.240526
C19   C     C_R   0.480027 0.871406 0.499141 0.013735
C20   C     C_R   0.667152 0.663942 0.142144 -0.138707
C21   C     C_R   0.754356 0.741008 0.070435 0.243240
C22   C     C_R   0.747120 0.746490 0.927513 0.204357
C23   C     C_R   0.928734 0.468294 0.381275 -0.163236
C24   C     C_R   0.662890 0.667698 0.856592 -0.102614
C25   C     C_R   0.578894 0.583623 0.925276 0.119603
C26   C     C_R   0.579759 0.582868 0.074035 0.100445
C27   C     C_R   0.431529 0.414786 0.074009 0.051754
C28   C     C_R   0.736637 0.493164 0.501749 0.541796
C29   C     C_R   0.432174 0.414489 0.926788 0.024695
C30   C     C_R   0.152776 0.436437 0.012682 -0.118532
C31   C     C_R   0.136477 0.487713 0.140703 -0.119687
C32   C     C_R   0.101967 0.410666 0.252608 0.034452
C33   C     C_R   0.087146 0.281965 0.236903 -0.123483
C34   C     C_R   0.869724 0.480617 0.504905 -0.012583
C35   C     C_R   0.101990 0.231053 0.108240 -0.054309
C36   C     C_3   0.579282 0.932936 0.194875 -0.058052
C37   C     C_3   0.913079 0.758359 0.230710 -0.065492
C38   C     C_R   0.938731 0.472807 0.628169 -0.008217
C39   C     C_R   0.066444 0.487612 0.623299 -0.079585
C40   C     C_R   0.126954 0.485079 0.497625 0.006004
C41   C     C_R   0.055410 0.463160 0.377002 -0.039646
C42   C     C_R   0.891301 0.490862 0.875863 -0.135245
Cl1   Cl    Cl    0.141929 0.244375 0.832917 -0.696446
Cl2   Cl    Cl    0.709795 0.263236 0.149437 -0.664113
Cl3   Cl    Cl    0.279768 0.735192 0.727645 -0.617274
Cl4   Cl    Cl    0.848064 0.849313 0.834067 -0.605985
Cu1   Cu    Cu3+1 0.499990 0.499990 0.640660 1.000380
Cu2   Cu    Cu3+1 0.500010 0.500010 0.359340 0.974827
H1    H     H_    0.723340 0.162222 0.878807 0.162149
H2    H     H_    0.670760 0.672137 0.747636 0.212206
H3    H     H_    0.377785 0.343356 0.872608 0.173478
H4    H     H_    0.147321 0.587156 0.151638 0.131716
H5    H     H_    0.057661 0.221974 0.322600 0.126582
H6    H     H_    0.086490 0.132093 0.095594 0.179389
H7    H     H_    0.874577 0.451524 0.289398 0.176788
H8    H     H_    0.118521 0.490314 0.718323 0.189376
H9    H     H_    0.938557 0.582246 0.876345 0.157566
H10   H     H_    0.839110 0.499372 0.084135 0.109326
H11   H     H_    0.650974 0.951738 0.116605 0.213938
H12   H     H_    0.816432 0.248513 0.664799 0.122424
H13   H     H_    0.528516 0.018777 0.196077 0.132515
H14   H     H_    0.514028 0.856221 0.159436 0.130116
H15   H     H_    0.950126 0.677179 0.182219 0.091544
H16   H     H_    0.863098 0.730387 0.326228 0.132333
H17   H     H_    0.993071 0.821556 0.261571 0.151840
H18   H     H_    0.661200 0.125798 0.404794 0.192518
H19   H     H_    0.262470 0.216709 0.532969 0.137988
H20   H     H_    0.074674 0.093682 0.595132 0.177827
H21   H     H_    0.084633 0.877762 0.673087 0.203750
H22   H     H_    0.375392 0.344277 0.128740 0.132452
H23   H     H_    0.181407 0.497157 0.928303 0.160607
H24   H     H_    0.669636 0.671832 0.250845 0.221598
N1    N     N_R   0.501190 0.501210 0.147910 -0.222238
N2    N     N_R   0.501230 0.501290 0.852040 -0.228030
O1    O     O_R   0.499990 0.319640 0.618810 -0.503860
O2    O     O_3   0.838071 0.822756 0.137871 -0.491777
O3    O     O_R   0.500000 0.319660 0.381240 -0.471841
O4    O     O_R   0.319640 0.500000 0.618780 -0.453640
O5    O     O_R   0.319650 0.500020 0.381210 -0.514859
O6    O     O_R   0.500000 0.680340 0.618760 -0.469045
O7    O     O_R   0.500010 0.680360 0.381190 -0.509717
O8    O     O_R   0.680350 0.499980 0.618790 -0.526725
O9    O     O_R   0.680360 0.500000 0.381220 -0.511009
O10   O     O_3   0.635663 0.898779 0.322572 -0.547735

loop_
_geom_bond_atom_site_label_1
_geom_bond_atom_site_label_2
_ccdc_geom_bond_type
C27   C29   A    
C1    O3    A    
C31   H4    S    
C36   H11   S    
C30   H23   S    
C21   O2    S    
C17   H18   S    
Cu2   O5    S    
C21   C22   A    
C2    C42   A    
C18   C19   A    
C12   Cl1   S    
C30   C31   A    
C7    C42   A    
C26   N1    A    
Cu2   O7    S    
C25   N2    A    
Cu1   O8    S    
C39   H8    S    
C8    C9    A    
C37   H17   S    
C18   O10   S    
C32   C41   S    
C1    C15   S    
C9    C10   A    
C28   C34   S    
C13   C14   A    
C35   H6    S    
C33   H5    S    
C5    H1    S    
Cu1   O6    S    
C36   H14   S    
C42   H9    S    
C37   H15   S    
C24   H2    S    
C38   C39   A    
C3    Cl2   S    
C13   C19   A    
C28   O8    A    
C1    O1    A    
C6    H12   S    
C24   C25   A    
C4    O5    A    
C39   C40   A    
C29   N2    A    
C25   C26   A    
C16   O6    A    
Cu2   O3    S    
C4    O4    A    
Cu1   Cu2   S    
C23   C34   A    
C17   C18   A    
C12   C35   A    
C27   H22   S    
C40   C41   A    
C22   Cl4   S    
C37   O2    S    
C22   C24   A    
C11   Cl3   S    
C36   H13   S    
C37   H16   S    
C29   H3    S    
C15   C17   A    
C8    C14   A    
C12   C30   A    
C34   C38   A    
Cu2   N1    S    
C31   C32   A    
Cu1   N2    S    
C3    C5    A    
C2    H10   S    
C23   H7    S    
C6    C7    A    
C23   C41   A    
Cu2   O9    S    
C4    C40   S    
C32   C33   A    
C2    C3    A    
C9    H20   S    
Cu1   O1    S    
C11   C13   A    
C5    C6    A    
C20   C26   A    
C36   O10   S    
C16   C19   S    
C16   O7    A    
C33   C35   A    
C7    C38   S    
C10   C11   A    
C10   H21   S    
C20   C21   A    
C8    H19   S    
C14   C15   A    
C20   H24   S    
Cu1   O4    S    
C27   N1    A    
C28   O9    A    
