data_mof_unit_21166.cif
_audit_creation_date              2012-12-10T16:57:48-0500
_audit_creation_method            fapswitch 2.2
_symmetry_space_group_name_H-M    P1
_symmetry_Int_Tables_number       1
_space_group_crystal_system       triclinic
_cell_length_a                    7.841027
_cell_length_b                    8.598403
_cell_length_c                    19.246873
_cell_angle_alpha                 94.621541
_cell_angle_beta                  84.321159
_cell_angle_gamma                 91.346094
_cell_volume                      1286.90572975

loop_
_atom_site_label
_atom_site_type_symbol
_atom_type_description
_atom_site_fract_x
_atom_site_fract_y
_atom_site_fract_z
_atom_type_partial_charge
C1    C     C_R   0.542043 0.793702 0.497108 0.935100
C2    C     C_R   0.622917 0.436295 0.167851 0.364470
C3    C     C_R   0.487978 0.474204 0.853510 -0.250831
C4    C     C_R   0.474055 0.490906 0.142997 -0.289676
C5    C     C_R   0.584379 0.365322 0.808789 0.266872
C6    C     C_R   0.336917 0.549142 0.188748 0.311809
C7    C     C_R   0.587221 0.371760 0.736278 0.290117
C8    C     C_R   0.348997 0.560328 0.260803 0.282444
C9    C     C_R   0.500508 0.492665 0.709584 -0.345508
C10   C     C_R   0.494531 0.500300 0.287931 -0.372700
C11   C     C_R   0.466306 0.495291 0.068574 0.442579
C12   C     C_R   0.457957 0.206100 0.500633 0.924076
C13   C     C_R   0.486217 0.475293 0.928362 0.458577
C14   C     C_3   0.434663 0.874875 0.750345 0.177864
C15   C     C_3   0.304554 0.998871 0.778912 -0.627820
C16   C     C_3   0.810728 0.228281 0.245479 0.139248
C17   C     C_3   0.996241 0.209162 0.213502 -0.748055
C18   C     C_3   0.130519 0.647814 0.877571 0.107911
C19   C     C_3   0.031782 0.744686 0.937244 -0.738563
C20   C     C_3   0.761020 0.274100 0.076737 0.063743
C21   C     C_3   0.877011 0.294774 0.009798 -0.685629
C22   C     C_3   0.993915 0.260519 0.402012 0.175368
C23   C     C_2   0.553905 0.949052 0.480208 0.120088
C24   C     C_3   0.079842 0.102472 0.386785 -0.677194
C25   C     C_3   0.923761 0.687439 0.610039 0.162191
C26   C     C_3   0.020402 0.804187 0.654240 -0.718675
C27   C     C_2   0.445065 0.050396 0.515507 0.147421
C28   C     C_R   0.500025 0.499858 0.634277 0.993203
C29   C     C_R   0.499731 0.500551 0.364909 0.969288
C30   C     C_R   0.415988 0.608144 0.755364 0.299936
C31   C     C_R   0.631057 0.436560 0.240849 0.409643
C32   C     C_R   0.398245 0.591031 0.827253 0.350900
Cl1   Cl    Cl    0.699864 0.220482 0.843515 -0.637694
Cl2   Cl    Cl    0.153328 0.619527 0.154982 -0.502187
Cl3   Cl    Cl    0.696789 0.226112 0.679785 -0.547913
Cl4   Cl    Cl    0.184112 0.663122 0.314336 -0.479612
Cl5   Cl    Cl    0.663705 0.980818 0.398066 -0.679145
Cl6   Cl    Cl    0.329808 0.019093 0.595964 -0.640489
H1    H     H_    0.511706 0.916096 0.703714 0.207862
H2    H     H_    0.021046 0.084219 0.197327 0.228705
H3    H     H_    0.115216 0.522632 0.888775 0.154955
H4    H     H_    0.073887 0.665491 0.828031 0.174817
H5    H     H_    0.043250 0.870592 0.928230 0.249894
H6    H     H_    0.894445 0.709749 0.940520 0.228234
H7    H     H_    0.082971 0.725482 0.987618 0.288479
H8    H     H_    0.629873 0.241894 0.063435 0.146578
H9    H     H_    0.808978 0.171845 0.099704 0.151857
H10   H     H_    0.010591 0.319306 0.022431 0.265844
H11   H     H_    0.875219 0.186313 0.974414 0.237585
H12   H     H_    0.526002 0.863198 0.790550 0.164797
H13   H     H_    0.833604 0.393051 0.982474 0.266122
H14   H     H_    0.059750 0.344470 0.366824 0.162993
H15   H     H_    0.857251 0.250020 0.393101 0.204425
H16   H     H_    0.052712 0.049102 0.334593 0.240840
H17   H     H_    0.220743 0.116911 0.387523 0.222612
H18   H     H_    0.031444 0.022030 0.426894 0.318833
H19   H     H_    0.927478 0.572139 0.632805 0.157775
H20   H     H_    0.789774 0.728365 0.615332 0.154963
H21   H     H_    0.157331 0.776067 0.644557 0.333587
H22   H     H_    0.997595 0.924096 0.640084 0.306378
H23   H     H_    0.233323 0.964653 0.828084 0.254764
H24   H     H_    0.977063 0.796153 0.710584 0.202149
H25   H     H_    0.370811 0.111682 0.790144 0.231432
H26   H     H_    0.211460 0.015074 0.740514 0.277068
H27   H     H_    0.720279 0.171271 0.209997 0.101279
H28   H     H_    0.791631 0.160081 0.291591 0.181129
H29   H     H_    0.086893 0.251117 0.251691 0.230165
H30   H     H_    0.023188 0.277790 0.167301 0.302160
N1    N     N_R   0.577870 0.586088 0.963057 -0.170902
N2    N     N_R   0.370013 0.387728 0.033960 -0.184165
N3    N     N_R   0.569997 0.594675 0.032377 -0.122591
N4    N     N_R   0.379410 0.378132 0.964526 -0.166709
N5    N     N_2   0.950330 0.457950 0.481240 0.167874
N6    N     N_2   0.049670 0.542050 0.518760 0.196680
O1    O     O_R   0.389250 0.738570 0.504600 -0.576566
O2    O     O_3   0.778631 0.387746 0.266575 -0.545286
O3    O     O_3   0.304159 0.696656 0.872857 -0.590662
O4    O     O_3   0.772191 0.410574 0.123080 -0.536221
O5    O     O_3   0.005906 0.310778 0.471973 -0.505007
O6    O     O_3   0.989500 0.685820 0.538748 -0.489073
O7    O     O_R   0.610750 0.261430 0.495400 -0.591873
O8    O     O_R   0.678400 0.711620 0.492580 -0.578560
O9    O     O_R   0.321600 0.288380 0.507420 -0.563992
O10   O     O_R   0.355380 0.513500 0.607880 -0.591521
O11   O     O_R   0.644620 0.486500 0.392120 -0.584511
O12   O     O_R   0.644530 0.486550 0.595850 -0.640339
O13   O     O_R   0.355470 0.513450 0.404150 -0.597634
O14   O     O_3   0.346810 0.735376 0.729499 -0.639262
Zn1   Zn    Zn3+2 0.306930 0.517990 0.508030 1.116607
Zn2   Zn    Zn3+2 0.693070 0.482010 0.491970 1.094269

loop_
_geom_bond_atom_site_label_1
_geom_bond_atom_site_label_2
_ccdc_geom_bond_type
C28   O10   A    
C25   O6    S    
N5    N6    D    
C21   H11   S    
C11   N2    A    
C24   H17   S    
N6    Zn1   S    
C22   O5    S    
C18   H4    S    
C11   N3    A    
C27   Cl6   S    
C24   H16   S    
C18   C19   S    
C8    Cl4   S    
N1    N3    A    
C14   H1    S    
C10   C31   A    
C16   C17   S    
C5    Cl1   S    
C15   H26   S    
C23   C27   D    
C26   H21   S    
C29   O11   A    
C3    C13   S    
C21   H10   S    
C32   O3    S    
N6    O6    S    
C25   H19   S    
C19   H5    S    
C22   H15   S    
N5    O5    S    
O9    Zn1   S    
C17   H29   S    
C12   C27   S    
C1    O1    A    
C4    C6    A    
O12   Zn2   S    
C18   H3    S    
C5    C7    A    
C6    C8    A    
C1    O8    A    
C23   Cl5   S    
C6    Cl2   S    
C12   O9    A    
C2    C31   A    
C17   H2    S    
C2    C4    A    
C2    O4    S    
C15   H23   S    
C4    C11   S    
C9    C30   A    
O7    Zn2   S    
C1    C23   S    
O13   Zn1   S    
C28   O12   A    
C22   C24   S    
C16   H28   S    
C25   H20   S    
C30   O14   S    
C21   H13   S    
C19   H6    S    
C22   H14   S    
C7    C9    A    
C17   H30   S    
C16   O2    S    
C7    Cl3   S    
C3    C5    A    
N5    Zn2   S    
O11   Zn2   S    
C19   H7    S    
C13   N4    A    
C24   H18   S    
O8    Zn2   S    
C20   O4    S    
C25   C26   S    
C14   O14   S    
C30   C32   A    
C10   C29   S    
C31   O2    S    
C14   H12   S    
C13   N1    A    
C18   O3    S    
C12   O7    A    
C26   H24   S    
C3    C32   A    
C29   O13   A    
C20   H9    S    
O1    Zn1   S    
C20   C21   S    
C8    C10   A    
O10   Zn1   S    
C15   H25   S    
C14   C15   S    
N2    N4    A    
C16   H27   S    
C26   H22   S    
C20   H8    S    
C9    C28   S    
