data_mof_unit_16262.cif
_audit_creation_date              2012-12-10T17:57:52-0500
_audit_creation_method            fapswitch 2.2
_symmetry_space_group_name_H-M    P1
_symmetry_Int_Tables_number       1
_space_group_crystal_system       triclinic
_cell_length_a                    10.976178
_cell_length_b                    9.484985
_cell_length_c                    15.042601
_cell_angle_alpha                 90.318338
_cell_angle_beta                  89.911209
_cell_angle_gamma                 89.758131
_cell_volume                      1566.02833436

loop_
_atom_site_label
_atom_site_type_symbol
_atom_type_description
_atom_site_fract_x
_atom_site_fract_y
_atom_site_fract_z
_atom_type_partial_charge
C1    C     C_R   0.261051 0.498797 0.499456 0.793682
C2    C     C_R   0.737376 0.497489 0.491945 0.802404
C3    C     C_R   0.381233 0.716583 0.049958 -0.254453
C4    C     C_R   0.625403 0.289192 0.950951 -0.256022
C5    C     C_R   0.064257 0.357601 0.485540 0.045453
C6    C     C_R   0.935279 0.610449 0.458240 0.057652
C7    C     C_R   0.934978 0.355668 0.481273 0.041529
C8    C     C_R   0.056460 0.618739 0.486370 0.037297
C9    C     C_R   0.870412 0.487180 0.477185 -0.143330
C10   C     C_R   0.125738 0.491836 0.492888 -0.146131
C11   C     C_R   0.542165 0.073632 0.428094 -0.043792
C12   C     C_R   0.457846 0.926339 0.571772 -0.043000
C13   C     C_R   0.457050 0.075191 0.571571 -0.057615
C14   C     C_R   0.542068 0.924748 0.428109 -0.063224
C15   C     C_R   0.500388 0.499789 0.328731 0.789471
C16   C     C_R   0.498774 0.500382 0.671389 0.810399
C17   C     C_R   0.558280 0.393867 0.813585 -0.242150
C18   C     C_R   0.444819 0.609470 0.186969 -0.234988
C19   C     C_R   0.497913 0.501088 0.768073 -0.070014
C20   C     C_R   0.502263 0.500183 0.232312 -0.065619
C21   C     C_R   0.437541 0.608943 0.814544 -0.262114
C22   C     C_R   0.562615 0.392767 0.185942 -0.272637
C23   C     C_R   0.437146 0.611420 0.907870 0.091895
C24   C     C_R   0.566539 0.392938 0.092688 0.092322
C25   C     C_R   0.500950 0.502986 0.953607 0.024921
C26   C     C_R   0.503881 0.501922 0.046890 0.024895
C27   C     C_R   0.561265 0.394660 0.906018 0.093649
C28   C     C_R   0.443741 0.610064 0.094599 0.087599
C29   C     C_R   0.375616 0.718541 0.957060 0.086373
C30   C     C_R   0.630432 0.287490 0.043937 0.083918
Cu1   Cu    Cu3+1 0.500000 0.640660 0.500000 0.930106
Cu2   Cu    Cu3+1 0.500000 0.359340 0.500000 0.919127
H1    H     H_    0.605198 0.311213 0.776742 0.142069
H2    H     H_    0.398253 0.692370 0.223836 0.145756
H3    H     H_    0.390419 0.688989 0.776819 0.139275
H4    H     H_    0.607278 0.311101 0.223849 0.147007
H5    H     H_    0.333855 0.797323 0.088128 0.140977
H6    H     H_    0.673438 0.208673 0.913076 0.138749
H7    H     H_    0.577161 0.128611 0.370804 0.117144
H8    H     H_    0.423927 0.871163 0.629293 0.137716
H9    H     H_    0.421589 0.131408 0.628742 0.129488
H10   H     H_    0.576565 0.868390 0.370811 0.135106
N1    N     N_R   0.500000 0.852070 0.500000 -0.154647
N2    N     N_R   0.500000 0.147930 0.500000 -0.147742
O1    O     O_R   0.319640 0.618740 0.499990 -0.580213
O2    O     O_R   0.680360 0.381260 0.500010 -0.591431
O3    O     O_R   0.680360 0.618740 0.500010 -0.571088
O4    O     O_R   0.319640 0.381260 0.499990 -0.587373
O5    O     O_R   0.499970 0.618800 0.370260 -0.589412
O6    O     O_R   0.500030 0.381200 0.629740 -0.591692
O7    O     O_R   0.500030 0.618800 0.629740 -0.587264
O8    O     O_R   0.499970 0.381200 0.370260 -0.598343
C31   C     C_3   0.297729 0.832493 0.914876 -0.407865
C32   C     C_3   0.171534 0.774778 0.889896 -0.334264
C33   C     C_3   0.076297 0.892391 0.884131 -0.859976
H11   H     H_    0.057318 0.935991 0.951473 0.249619
H12   H     H_    0.108380 0.979119 0.840950 0.256192
H13   H     H_    0.990275 0.849562 0.856401 0.244451
H14   H     H_    0.177157 0.718495 0.825057 0.210638
H15   H     H_    0.140111 0.698147 0.940662 0.225520
H16   H     H_    0.286168 0.921687 0.962594 0.204237
H17   H     H_    0.343691 0.878997 0.856239 0.172914
C34   C     C_3   0.707904 0.175023 0.088093 -0.402232
C35   C     C_3   0.828155 0.237729 0.121935 -0.334151
C36   C     C_3   0.904141 0.127898 0.170810 -0.884765
H18   H     H_    0.854968 0.091326 0.230975 0.250279
H19   H     H_    0.923939 0.036634 0.126436 0.257366
H20   H     H_    0.991862 0.175330 0.191748 0.240998
H21   H     H_    0.881571 0.277591 0.064523 0.221207
H22   H     H_    0.810659 0.327786 0.167780 0.214593
H23   H     H_    0.656415 0.123841 0.142634 0.187010
H24   H     H_    0.729962 0.089163 0.039929 0.195093
C37   C     C_3   0.132952 0.215337 0.478517 -0.351017
C38   C     C_3   0.175359 0.189714 0.382047 -0.306891
C39   C     C_3   0.217352 0.038355 0.366442 -0.874837
H25   H     H_    0.283565 0.006223 0.418131 0.271410
H26   H     H_    0.137596 0.966937 0.367602 0.234187
H27   H     H_    0.261624 0.029181 0.300227 0.240575
H28   H     H_    0.098833 0.211845 0.335813 0.200567
H29   H     H_    0.250740 0.261987 0.364552 0.244253
H30   H     H_    0.205339 0.202080 0.528510 0.205493
H31   H     H_    0.080712 0.123698 0.501202 0.184117
C40   C     C_3   0.883335 0.722095 0.395591 -0.412745
C41   C     C_3   0.835745 0.654910 0.308945 -0.328715
C42   C     C_3   0.805744 0.765842 0.239205 -0.860439
H32   H     H_    0.740178 0.844635 0.266063 0.244126
H33   H     H_    0.890286 0.820177 0.218194 0.252677
H34   H     H_    0.764575 0.714135 0.180088 0.250532
H35   H     H_    0.905809 0.582011 0.281010 0.213127
H36   H     H_    0.752302 0.593041 0.322301 0.212712
H37   H     H_    0.810741 0.785130 0.428402 0.216835
H38   H     H_    0.955524 0.797338 0.375730 0.188673
C43   C     C_3   0.869293 0.212276 0.481851 -0.340428
C44   C     C_3   0.850305 0.164443 0.578818 -0.326324
C45   C     C_3   0.800787 0.015304 0.585456 -0.849845
H39   H     H_    0.711402 0.008268 0.552719 0.275783
H40   H     H_    0.863676 0.939195 0.553762 0.244690
H41   H     H_    0.789773 0.986415 0.656434 0.238484
H42   H     H_    0.938042 0.168844 0.615359 0.197183
H43   H     H_    0.786509 0.237162 0.613696 0.237288
H44   H     H_    0.785125 0.209444 0.442009 0.204536
H45   H     H_    0.916814 0.131101 0.441605 0.165207
C46   C     C_3   0.103205 0.762560 0.516442 -0.386715
C47   C     C_3   0.129870 0.765902 0.616773 -0.300815
C48   C     C_3   0.157646 0.915524 0.648355 -0.911991
H46   H     H_    0.213391 0.972037 0.598738 0.249624
H47   H     H_    0.071629 0.975015 0.659220 0.258671
H48   H     H_    0.209660 0.912033 0.711342 0.244808
H49   H     H_    0.049632 0.726282 0.654177 0.212486
H50   H     H_    0.208433 0.697015 0.633154 0.217416
H51   H     H_    0.182596 0.795881 0.476734 0.223647
H52   H     H_    0.034708 0.845906 0.504734 0.183111

loop_
_geom_bond_atom_site_label_1
_geom_bond_atom_site_label_2
_ccdc_geom_bond_type
C33   H11   S    
C43   C44   S    
C37   C38   S    
C45   H39   S    
C16   O7    A    
C6    C9    A    
C13   H9    S    
C45   H41   S    
C32   H15   S    
C31   C32   S    
C2    O2    A    
C40   H38   S    
C48   H47   S    
Cu1   N1    S    
C23   C29   A    
C3    C28   A    
C19   C21   A    
C24   C26   A    
C12   N1    A    
C47   H49   S    
C11   C14   A    
C46   H51   S    
C3    C29   A    
Cu2   O8    S    
C31   H16   S    
C40   C41   S    
C36   H19   S    
C35   H22   S    
C14   H10   S    
C15   O5    A    
C38   H29   S    
C30   C34   S    
Cu2   O4    S    
C41   H36   S    
Cu1   O5    S    
C37   H30   S    
C47   C48   S    
C8    C46   S    
C32   H14   S    
C42   H33   S    
C15   C20   S    
C7    C43   S    
C48   H48   S    
C38   C39   S    
C17   C27   A    
C18   C28   A    
C41   C42   S    
C43   H44   S    
C5    C7    A    
C6    C8    A    
C25   C26   A    
C42   H32   S    
C46   H52   S    
C12   H8    S    
C39   H25   S    
C39   H26   S    
C31   H17   S    
Cu1   Cu2   S    
C44   H43   S    
C36   H20   S    
Cu2   N2    S    
C11   N2    A    
C17   H1    S    
C15   O8    A    
C12   C13   A    
C11   H7    S    
C18   H2    S    
Cu2   O6    S    
C34   H23   S    
C20   C22   A    
C38   H28   S    
C33   H12   S    
C22   C24   A    
C41   H35   S    
C40   H37   S    
C37   H31   S    
C4    C27   A    
C22   H4    S    
C42   H34   S    
C7    C9    A    
C32   C33   S    
C6    C40   S    
Cu2   O2    S    
C1    C10   S    
Cu1   O7    S    
C43   H45   S    
C45   H40   S    
C1    O4    A    
C21   H3    S    
C2    O3    A    
C25   C27   A    
C35   H21   S    
C48   H46   S    
C26   C28   A    
C35   C36   S    
C21   C23   A    
C5    C10   A    
C47   H50   S    
C1    O1    A    
C29   C31   S    
C44   H42   S    
C16   C19   S    
C17   C19   A    
C18   C20   A    
C23   C25   A    
C5    C37   S    
C44   C45   S    
C16   O6    A    
C39   H27   S    
C24   C30   A    
C34   C35   S    
C34   H24   S    
C3    H5    S    
C8    C10   A    
C36   H18   S    
Cu1   O1    S    
C33   H13   S    
C46   C47   S    
Cu1   O3    S    
C4    H6    S    
C2    C9    S    
C13   N2    A    
C4    C30   A    
C14   N1    A    
