data_mof_unit_14110.cif
_audit_creation_date              2012-12-10T19:53:28-0500
_audit_creation_method            fapswitch 2.2
_symmetry_space_group_name_H-M    P1
_symmetry_Int_Tables_number       1
_space_group_crystal_system       triclinic
_cell_length_a                    18.356768
_cell_length_b                    18.213469
_cell_length_c                    42.831829
_cell_angle_alpha                 90.003043
_cell_angle_beta                  90.003698
_cell_angle_gamma                 90.413526
_cell_volume                      14320.0388784

loop_
_atom_site_label
_atom_site_type_symbol
_atom_type_description
_atom_site_fract_x
_atom_site_fract_y
_atom_site_fract_z
_atom_type_partial_charge
C1    C     C_R   0.000001 0.499986 0.915800 0.800261
C2    C     C_R   0.500002 0.000001 0.915718 0.816133
C3    C     C_R   0.499998 0.000023 0.415802 0.799645
C4    C     C_R   0.000019 0.500000 0.415719 0.807531
C5    C     C_R   0.000067 0.499994 0.183915 -0.335373
C6    C     C_R   0.499954 0.000127 0.184118 -0.343725
C7    C     C_R   0.500283 0.000091 0.683925 -0.334769
C8    C     C_R   0.000397 0.499041 0.684130 -0.340841
C9    C     C_R   0.000021 0.500004 0.118476 -0.384849
C10   C     C_R   0.500000 0.000037 0.118600 -0.394717
C11   C     C_R   0.500097 0.999966 0.618484 -0.384809
C12   C     C_R   0.000026 0.499647 0.618606 -0.389771
C13   C     C_R   0.500279 0.000206 0.781441 0.281401
C14   C     C_R   0.000152 0.499352 0.781613 0.286237
C15   C     C_R   0.000106 0.500008 0.281435 0.280851
C16   C     C_R   0.499958 0.000174 0.281609 0.285931
C17   C     C_R   0.000081 0.499997 0.218227 0.536602
C18   C     C_R   0.499949 0.000146 0.218425 0.532052
C19   C     C_R   0.500334 0.000218 0.718236 0.536255
C20   C     C_R   0.000324 0.499127 0.718432 0.532162
C21   C     C_R   0.467770 0.057867 0.832337 -0.132664
C22   C     C_R   0.943109 0.532837 0.832383 -0.128830
C23   C     C_R   0.532556 0.942356 0.832328 -0.132539
C24   C     C_R   0.057030 0.466330 0.832468 -0.128958
C25   C     C_R   0.967541 0.557670 0.332332 -0.134311
C26   C     C_R   0.443167 0.033668 0.332441 -0.129134
C27   C     C_R   0.032690 0.442369 0.332337 -0.131934
C28   C     C_R   0.556820 0.966698 0.332423 -0.128917
C29   C     C_R   0.468527 0.058277 0.864921 -0.174551
C30   C     C_R   0.942526 0.532043 0.864966 -0.176623
C31   C     C_R   0.531628 0.941821 0.864912 -0.174635
C32   C     C_R   0.057546 0.467465 0.865047 -0.176606
C33   C     C_R   0.968350 0.558135 0.364916 -0.178793
C34   C     C_R   0.442634 0.032687 0.365023 -0.177818
C35   C     C_R   0.031847 0.441900 0.364922 -0.178712
C36   C     C_R   0.557375 0.967610 0.365003 -0.176527
C37   C     C_R   0.500038 0.000021 0.881421 0.004461
C38   C     C_R   0.000022 0.499840 0.881511 0.010236
C39   C     C_R   0.000068 0.500007 0.381423 0.002072
C40   C     C_R   0.499997 0.000102 0.381515 0.010218
C41   C     C_R   0.500210 0.000147 0.815793 0.085194
C42   C     C_R   0.000088 0.499497 0.815919 0.083905
C43   C     C_R   0.000114 0.500015 0.315792 0.085362
C44   C     C_R   0.499980 0.000185 0.315921 0.083953
C45   C     C_R   0.000002 0.500002 0.084170 1.064347
C46   C     C_R   0.500002 0.000005 0.084166 1.058870
C47   C     C_R   0.499992 0.999995 0.584173 1.064194
C48   C     C_R   0.000001 0.499935 0.584168 1.059982
C49   C     C_R   0.859226 0.639801 0.000726 0.893750
C50   C     C_R   0.358937 0.861011 0.999223 0.936859
C51   C     C_R   0.140772 0.360199 0.000726 0.893711
C52   C     C_R   0.641064 0.138987 0.999224 0.936915
C53   C     C_R   0.140203 0.639955 0.000092 0.944387
C54   C     C_R   0.639216 0.859070 0.000252 0.960391
C55   C     C_R   0.859795 0.360047 0.000092 0.944365
C56   C     C_R   0.360786 0.140930 0.000253 0.960356
C57   C     C_R   0.359181 0.139738 0.500729 0.894447
C58   C     C_R   0.858976 0.360970 0.499245 0.938249
C59   C     C_R   0.640787 0.860215 0.500731 0.893564
C60   C     C_R   0.141081 0.638955 0.499214 0.914036
C61   C     C_R   0.640188 0.139975 0.500086 0.944422
C62   C     C_R   0.139310 0.359171 0.500206 0.964156
C63   C     C_R   0.359807 0.860027 0.500080 0.942393
C64   C     C_R   0.860781 0.640928 0.500251 0.962637
C65   C     C_R   0.264626 0.682334 0.003643 -0.030948
C66   C     C_R   0.295035 0.243178 0.976497 -0.045180
C67   C     C_R   0.735372 0.317667 0.003645 -0.030983
C68   C     C_R   0.704957 0.756813 0.976497 -0.045211
C69   C     C_R   0.758038 0.704669 0.976828 -0.038875
C70   C     C_R   0.682903 0.264026 0.003578 -0.029239
C71   C     C_R   0.241949 0.295317 0.976827 -0.038869
C72   C     C_R   0.317100 0.735971 0.003571 -0.029244
C73   C     C_R   0.764620 0.182292 0.503569 -0.030632
C74   C     C_R   0.795009 0.743151 0.476498 -0.045456
C75   C     C_R   0.235367 0.817634 0.503637 -0.036133
C76   C     C_R   0.206719 0.258682 0.476134 -0.043842
C77   C     C_R   0.259290 0.205998 0.476472 -0.036644
C78   C     C_R   0.182865 0.764040 0.503514 -0.026585
C79   C     C_R   0.741948 0.795306 0.476830 -0.039067
C80   C     C_R   0.817133 0.235898 0.503508 -0.028836
C81   C     C_R   0.192567 0.698997 0.997250 -0.253600
C82   C     C_R   0.311498 0.202548 0.002895 -0.215018
C83   C     C_R   0.807428 0.301007 0.997247 -0.253587
C84   C     C_R   0.688504 0.797452 0.002894 -0.215031
C85   C     C_R   0.800189 0.692808 0.003370 -0.228877
C86   C     C_R   0.699785 0.191820 0.996567 -0.259261
C87   C     C_R   0.199809 0.307190 0.003370 -0.228892
C88   C     C_R   0.300218 0.808176 0.996562 -0.259243
C89   C     C_R   0.692545 0.199035 0.497258 -0.253776
C90   C     C_R   0.811514 0.702565 0.502900 -0.215949
C91   C     C_R   0.307415 0.800993 0.497231 -0.249085
C92   C     C_R   0.188780 0.297719 0.502768 -0.213954
C93   C     C_R   0.300098 0.192696 0.503289 -0.229966
C94   C     C_R   0.199786 0.691793 0.496582 -0.269317
C95   C     C_R   0.699865 0.807252 0.503383 -0.228816
C96   C     C_R   0.800256 0.308153 0.496575 -0.260163
C97   C     C_R   0.174793 0.768877 0.984473 0.340754
C98   C     C_R   0.283607 0.226375 0.031938 0.228754
C99   C     C_R   0.825198 0.231125 0.984469 0.340776
C100  C     C_R   0.716402 0.773632 0.031937 0.228753
C101  C     C_R   0.778923 0.727402 0.032162 0.239236
C102  C     C_R   0.770028 0.174676 0.984336 0.337606
C103  C     C_R   0.221084 0.272604 0.032162 0.239222
C104  C     C_R   0.229967 0.825322 0.984336 0.337621
C105  C     C_R   0.674721 0.269048 0.484621 0.340822
C106  C     C_R   0.783732 0.726493 0.531950 0.228147
C107  C     C_R   0.325078 0.731177 0.484362 0.348305
C108  C     C_R   0.215226 0.272413 0.531837 0.227530
C109  C     C_R   0.277564 0.225897 0.532188 0.240261
C110  C     C_R   0.270040 0.674610 0.484380 0.263687
C111  C     C_R   0.721251 0.772798 0.532188 0.240156
C112  C     C_R   0.729967 0.325409 0.484429 0.337079
C113  C     C_3   0.355749 0.704667 0.031303 -0.027068
C114  C     C_3   0.223192 0.281836 0.943020 -0.001845
C115  C     C_3   0.644273 0.295334 0.031313 -0.027060
C116  C     C_3   0.776772 0.718123 0.943019 -0.001810
C117  C     C_3   0.716134 0.776038 0.942951 0.000707
C118  C     C_3   0.702116 0.356619 0.030975 0.015237
C119  C     C_3   0.283840 0.223932 0.942953 0.000705
C120  C     C_3   0.297900 0.643386 0.030970 0.015248
C121  C     C_3   0.855826 0.204435 0.531200 -0.027354
C122  C     C_3   0.723187 0.781843 0.443023 -0.002170
C123  C     C_3   0.143972 0.795546 0.531141 -0.020737
C124  C     C_3   0.279727 0.221178 0.442961 -0.003490
C125  C     C_3   0.220368 0.280409 0.443042 -0.009908
C126  C     C_3   0.201984 0.856689 0.530905 0.017993
C127  C     C_3   0.783795 0.723894 0.442957 0.000513
C128  C     C_3   0.797914 0.143222 0.530857 0.015133
C129  C     C_R   0.056715 0.536745 0.134799 0.315014
C130  C     C_R   0.543421 0.052121 0.135024 0.320543
C131  C     C_R   0.943351 0.463256 0.134806 0.315017
C132  C     C_R   0.456557 0.948000 0.135034 0.320496
C133  C     C_R   0.556529 0.037197 0.634778 0.314854
C134  C     C_R   0.043806 0.551289 0.635084 0.323180
C135  C     C_R   0.443836 0.962644 0.634852 0.313584
C136  C     C_R   0.956432 0.447648 0.634995 0.318976
C137  C     C_R   0.051132 0.544294 0.167608 0.332153
C138  C     C_R   0.550086 0.045473 0.167836 0.327919
C139  C     C_R   0.948979 0.455698 0.167614 0.331854
C140  C     C_R   0.449846 0.954737 0.167840 0.328130
C141  C     C_R   0.550935 0.044787 0.667582 0.331890
C142  C     C_R   0.050763 0.544120 0.667863 0.315907
C143  C     C_R   0.449600 0.955242 0.667665 0.330529
C144  C     C_R   0.949921 0.454118 0.667823 0.327978
H1    H     H_    0.353552 0.741510 0.052046 0.170656
H2    H     H_    0.236252 0.329836 0.927856 0.149583
H3    H     H_    0.646489 0.258495 0.052055 0.170658
H4    H     H_    0.763691 0.670116 0.927859 0.149590
H5    H     H_    0.667976 0.761021 0.928448 0.146221
H6    H     H_    0.737021 0.357082 0.052263 0.168242
H7    H     H_    0.331987 0.238951 0.928446 0.146205
H8    H     H_    0.263011 0.642931 0.052261 0.168224
H9    H     H_    0.853732 0.241197 0.551971 0.170488
H10   H     H_    0.736287 0.829841 0.427863 0.149354
H11   H     H_    0.145801 0.758776 0.551907 0.158861
H12   H     H_    0.266154 0.174344 0.427223 0.149044
H13   H     H_    0.172884 0.267814 0.427749 0.146695
H14   H     H_    0.236707 0.857034 0.552248 0.168656
H15   H     H_    0.831949 0.738868 0.428446 0.145459
H16   H     H_    0.763073 0.142750 0.552163 0.167966
H17   H     H_    0.442785 0.103188 0.820073 0.163247
H18   H     H_    0.898478 0.558425 0.820043 0.163030
H19   H     H_    0.557601 0.897081 0.820056 0.163282
H20   H     H_    0.101694 0.440625 0.820195 0.163024
H21   H     H_    0.942389 0.602893 0.320067 0.163107
H22   H     H_    0.398620 0.059520 0.320146 0.162991
H23   H     H_    0.057866 0.397154 0.320075 0.163542
H24   H     H_    0.601368 0.940884 0.320115 0.163034
H25   H     H_    0.443620 0.103588 0.877230 0.151623
H26   H     H_    0.897696 0.557447 0.877235 0.150161
H27   H     H_    0.556482 0.896472 0.877215 0.151611
H28   H     H_    0.102358 0.442190 0.877378 0.150189
H29   H     H_    0.943313 0.603379 0.377221 0.151782
H30   H     H_    0.397954 0.058258 0.377334 0.150088
H31   H     H_    0.056921 0.396681 0.377233 0.151914
H32   H     H_    0.602093 0.942069 0.377296 0.149979
N1    N     N_R   0.054777 0.467411 0.234240 -0.078101
N2    N     N_R   0.527319 0.942331 0.234439 -0.080668
N3    N     N_R   0.945398 0.532588 0.234244 -0.078212
N4    N     N_R   0.472580 0.057974 0.234433 -0.080523
N5    N     N_R   0.555185 0.967923 0.734259 -0.078073
N6    N     N_R   0.027241 0.441161 0.734492 -0.079833
N7    N     N_R   0.445463 0.032520 0.734242 -0.078264
N8    N     N_R   0.973327 0.557205 0.734394 -0.082326
N9    N     N_R   0.554940 0.967594 0.765336 -0.138910
N10   N     N_R   0.027559 0.441492 0.765568 -0.134220
N11   N     N_R   0.445657 0.032841 0.765318 -0.138875
N12   N     N_R   0.972839 0.557097 0.765469 -0.134157
N13   N     N_R   0.054571 0.467098 0.265317 -0.139520
N14   N     N_R   0.527717 0.942563 0.265515 -0.134522
N15   N     N_R   0.945628 0.532910 0.265320 -0.138841
N16   N     N_R   0.472191 0.057770 0.265509 -0.134229
O1    O     O_3   0.000000 0.500000 0.999980 -0.542554
O2    O     O_3   0.500000 0.000000 0.999980 -0.543112
O3    O     O_3   0.500000 0.000000 0.499980 -0.542170
O4    O     O_3   1.000000 0.500000 0.499980 -0.539152
O5    O     O_R   0.060770 0.500000 0.930670 -0.639580
O6    O     O_R   0.500000 0.060770 0.930670 -0.638204
O7    O     O_R   0.939230 0.500000 0.930670 -0.639592
O8    O     O_R   0.500000 0.939230 0.930670 -0.638170
O9    O     O_R   0.560770 0.000000 0.430670 -0.639680
O10   O     O_R   0.000000 0.560770 0.430670 -0.645173
O11   O     O_R   0.439230 0.000000 0.430670 -0.639593
O12   O     O_R   0.000000 0.439230 0.430670 -0.636383
O13   O     O_R   0.000000 0.560690 0.069300 -0.581035
O14   O     O_R   0.439310 0.000000 0.069300 -0.579488
O15   O     O_R   0.000000 0.439310 0.069300 -0.581035
O16   O     O_R   0.560690 0.000000 0.069300 -0.579452
O17   O     O_R   0.500000 0.060690 0.569300 -0.580858
O18   O     O_R   0.939310 0.500000 0.569300 -0.579824
O19   O     O_R   0.500000 0.939310 0.569300 -0.580743
O20   O     O_R   0.060690 0.500000 0.569300 -0.577375
O21   O     O_R   0.853850 0.585430 0.981810 -0.673114
O22   O     O_R   0.414570 0.853850 0.981810 -0.653393
O23   O     O_R   0.146150 0.414570 0.981810 -0.673093
O24   O     O_R   0.585430 0.146150 0.981810 -0.653392
O25   O     O_R   0.146150 0.585430 0.981810 -0.643871
O26   O     O_R   0.585430 0.853850 0.981810 -0.660491
O27   O     O_R   0.853850 0.414570 0.981810 -0.643885
O28   O     O_R   0.414570 0.146150 0.981810 -0.660482
O29   O     O_R   0.353850 0.085430 0.481810 -0.672730
O30   O     O_R   0.914570 0.353850 0.481810 -0.652178
O31   O     O_R   0.646150 0.914570 0.481810 -0.673008
O32   O     O_R   0.085430 0.646150 0.481810 -0.660235
O33   O     O_R   0.646150 0.085430 0.481810 -0.644385
O34   O     O_R   0.085430 0.353850 0.481810 -0.661936
O35   O     O_R   0.353850 0.914570 0.481810 -0.644216
O36   O     O_R   0.914570 0.646150 0.481810 -0.658927
O37   O     O_R   0.085450 0.353830 0.018160 -0.544850
O38   O     O_R   0.646170 0.085450 0.018160 -0.573981
O39   O     O_R   0.914550 0.646170 0.018160 -0.544854
O40   O     O_R   0.353830 0.914550 0.018160 -0.574000
O41   O     O_R   0.914550 0.353830 0.018160 -0.570815
O42   O     O_R   0.353830 0.085450 0.018160 -0.569299
O43   O     O_R   0.085450 0.646170 0.018160 -0.570801
O44   O     O_R   0.646170 0.914550 0.018160 -0.569303
O45   O     O_R   0.585450 0.853830 0.518160 -0.545197
O46   O     O_R   0.146170 0.585450 0.518160 -0.582832
O47   O     O_R   0.414550 0.146170 0.518160 -0.544711
O48   O     O_R   0.853830 0.414550 0.518160 -0.573606
O49   O     O_R   0.414550 0.853830 0.518160 -0.571810
O50   O     O_R   0.853830 0.585450 0.518160 -0.568856
O51   O     O_R   0.585450 0.146170 0.518160 -0.570457
O52   O     O_R   0.146170 0.414550 0.518160 -0.567516
Zn1   Zn    Zn3+2 1.000000 0.586730 0.025950 1.170784
Zn2   Zn    Zn3+2 0.413270 0.000000 0.025950 1.175163
Zn3   Zn    Zn3+2 1.000000 0.413270 0.025950 1.170775
Zn4   Zn    Zn3+2 0.586730 0.000000 0.025950 1.175196
Zn5   Zn    Zn3+2 0.500000 0.086730 0.525950 1.170924
Zn6   Zn    Zn3+2 0.913270 0.500000 0.525950 1.177084
Zn7   Zn    Zn3+2 0.500000 0.913270 0.525950 1.170311
Zn8   Zn    Zn3+2 0.086730 0.500000 0.525950 1.162106
Zn9   Zn    Zn3+2 0.913260 0.500000 0.974020 1.000220
Zn10  Zn    Zn3+2 0.500000 0.913260 0.974020 1.025685
Zn11  Zn    Zn3+2 0.086740 0.500000 0.974020 1.000239
Zn12  Zn    Zn3+2 0.500000 0.086740 0.974020 1.025674
Zn13  Zn    Zn3+2 0.413260 0.000000 0.474020 1.000012
Zn14  Zn    Zn3+2 0.000000 0.413260 0.474020 1.024594
Zn15  Zn    Zn3+2 0.586740 0.000000 0.474020 0.999868
Zn16  Zn    Zn3+2 0.000000 0.586740 0.474020 1.010445
S1    S     S_3+6 0.083976 0.784894 0.970447 0.081695
O53   O     O_2   0.044649 0.714367 0.963079 -0.373703
O54   O     O_2   0.042506 0.824654 0.995457 -0.216588
O55   O     O_3   0.083697 0.835536 0.937676 -0.481082
H33   H     H_    0.032349 0.850510 0.934835 0.376724
S2    S     S_3+6 0.336790 0.211128 0.066092 0.094277
O56   O     O_2   0.310748 0.142705 0.082350 -0.188670
O57   O     O_2   0.415395 0.201460 0.057388 -0.333010
O58   O     O_3   0.331532 0.283156 0.090560 -0.417582
H34   H     H_    0.347993 0.325920 0.078053 0.337880
S3    S     S_3+6 0.916006 0.215111 0.970437 0.081665
O59   O     O_2   0.955322 0.285640 0.963066 -0.373681
O60   O     O_2   0.957497 0.175360 0.995444 -0.216633
O61   O     O_3   0.916264 0.164461 0.937666 -0.481117
H35   H     H_    0.967602 0.149446 0.934833 0.376729
S4    S     S_3+6 0.663228 0.788891 0.066092 0.094288
O62   O     O_2   0.689282 0.857314 0.082350 -0.188652
O63   O     O_2   0.584621 0.798565 0.057388 -0.333030
O64   O     O_3   0.668487 0.716866 0.090558 -0.417602
H36   H     H_    0.652019 0.674102 0.078051 0.337876
S5    S     S_3+6 0.833858 0.719495 0.066655 0.122269
O65   O     O_2   0.837756 0.640025 0.075855 -0.233359
O66   O     O_2   0.909633 0.746832 0.059639 -0.231263
O67   O     O_3   0.804097 0.767645 0.097546 -0.397895
H37   H     H_    0.827093 0.816798 0.095549 0.391667
S6    S     S_3+6 0.787367 0.086035 0.967711 0.077186
O68   O     O_2   0.859471 0.057839 0.979001 -0.205280
O69   O     O_2   0.730161 0.029598 0.975404 -0.338285
O70   O     O_3   0.789320 0.095110 0.928643 -0.509098
H38   H     H_    0.816943 0.052185 0.921016 0.380405
S7    S     S_3+6 0.166158 0.280514 0.066655 0.122286
O71   O     O_2   0.162261 0.359985 0.075857 -0.233333
O72   O     O_2   0.090381 0.253176 0.059637 -0.231256
O73   O     O_3   0.195926 0.232369 0.097545 -0.397865
H39   H     H_    0.172935 0.183213 0.095545 0.391671
S8    S     S_3+6 0.212624 0.913958 0.967710 0.077203
O74   O     O_2   0.140532 0.942166 0.979007 -0.205277
O75   O     O_2   0.269842 0.970392 0.975397 -0.338294
O76   O     O_3   0.210639 0.904869 0.928642 -0.509039
H40   H     H_    0.183002 0.947786 0.921018 0.380426
S9    S     S_3+6 0.583727 0.285403 0.470900 0.081385
O77   O     O_2   0.544016 0.215021 0.463679 -0.374603
O78   O     O_2   0.542875 0.325325 0.496052 -0.217015
O79   O     O_3   0.583018 0.336027 0.438126 -0.480456
H41   H     H_    0.531917 0.352220 0.435740 0.379882
S10   S     S_3+6 0.836994 0.711234 0.566082 0.094786
O80   O     O_2   0.810728 0.643025 0.582435 -0.189100
O81   O     O_2   0.915529 0.701181 0.557342 -0.332128
O82   O     O_3   0.832130 0.783449 0.590466 -0.416725
H42   H     H_    0.848627 0.826077 0.577884 0.338011
S11   S     S_3+6 0.415393 0.715569 0.469747 0.078469
O83   O     O_2   0.454175 0.786301 0.462214 -0.378050
O84   O     O_2   0.457942 0.675766 0.494408 -0.220161
O85   O     O_3   0.414369 0.665129 0.436906 -0.454967
H43   H     H_    0.465653 0.650459 0.433601 0.380006
S12   S     S_3+6 0.160819 0.286777 0.565707 0.094100
O86   O     O_2   0.187201 0.353975 0.582770 -0.186590
O87   O     O_2   0.082733 0.298075 0.556531 -0.333916
O88   O     O_3   0.163986 0.213453 0.589542 -0.418507
H44   H     H_    0.148074 0.171466 0.576444 0.336355
S13   S     S_3+6 0.330842 0.215690 0.567041 0.120143
O89   O     O_2   0.334552 0.135609 0.575231 -0.237458
O90   O     O_2   0.406856 0.243648 0.561002 -0.232441
O91   O     O_3   0.299580 0.261488 0.598305 -0.397686
H45   H     H_    0.323261 0.310491 0.597380 0.392266
S14   S     S_3+6 0.287430 0.585714 0.467938 0.082420
O92   O     O_2   0.360330 0.558283 0.478548 -0.156121
O93   O     O_2   0.231479 0.528661 0.476463 -0.343459
O94   O     O_3   0.287773 0.593249 0.428820 -0.492816
H46   H     H_    0.238016 0.609571 0.423355 0.340436
S15   S     S_3+6 0.666522 0.781066 0.566725 0.121681
O95   O     O_2   0.662624 0.860643 0.575762 -0.234255
O96   O     O_2   0.590722 0.753610 0.559834 -0.232473
O97   O     O_3   0.696466 0.733312 0.597694 -0.398019
H47   H     H_    0.673275 0.684208 0.595889 0.391727
S16   S     S_3+6 0.712672 0.414053 0.467793 0.077869
O98   O     O_2   0.640889 0.442581 0.479302 -0.204323
O99   O     O_2   0.770237 0.470310 0.475238 -0.338391
O100  O     O_3   0.709960 0.404808 0.428739 -0.507972
H48   H     H_    0.682512 0.447901 0.421168 0.381249
N17   N     N_2   0.428919 0.680897 0.023536 -0.279806
H49   H     H_    0.458687 0.720000 0.011533 0.255824
C145  C     C_3   0.469323 0.650691 0.049481 -0.650763
H50   H     H_    0.523034 0.631019 0.041136 0.225843
H51   H     H_    0.439439 0.603539 0.059951 0.255065
H52   H     H_    0.478380 0.693364 0.067638 0.281260
N18   N     N_2   0.150441 0.251143 0.938405 -0.290648
H53   H     H_    0.126237 0.226400 0.957480 0.266274
C146  C     C_3   0.101692 0.294204 0.919412 -0.684415
H54   H     H_    0.051507 0.261896 0.914496 0.268400
H55   H     H_    0.127796 0.308012 0.896742 0.220261
H56   H     H_    0.086650 0.345391 0.931814 0.249087
N19   N     N_2   0.571094 0.319096 0.023553 -0.279813
H57   H     H_    0.541320 0.279988 0.011552 0.255837
C147  C     C_3   0.530709 0.349304 0.049502 -0.650694
H58   H     H_    0.476990 0.368971 0.041161 0.225854
H59   H     H_    0.560598 0.396460 0.059969 0.255048
H60   H     H_    0.521669 0.306634 0.067659 0.281266
N20   N     N_2   0.849526 0.748797 0.938394 -0.290673
H61   H     H_    0.873735 0.773579 0.957461 0.266244
C148  C     C_3   0.898270 0.705686 0.919420 -0.684297
H62   H     H_    0.948446 0.737989 0.914485 0.268330
H63   H     H_    0.872156 0.691799 0.896758 0.220276
H64   H     H_    0.913331 0.654541 0.931846 0.249157
N21   N     N_2   0.740286 0.851669 0.938779 -0.271448
H65   H     H_    0.781671 0.869612 0.953264 0.271278
C149  C     C_3   0.747209 0.875361 0.906711 -0.677894
H66   H     H_    0.758645 0.935216 0.906041 0.247329
H67   H     H_    0.695649 0.864869 0.893823 0.223648
H68   H     H_    0.792573 0.846015 0.895088 0.253046
N22   N     N_2   0.673703 0.428232 0.022282 -0.279892
H69   H     H_    0.654719 0.432751 0.999675 0.264873
C150  C     C_3   0.715732 0.490898 0.032821 -0.693321
H70   H     H_    0.688794 0.542340 0.025267 0.219868
H71   H     H_    0.771479 0.489540 0.022836 0.241648
H72   H     H_    0.718807 0.491096 0.058707 0.279590
N23   N     N_2   0.259699 0.148295 0.938785 -0.271457
H73   H     H_    0.218322 0.130355 0.953272 0.271302
C151  C     C_3   0.252768 0.124584 0.906719 -0.677789
H74   H     H_    0.241337 0.064728 0.906053 0.247361
H75   H     H_    0.304323 0.135073 0.893830 0.223655
H76   H     H_    0.207398 0.153919 0.895094 0.253032
N24   N     N_2   0.326301 0.571768 0.022274 -0.279896
H77   H     H_    0.345265 0.567241 0.999665 0.264879
C152  C     C_3   0.284278 0.509109 0.032818 -0.693284
H78   H     H_    0.311206 0.457662 0.025263 0.219867
H79   H     H_    0.228523 0.510465 0.022838 0.241670
H80   H     H_    0.281224 0.508920 0.058705 0.279562
N25   N     N_2   0.928945 0.180605 0.523382 -0.279799
H81   H     H_    0.958775 0.219789 0.511455 0.256539
C153  C     C_3   0.969299 0.150036 0.549265 -0.648079
H82   H     H_    0.023013 0.130455 0.540884 0.224589
H83   H     H_    0.939394 0.102753 0.559614 0.255138
H84   H     H_    0.978333 0.192450 0.567532 0.281920
N26   N     N_2   0.650420 0.751201 0.438401 -0.290180
H85   H     H_    0.626142 0.726566 0.457484 0.266774
C154  C     C_3   0.601769 0.794216 0.419344 -0.683461
H86   H     H_    0.551620 0.761887 0.414389 0.268001
H87   H     H_    0.627988 0.807979 0.396693 0.220086
H88   H     H_    0.586659 0.845427 0.431712 0.249058
N27   N     N_2   0.070964 0.819474 0.523175 -0.282759
H89   H     H_    0.041261 0.780405 0.511119 0.254738
C155  C     C_3   0.030273 0.849897 0.548988 -0.633027
H90   H     H_    0.976748 0.869707 0.540481 0.220433
H91   H     H_    0.060142 0.896995 0.559513 0.256587
H92   H     H_    0.020812 0.807313 0.567142 0.287450
N28   N     N_2   0.353290 0.250375 0.439102 -0.289287
H93   H     H_    0.377671 0.272949 0.458614 0.268573
C156  C     C_3   0.401301 0.207611 0.419640 -0.679557
H94   H     H_    0.452044 0.239292 0.415087 0.271550
H95   H     H_    0.375073 0.195693 0.396800 0.219534
H96   H     H_    0.415314 0.155374 0.431470 0.246732
N29   N     N_2   0.246511 0.355798 0.440437 -0.272200
H97   H     H_    0.287525 0.371233 0.455614 0.278751
C157  C     C_3   0.255676 0.382640 0.408927 -0.644858
H98   H     H_    0.270070 0.441923 0.409539 0.280280
H99   H     H_    0.204114 0.376083 0.395595 0.214170
H100  H     H_    0.299965 0.352402 0.396961 0.250289
N30   N     N_2   0.173857 0.928391 0.522172 -0.281095
H101  H     H_    0.155138 0.932997 0.499527 0.263423
C158  C     C_3   0.215929 0.990932 0.532817 -0.688110
H102  H     H_    0.189140 0.042460 0.525272 0.218782
H103  H     H_    0.271741 0.989515 0.522901 0.240988
H104  H     H_    0.218842 0.991012 0.558707 0.281245
N31   N     N_2   0.759597 0.648271 0.438802 -0.271266
H105  H     H_    0.718205 0.630379 0.453291 0.271655
C159  C     C_3   0.752649 0.624531 0.406740 -0.674870
H106  H     H_    0.741177 0.564681 0.406086 0.247742
H107  H     H_    0.804210 0.634971 0.393849 0.223181
H108  H     H_    0.707299 0.653886 0.395110 0.253067
N32   N     N_2   0.826193 0.071590 0.522109 -0.280112
H109  H     H_    0.845018 0.067071 0.499478 0.264715
C160  C     C_3   0.784193 0.008951 0.532695 -0.692860
H110  H     H_    0.811060 0.957490 0.525117 0.219638
H111  H     H_    0.728391 0.010333 0.522766 0.241725
H112  H     H_    0.781256 0.008769 0.558584 0.279787
S17   S     S_3+6 0.135464 0.569075 0.114037 0.090962
O101  O     O_2   0.149907 0.521795 0.085995 -0.363486
O102  O     O_2   0.122294 0.646402 0.103270 -0.236731
O103  O     O_3   0.210204 0.567190 0.136710 -0.445184
H113  H     H_    0.249129 0.590238 0.123944 0.372832
S18   S     S_3+6 0.585084 0.127352 0.114527 0.101880
O104  O     O_2   0.659156 0.104489 0.103350 -0.220469
O105  O     O_2   0.540061 0.148752 0.086747 -0.325918
O106  O     O_3   0.593363 0.201850 0.137473 -0.453997
H114  H     H_    0.620371 0.238273 0.124679 0.375186
S19   S     S_3+6 0.864576 0.430928 0.114057 0.090953
O107  O     O_2   0.850095 0.478215 0.086021 -0.363445
O108  O     O_2   0.877735 0.353604 0.103280 -0.236725
O109  O     O_3   0.789865 0.432805 0.136743 -0.445201
H115  H     H_    0.750926 0.409755 0.123983 0.372872
S20   S     S_3+6 0.414926 0.872712 0.114557 0.101893
O110  O     O_2   0.340868 0.895541 0.103346 -0.220507
O111  O     O_2   0.459992 0.851243 0.086801 -0.325808
O112  O     O_3   0.406619 0.798276 0.137533 -0.453977
H116  H     H_    0.379619 0.761822 0.124749 0.375238
S21   S     S_3+6 0.635080 0.069968 0.613999 0.091211
O113  O     O_2   0.649869 0.022642 0.586003 -0.363289
O114  O     O_2   0.621399 0.147145 0.603159 -0.236284
O115  O     O_3   0.709814 0.068713 0.636686 -0.445011
H117  H     H_    0.748593 0.091971 0.623907 0.373040
S22   S     S_3+6 0.085560 0.626631 0.614683 0.103924
O116  O     O_2   0.039705 0.649086 0.587304 -0.329082
O117  O     O_2   0.094619 0.692353 0.635561 -0.201192
O118  O     O_3   0.167627 0.600355 0.601477 -0.458687
H118  H     H_    0.184866 0.641522 0.588220 0.370168
S23   S     S_3+6 0.365395 0.929275 0.614155 0.093934
O119  O     O_2   0.350422 0.976004 0.586001 -0.362142
O120  O     O_2   0.379319 0.851949 0.603567 -0.236366
O121  O     O_3   0.290665 0.930705 0.636838 -0.440730
H119  H     H_    0.251888 0.907341 0.624090 0.379606
S24   S     S_3+6 0.914408 0.372709 0.614441 0.102550
O122  O     O_2   0.840442 0.395970 0.603284 -0.220603
O123  O     O_2   0.959332 0.351223 0.586647 -0.324354
O124  O     O_3   0.905791 0.298152 0.637327 -0.453425
H120  H     H_    0.878637 0.261898 0.624500 0.375194
S25   S     S_3+6 0.105211 0.610089 0.188578 0.119112
O125  O     O_2   0.127287 0.673344 0.168060 -0.182340
O126  O     O_2   0.063299 0.640427 0.215770 -0.292481
O127  O     O_3   0.180128 0.568166 0.202146 -0.478628
H121  H     H_    0.207393 0.606840 0.213574 0.393442
S26   S     S_3+6 0.621478 0.091292 0.188918 0.122440
O128  O     O_2   0.592916 0.162830 0.201208 -0.225029
O129  O     O_2   0.646173 0.045278 0.216004 -0.284232
O130  O     O_3   0.694634 0.107433 0.166256 -0.433379
H122  H     H_    0.726227 0.140679 0.178683 0.402017
S27   S     S_3+6 0.894929 0.389898 0.188588 0.119549
O131  O     O_2   0.872830 0.326646 0.168069 -0.182268
O132  O     O_2   0.936876 0.359556 0.215770 -0.291571
O133  O     O_3   0.820027 0.431815 0.202173 -0.478503
H123  H     H_    0.792778 0.393138 0.213603 0.393706
S28   S     S_3+6 0.378425 0.908975 0.188920 0.122172
O134  O     O_2   0.406967 0.837468 0.201249 -0.225375
O135  O     O_2   0.353699 0.955062 0.215979 -0.284535
O136  O     O_3   0.305299 0.892780 0.166243 -0.433388
H124  H     H_    0.273685 0.859572 0.178675 0.401904
S29   S     S_3+6 0.604491 0.111095 0.688504 0.119301
O137  O     O_2   0.626105 0.174419 0.667936 -0.182400
O138  O     O_2   0.562314 0.141230 0.715661 -0.291799
O139  O     O_3   0.679715 0.069822 0.702124 -0.478420
H125  H     H_    0.706681 0.108763 0.713519 0.393759
S30   S     S_3+6 0.122918 0.589007 0.688810 0.122836
O140  O     O_2   0.095948 0.661695 0.700537 -0.230787
O141  O     O_2   0.146549 0.543523 0.716233 -0.283832
O142  O     O_3   0.196333 0.602547 0.665997 -0.428326
H126  H     H_    0.228888 0.635229 0.678239 0.402665
S31   S     S_3+6 0.396165 0.889050 0.688713 0.120873
O143  O     O_2   0.374613 0.825479 0.668268 -0.179594
O144  O     O_2   0.438404 0.859242 0.715919 -0.292252
O145  O     O_3   0.320895 0.930350 0.702269 -0.476955
H127  H     H_    0.294053 0.891515 0.713778 0.394905
S32   S     S_3+6 0.878320 0.408609 0.688886 0.122124
O146  O     O_2   0.906515 0.336866 0.701115 -0.224712
O147  O     O_2   0.853914 0.454653 0.716012 -0.284687
O148  O     O_3   0.805053 0.392955 0.666225 -0.433655
H128  H     H_    0.773304 0.359822 0.678631 0.401997

loop_
_geom_bond_atom_site_label_1
_geom_bond_atom_site_label_2
_ccdc_geom_bond_type
C153  H84   S    
C159  H106  S    
C69   C116  S    
O47   Zn5   S    
N31   H105  S    
O21   Zn9   S    
S7    O71   D    
O127  H121  S    
C19   N5    A    
O39   Zn1   S    
S9    O77   D    
S5    O67   S    
C9    C45   S    
O67   H37   S    
C155  H91   S    
C124  N28   S    
O13   Zn1   S    
C80   C96   A    
C154  H87   S    
S22   O117  D    
S9    O79   S    
C51   O37   A    
C17   N1    A    
S3    O59   D    
C63   O49   A    
C49   O21   A    
C24   C42   A    
C108  C109  A    
C30   C38   A    
O61   H35   S    
S21   O113  D    
C64   O50   A    
C59   O45   A    
C72   C88   A    
C48   O20   A    
C61   C89   S    
O91   H45   S    
S14   O92   D    
C110  S14   S    
C16   C44   S    
C97   S1    S    
C20   N8    A    
C32   H28   S    
N29   C157  S    
O2    Zn4   S    
C76   C125  S    
C82   C98   A    
C24   H20   S    
C73   C128  S    
C13   C41   S    
N19   C147  S    
C54   O26   A    
C80   C121  S    
C9    C131  A    
C148  H64   S    
S30   O141  D    
C13   N9    A    
C84   C100  A    
C91   C107  A    
N1    N13   A    
O33   Zn15  S    
C121  C128  S    
C150  H72   S    
C140  S28   S    
C123  C126  S    
C63   O35   A    
C27   C35   A    
O85   H43   S    
S17   O101  D    
C21   C29   A    
C72   C113  S    
C28   C44   A    
C31   C37   A    
S12   O86   D    
O1    Zn9   S    
C135  S23   S    
C24   C32   A    
C34   H30   S    
C66   C82   A    
C113  C120  S    
C103  S7    S    
C147  H58   S    
C160  H112  S    
S32   O146  D    
S14   O94   S    
S10   O80   D    
S27   O132  D    
C105  S9    S    
C144  S32   S    
C87   C103  A    
S8    O74   D    
S23   O120  D    
C105  C112  A    
C7    C19   S    
C74   C79   A    
N25   H81   S    
C107  C110  A    
C134  S22   S    
C132  C140  A    
O133  H123  S    
C51   C87   S    
N24   H77   S    
C130  C138  A    
C137  S25   S    
C56   O28   A    
S17   O103  S    
O6    Zn12  S    
C15   N15   A    
S6    O70   S    
O46   Zn8   S    
O97   H47   S    
O3    Zn15  S    
S16   O98   D    
O15   Zn3   S    
C5    C137  A    
C70   C115  S    
S26   O130  S    
C23   C41   A    
C75   C126  S    
C35   H31   S    
C74   C90   A    
C52   C86   S    
S25   O126  D    
C77   C124  S    
N21   H65   S    
S6    O69   D    
C78   C94   A    
C22   H18   S    
C65   C120  S    
C149  H68   S    
O40   Zn2   S    
O106  H114  S    
C67   C118  S    
S31   O144  D    
C28   H24   S    
N3    N15   A    
O136  H124  S    
S13   O89   D    
O2    Zn2   S    
O4    Zn6   S    
N20   H61   S    
C117  H5    S    
C29   H25   S    
C156  H94   S    
S21   O114  D    
N22   H69   S    
O8    Zn10  S    
C152  H79   S    
C61   O51   A    
O31   Zn15  S    
C67   C83   A    
C158  H102  S    
C13   N11   A    
C47   O19   A    
O44   Zn4   S    
N30   H101  S    
O49   Zn7   S    
C157  H98   S    
C54   O44   A    
C25   C43   A    
C7    C143  A    
N27   H89   S    
C26   C44   A    
N32   C160  S    
S28   O134  D    
C46   O16   A    
C159  H107  S    
S12   O88   S    
O1    Zn11  S    
C53   C81   S    
S7    O72   D    
S1    O53   D    
C143  S31   S    
S32   O148  S    
O139  H125  S    
C111  S15   S    
C122  C127  S    
C153  H82   S    
C92   C108  A    
S8    O76   S    
C153  H83   S    
N32   H109  S    
C107  S11   S    
O55   H33   S    
C157  H99   S    
C50   O40   A    
C131  S19   S    
C114  C119  S    
C75   C91   A    
C17   N3    A    
C135  C143  A    
C15   N13   A    
C18   N4    A    
C12   C134  A    
C56   O42   A    
O3    Zn13  S    
S16   O100  S    
C88   C104  A    
C5    C139  A    
C106  C111  A    
N17   C145  S    
C116  N20   S    
C53   O25   A    
S24   O122  D    
N20   C148  S    
C132  S20   S    
O121  H119  S    
O7    Zn9   S    
C151  H76   S    
C55   O27   A    
C23   C31   A    
S29   O138  D    
O16   Zn4   S    
O130  H122  S    
C74   C127  S    
S13   O91   S    
O4    Zn8   S    
O23   Zn11  S    
O70   H38   S    
O26   Zn10  S    
C129  C137  A    
C156  H96   S    
C78   C123  S    
C57   O47   A    
S2    O57   D    
C147  H59   S    
C158  H104  S    
C66   C119  S    
S11   O84   D    
S8    O75   D    
C146  H55   S    
C63   C91   S    
O148  H128  S    
C86   C102  A    
C7    C141  A    
C69   C85   A    
C46   O14   A    
O27   Zn9   S    
C1    O5    A    
S4    O63   D    
S20   O110  D    
S2    O58   S    
S1    O55   S    
O36   Zn16  S    
C56   C82   S    
C146  H56   S    
C65   C72   A    
C101  S5    S    
C67   C70   A    
C102  S6    S    
C47   O17   A    
C15   C43   S    
C154  H86   S    
S22   O118  S    
C31   H27   S    
C98   S2    S    
O28   Zn12  S    
C99   S3    S    
C100  C101  A    
O2    Zn12  S    
C125  N29   S    
N28   C156  S    
C133  S21   S    
S15   O97   S    
C10   C132  A    
N23   C151  S    
C131  C139  A    
O37   Zn3   S    
O11   Zn13  S    
S4    O62   D    
C18   N2    A    
C12   C136  A    
C89   C105  A    
S27   O131  D    
S14   O93   D    
S18   O104  D    
O18   Zn6   S    
C25   C33   A    
C60   C94   S    
S3    O61   S    
O48   Zn6   S    
N29   H97   S    
O51   Zn5   S    
O22   Zn10  S    
C3    O11   A    
C11   C47   S    
S24   O124  S    
C64   C90   S    
C12   C48   S    
O34   Zn14  S    
C54   C84   S    
N19   H57   S    
C85   C101  A    
C151  H74   S    
C123  H11   S    
C148  H63   S    
C146  H54   S    
C121  H9    S    
C100  S4    S    
O14   Zn2   S    
C150  H71   S    
O73   H39   S    
N2    N14   A    
C125  H13   S    
C5    C17   S    
C98   C103  A    
C115  H3    S    
C52   O24   A    
O103  H113  S    
S12   O87   D    
N6    N10   A    
C113  H1    S    
C118  H6    S    
C129  S17   S    
C30   H26   S    
C128  N32   S    
O12   Zn14  S    
C155  H90   S    
C68   C69   A    
C160  H111  S    
S32   O147  D    
S10   O81   D    
O64   H36   S    
O20   Zn8   S    
C22   C30   A    
C113  N17   S    
C114  N18   S    
C58   O48   A    
S9    O78   D    
O112  H116  S    
O24   Zn12  S    
C83   C99   A    
O58   H34   S    
N31   C159  S    
C1    O7    A    
S20   O112  S    
S17   O102  D    
C79   C122  S    
S10   O82   S    
S19   O107  D    
C68   C84   A    
C57   O29   A    
C155  H92   S    
C90   C106  A    
S16   O99   D    
C154  H88   S    
N18   H53   S    
C116  H4    S    
S22   O116  D    
S31   O145  S    
C139  S27   S    
C25   H21   S    
C62   O34   A    
C108  S12   S    
O2    Zn10  S    
C71   C114  S    
C136  S24   S    
O50   Zn6   S    
C156  H95   S    
C35   C39   A    
O76   H40   S    
O9    Zn15  S    
C79   C95   A    
S25   O125  D    
N7    N11   A    
C134  C142  A    
C14   N12   A    
C65   C81   A    
C66   C71   A    
S4    O64   S    
C120  N24   S    
C117  N21   S    
C149  H67   S    
C33   C39   A    
O4    Zn14  S    
C59   O31   A    
C1    C38   S    
C71   C87   A    
C3    C40   S    
C36   H32   S    
C10   C130  A    
C3    O9    A    
C34   C40   A    
S5    O66   D    
C112  S16   S    
C152  H78   S    
C51   O23   A    
S30   O140  D    
C45   O13   A    
C11   C135  A    
C123  N27   S    
C142  S30   S    
N26   H85   S    
C62   O52   A    
C104  S8    S    
C133  C141  A    
S28   O136  S    
C121  N25   S    
N21   C149  S    
S19   O109  S    
C73   C89   A    
C136  C144  A    
O42   Zn2   S    
O41   Zn3   S    
C145  H50   S    
C52   O38   A    
C145  H51   S    
C77   C93   A    
C94   C110  A    
C115  N19   S    
S27   O133  S    
C119  N23   S    
C6    C140  A    
N30   C158  S    
C97   C104  A    
C4    O12   A    
O88   H44   S    
C27   C43   A    
S23   O121  S    
O115  H117  S    
C28   C36   A    
S26   O128  D    
C29   C37   A    
N25   C153  S    
O1    Zn1   S    
C8    C142  A    
O17   Zn5   S    
S30   O142  S    
S11   O83   D    
O94   H46   S    
C149  H66   S    
S15   O95   D    
S19   O108  D    
C58   O30   A    
S31   O143  D    
N17   H49   S    
C96   C112  A    
O142  H126  S    
C8    C20   S    
C2    O8    A    
S24   O123  D    
S25   O127  S    
O10   Zn16  S    
C11   C133  A    
S6    O68   D    
C14   N10   A    
C151  H75   S    
C50   O22   A    
C126  N30   S    
C116  C117  S    
S29   O137  D    
O25   Zn11  S    
O4    Zn16  S    
C58   C96   S    
C16   N16   A    
C4    O10   A    
C26   C34   A    
O100  H48   S    
S13   O90   D    
O3    Zn7   S    
C99   C102  A    
C10   C46   S    
N28   H93   S    
C32   C38   A    
C127  N31   S    
C33   H29   S    
C53   O43   A    
C50   C88   S    
C14   C42   S    
C152  H80   S    
C115  C118  S    
O109  H115  S    
C158  H103  S    
C57   C93   S    
C122  H10   S    
C59   C95   S    
C55   O41   A    
O29   Zn13  S    
C60   O32   A    
N27   C155  S    
C106  S10   S    
C23   H19   S    
C126  H14   S    
C119  H7    S    
C6    C18   S    
C159  H108  S    
C120  H8    S    
C21   H17   S    
C49   C85   S    
C36   C40   A    
S7    O73   S    
C76   C77   A    
C114  H2    S    
S20   O111  D    
N4    N16   A    
C19   N7    A    
O124  H120  S    
S1    O54   D    
N5    N9    A    
N22   C150  S    
S5    O65   D    
C61   O33   A    
N8    N12   A    
C62   C92   S    
C6    C138  A    
N24   C152  S    
C109  S13   S    
O145  H127  S    
C68   C117  S    
N18   C146  S    
S23   O119  D    
C4    C39   S    
C130  S18   S    
O118  H118  S    
O1    Zn3   S    
C157  H100  S    
C8    C144  A    
C118  N22   S    
S15   O96   D    
N23   H73   S    
O30   Zn14  S    
C16   N14   A    
C76   C92   A    
O79   H41   S    
C48   O18   A    
C124  H12   S    
C21   C41   A    
C145  H52   S    
C60   O46   A    
S18   O105  D    
C70   C86   A    
C127  H15   S    
C64   O36   A    
O38   Zn4   S    
C128  H16   S    
C20   N6    A    
S3    O60   D    
C26   H22   S    
O52   Zn8   S    
C138  S26   S    
C2    O6    A    
C122  N26   S    
C9    C129  A    
C148  H62   S    
S26   O129  D    
O32   Zn16  S    
S29   O139  S    
C49   O39   A    
S18   O106  S    
C95   C111  A    
C150  H70   S    
N26   C154  S    
C2    C37   S    
C22   C42   A    
C81   C97   A    
O3    Zn5   S    
S21   O115  S    
C73   C80   A    
S28   O135  D    
O82   H42   S    
C75   C78   A    
S2    O56   D    
O35   Zn13  S    
C147  H60   S    
O5    Zn11  S    
C45   O15   A    
C160  H110  S    
S11   O85   S    
C93   C109  A    
O45   Zn7   S    
O19   Zn7   S    
C55   C83   S    
O43   Zn1   S    
C141  S29   S    
C27   H23   S    
C124  C125  S    
