data_mof_unit_51855.cif
_audit_creation_date              2013-03-05T16:32:07-0500
_audit_creation_method            fapswitch 2.2
_symmetry_space_group_name_H-M    P1
_symmetry_Int_Tables_number       1
_space_group_crystal_system       triclinic
_cell_length_a                    10.792992
_cell_length_b                    10.885539
_cell_length_c                    9.594551
_cell_angle_alpha                 90.548022
_cell_angle_beta                  90.623512
_cell_angle_gamma                 90.689
_cell_volume                      1127.03891515

loop_
_atom_site_label
_atom_site_type_symbol
_atom_site_description
_atom_site_fract_x
_atom_site_fract_y
_atom_site_fract_z
_atom_type_partial_charge
O1    O     O_R   0.500000 0.319640 0.618810 -0.598465
O2    O     O_R   0.500010 0.319680 0.381230 -0.572810
C1    C     C_R   0.502020 0.262937 0.499530 0.824826
O3    O     O_R   0.317690 0.499960 0.618790 -0.515240
O4    O     O_R   0.317700 0.500000 0.381210 -0.521597
C2    C     C_R   0.259985 0.497833 0.499556 0.924181
Cu1   Cu    Cu3+1 0.499990 0.499980 0.640670 1.098242
Cu2   Cu    Cu3+1 0.500010 0.500020 0.359330 1.069648
O5    O     O_R   0.499990 0.680320 0.618770 -0.579874
O6    O     O_R   0.500000 0.680360 0.381190 -0.579873
O7    O     O_R   0.682300 0.500000 0.618790 -0.534826
O8    O     O_R   0.682310 0.500040 0.381210 -0.587691
C3    C     C_R   0.499012 0.737214 0.500525 0.869566
C4    C     C_R   0.739727 0.496594 0.500268 0.929221
C5    C     C_3   0.070614 0.451925 0.644863 0.674597
C6    C     C_3   0.928071 0.440847 0.637242 0.329672
H1    H     H_    0.890465 0.488718 0.728346 0.251891
C7    C     C_3   0.072397 0.633268 0.467164 0.686455
C8    C     C_3   0.068891 0.414075 0.381263 -0.375593
C9    C     C_3   0.121754 0.499600 0.500506 -0.403088
H2    H     H_    0.102009 0.444910 0.277885 0.297919
H3    H     H_    0.101898 0.318664 0.389995 0.262072
C10   C     C_3   0.877613 0.497366 0.500092 -0.360538
C11   C     C_3   0.926740 0.632400 0.478995 0.633517
C12   C     C_3   0.926052 0.415711 0.378785 -0.361090
H4    H     H_    0.889127 0.320181 0.386910 0.248841
H5    H     H_    0.893660 0.450995 0.276360 0.256078
C13   C     C_R   0.488166 0.064000 0.619481 0.066855
C14   C     C_R   0.503494 0.130336 0.498246 -0.049371
C15   C     C_R   0.519074 0.063143 0.373648 -0.114622
H6    H     H_    0.536769 0.109362 0.276771 0.208951
C16   C     C_R   0.515417 0.934271 0.374130 -0.103720
H7    H     H_    0.528436 0.885704 0.276510 0.173819
C17   C     C_R   0.497913 0.870034 0.499890 -0.059174
C18   C     C_R   0.482846 0.939890 0.620671 0.075738
C19   C     C_3   0.471570 0.937323 0.776226 0.129559
C20   C     C_3   0.478038 0.078673 0.773034 -0.423418
H8    H     H_    0.551722 0.894869 0.829670 0.094209
H9    H     H_    0.391230 0.125326 0.802772 0.260800
H10   H     H_    0.564243 0.117738 0.820963 0.207168
C21   C     C_R   0.541509 0.600538 0.075853 0.113928
N1    N     N_R   0.500800 0.500930 0.147930 -0.241143
C22   C     C_R   0.447105 0.405608 0.070067 0.417359
C23   C     C_R   0.448024 0.406909 0.922301 -0.000322
H11   H     H_    0.407076 0.331546 0.863912 0.180859
N2    N     N_R   0.500800 0.500890 0.852020 -0.198205
C24   C     C_R   0.543921 0.599390 0.928745 0.176998
C25   C     C_3   0.673303 0.649822 0.931276 0.431757
C26   C     C_3   0.667085 0.657058 0.088552 -0.400146
H12   H     H_    0.684826 0.739664 0.879302 0.115958
H13   H     H_    0.734769 0.596937 0.141834 0.278544
H14   H     H_    0.664180 0.752847 0.129251 0.176826
F1    F     F_    0.099253 0.537813 0.748419 -0.570520
F2    F     F_    0.102621 0.658421 0.329594 -0.562958
F3    F     F_    0.878608 0.673964 0.353007 -0.587906
N3    N     N_R   0.351219 0.890990 0.822546 0.201678
O9    O     O_R   0.248693 0.940593 0.779377 -0.184418
O10   O     O_R   0.346542 0.806672 0.917475 -0.288061
N4    N     N_R   0.390451 0.301206 0.133895 0.136651
O11   O     O_R   0.292151 0.315876 0.208488 -0.320545
O12   O     O_R   0.411400 0.192348 0.082891 -0.392750
N5    N     N_R   0.125379 0.334243 0.688118 0.174993
O13   O     O_R   0.173322 0.324821 0.812494 -0.259083
O14   O     O_R   0.113881 0.235079 0.612106 -0.288680
F4    F     F_    0.757196 0.562710 0.890517 -0.606279
F5    F     F_    0.887351 0.319761 0.648080 -0.588191
N6    N     N_R   0.128782 0.734544 0.550252 0.153501
O15   O     O_R   0.214226 0.716683 0.643869 -0.257402
O16   O     O_R   0.103682 0.847212 0.516707 -0.187804
N7    N     N_R   0.881917 0.715459 0.589764 0.102417
O17   O     O_R   0.923157 0.709167 0.717361 -0.262320
O18   O     O_R   0.802490 0.800395 0.559265 -0.297570

loop_
_geom_bond_atom_site_label_1
_geom_bond_atom_site_label_2
_geom_bond_distance
_ccdc_geom_bond_type
C4    C10   1.488138 S    
O4    Cu2   1.981105 S    
C15   C16   1.402972 A    
C10   C11   1.572281 S    
O6    C3    1.296514 A    
C14   C15   1.408186 A    
C19   N3    1.462960 S    
N6    O15   1.297945 A    
C25   F4    1.375949 S    
C12   H5    1.112857 S    
C19   C20   1.540030 S    
C2    C9    1.492406 S    
C21   N1    1.362523 A    
C5    C9    1.586140 S    
C24   C25   1.494162 S    
C22   N4    1.430130 S    
C15   H6    1.078913 S    
C22   C23   1.418091 A    
C26   H14   1.110852 S    
C16   H7    1.082451 S    
N5    O13   1.300962 A    
C25   H12   1.108303 S    
O2    C1    1.297499 A    
C21   C24   1.411898 A    
C11   N7    1.477954 S    
N4    O11   1.296828 A    
C20   H9    1.109785 S    
N3    O9    1.302405 A    
C11   F3    1.392197 S    
Cu1   O7    1.981106 S    
N6    O16   1.301843 A    
N7    O17   1.300781 A    
Cu2   O8    1.976453 S    
C13   C20   1.485742 S    
O3    Cu1   1.976454 S    
C7    C11   1.577317 S    
C5    F1    1.387601 S    
C19   H8    1.108764 S    
C25   C26   1.512555 S    
C8    H2    1.111497 S    
C5    N5    1.478413 S    
C23   N2    1.353987 A    
C20   H10   1.111478 S    
C7    C9    1.589688 S    
C10   C12   1.556488 S    
O4    C2    1.301324 A    
C8    C12   1.541900 S    
O7    C4    1.301451 A    
N4    O12   1.300966 A    
C6    F5    1.389603 S    
N1    C22   1.389930 A    
C7    F2    1.392018 S    
C6    C10   1.553903 S    
Cu2   N1    2.028518 S    
C5    C6    1.542628 S    
Cu1   N2    2.027662 S    
Cu1   O5    1.976310 S    
C3    C17   1.446082 S    
C8    H3    1.105687 S    
C23   H11   1.076694 S    
C7    N6    1.475719 S    
O3    C2    1.296451 A    
C17   C18   1.392045 A    
C21   C26   1.485001 S    
C1    C14   1.443647 S    
Cu1   Cu2   2.699337 S    
O5    C3    1.297737 A    
N2    C24   1.368804 A    
C13   C14   1.385352 A    
N5    O14   1.300860 A    
C26   H13   1.110438 S    
C12   H4    1.112903 S    
O1    Cu1   1.972276 S    
N3    O10   1.300166 A    
N7    O18   1.301578 A    
Cu2   O6    1.972276 S    
O2    Cu2   1.976307 S    
C8    C9    1.566472 S    
C13   C18   1.351700 A    
O8    C4    1.294712 A    
C6    H1    1.097472 S    
O1    C1    1.295594 A    
C18   C19   1.499254 S    
C16   C17   1.413674 A    
