data_mof_unit_59647.cif
_audit_creation_date              2012-12-10T16:44:45-0500
_audit_creation_method            fapswitch 2.2
_symmetry_space_group_name_H-M    P1
_symmetry_Int_Tables_number       1
_space_group_crystal_system       triclinic
_cell_length_a                    15.044701
_cell_length_b                    8.775089
_cell_length_c                    7.579744
_cell_angle_alpha                 103.293805
_cell_angle_beta                  95.571988
_cell_angle_gamma                 95.265327
_cell_volume                      962.50377244

loop_
_atom_site_label
_atom_site_type_symbol
_atom_type_description
_atom_site_fract_x
_atom_site_fract_y
_atom_site_fract_z
_atom_type_partial_charge
C1    C     C_R   0.496868 0.200391 0.453844 0.892968
C2    C     C_R   0.503253 0.799652 0.546127 0.918721
C3    C     C_R   0.025526 0.217749 0.363345 -0.175212
C4    C     C_R   0.974757 0.780976 0.632307 -0.175743
C5    C     C_2   0.484866 0.032596 0.431456 0.054594
C6    C     C_2   0.516009 0.967389 0.567952 0.091052
C7    C     C_R   0.329594 0.501578 0.500209 0.863830
C8    C     C_R   0.670455 0.497846 0.499731 0.902934
C9    C     C_R   0.824865 0.635723 0.592064 -0.146709
C10   C     C_R   0.175595 0.363185 0.406198 -0.128464
C11   C     C_R   0.767250 0.498740 0.500861 -0.182088
C12   C     C_R   0.232886 0.500032 0.498745 -0.151487
C13   C     C_R   0.801582 0.360612 0.415325 0.214088
C14   C     C_R   0.198359 0.637668 0.584326 0.237893
C15   C     C_R   0.895490 0.354507 0.433688 0.004001
C16   C     C_R   0.104609 0.643875 0.563972 -0.003231
C17   C     C_R   0.953252 0.497789 0.502378 0.040634
C18   C     C_R   0.046875 0.500691 0.494443 0.037996
C19   C     C_R   0.917743 0.638305 0.580215 0.021348
C20   C     C_R   0.082533 0.360341 0.416528 0.023594
C21   C     C_R   0.934219 0.211836 0.382070 -0.001179
C22   C     C_R   0.066061 0.786653 0.614607 0.001013
Cu1   Cu    Cu3+1 0.510010 0.517380 0.684380 1.100567
Cu2   Cu    Cu3+1 0.489990 0.482620 0.315620 1.104222
H1    H     H_    0.053174 0.107355 0.321793 0.212231
H2    H     H_    0.947251 0.891578 0.672831 0.210665
N1    N     N_2   0.474890 0.456420 0.038520 -0.205687
N2    N     N_2   0.525110 0.543580 0.961480 -0.239041
O1    O     O_R   0.506510 0.286130 0.619770 -0.575085
O2    O     O_R   0.493490 0.713870 0.380230 -0.553328
O3    O     O_R   0.489600 0.256770 0.308360 -0.539952
O4    O     O_R   0.510400 0.743230 0.691640 -0.523287
O5    O     O_R   0.378710 0.514640 0.655720 -0.575668
O6    O     O_R   0.621290 0.485360 0.344280 -0.538042
O7    O     O_R   0.361800 0.485290 0.344300 -0.576265
O8    O     O_R   0.638200 0.514710 0.655700 -0.569028
C23   C     C_2   0.787728 0.777284 0.693893 0.948922
O9    O     O_2   0.722747 0.825452 0.624190 -0.546556
O10   O     O_R   0.827449 0.855145 0.869847 -0.694533
H3    H     H_    0.796846 0.950263 0.924234 0.389036
C24   C     C_2   0.213630 0.222154 0.305622 0.910460
O11   O     O_2   0.277716 0.173557 0.378086 -0.569014
O12   O     O_R   0.176135 0.145918 0.127673 -0.695559
H4    H     H_    0.207723 0.051925 0.073813 0.382675
Br1   Br    Br    0.718844 0.192241 0.253119 -0.426480
Br2   Br    Br    0.280295 0.804784 0.750041 -0.403469
C25   C     C_2   0.887070 0.055125 0.379038 0.867801
O13   O     O_2   0.835005 0.043026 0.490519 -0.559926
O14   O     O_R   0.906197 0.920177 0.256606 -0.722237
H5    H     H_    0.870590 0.820422 0.269878 0.341279
C26   C     C_2   0.113657 0.943180 0.618205 0.862482
O15   O     O_2   0.166475 0.954878 0.507987 -0.552579
O16   O     O_R   0.094300 0.078353 0.739949 -0.721125
H6    H     H_    0.130325 0.177913 0.727224 0.348591
Br3   Br    Br    0.409632 0.919346 0.208833 -0.317991
Br4   Br    Br    0.592898 0.080520 0.788416 -0.295114
C27   C     C_2   0.394209 0.371729 0.937992 1.134020
O17   O     O_2   0.324073 0.431513 0.949571 -0.572221
O18   O     O_R   0.392758 0.214594 0.844260 -0.716356
H7    H     H_    0.330627 0.166155 0.781630 0.350472
C28   C     C_2   0.598953 0.663069 0.046693 1.116083
O19   O     O_2   0.640076 0.727921 0.948186 -0.549258
O20   O     O_R   0.624928 0.716334 0.232406 -0.733222
H8    H     H_    0.677314 0.803313 0.264622 0.350962

loop_
_geom_bond_atom_site_label_1
_geom_bond_atom_site_label_2
_ccdc_geom_bond_type
C4    H2    S    
Cu1   Cu2   S    
C23   O9    D    
C4    C22   A    
C24   O11   D    
C24   O12   S    
C25   O13   D    
Cu2   N1    S    
C1    O3    A    
C2    O2    A    
N1    N2    D    
N2    C28   S    
C28   O19   D    
C9    C23   S    
C17   C18   A    
Cu2   O3    S    
O18   H7    S    
C14   Br2   S    
C16   C18   A    
C8    O6    A    
O16   H6    S    
Cu1   O4    S    
C10   C24   S    
C13   Br1   S    
C11   C13   A    
C3    C20   A    
C9    C11   A    
C27   O17   D    
C2    C6    S    
C10   C12   A    
C8    C11   S    
C1    C5    S    
Cu1   O1    S    
C2    O4    A    
C17   C19   A    
C12   C14   A    
O14   H5    S    
C18   C20   A    
C13   C15   A    
O12   H4    S    
C8    O8    A    
C5    C6    D    
C23   O10   S    
C14   C16   A    
C7    C12   S    
C3    C21   A    
Cu2   O7    S    
C27   O18   S    
C7    O5    A    
Cu2   O2    S    
O20   H8    S    
C15   C21   A    
C3    H1    S    
C25   O14   S    
Cu1   O8    S    
N1    C27   S    
C10   C20   A    
O10   H3    S    
C15   C17   A    
C21   C25   S    
C16   C22   A    
C1    O1    A    
Cu1   O5    S    
Cu1   N2    S    
C4    C19   A    
C7    O7    A    
C5    Br3   S    
C28   O20   S    
Cu2   O6    S    
C26   O15   D    
C9    C19   A    
C6    Br4   S    
C22   C26   S    
C26   O16   S    
