data_mof_unit_52528.cif
_audit_creation_date              2012-12-11T15:36:01-0500
_audit_creation_method            fapswitch 2.2
_symmetry_space_group_name_H-M    P1
_symmetry_Int_Tables_number       1
_space_group_crystal_system       triclinic
_cell_length_a                    6.990816
_cell_length_b                    11.964241
_cell_length_c                    35.959486
_cell_angle_alpha                 90.151266
_cell_angle_beta                  91.163218
_cell_angle_gamma                 89.833383
_cell_volume                      3007.00193881

loop_
_atom_site_label
_atom_site_type_symbol
_atom_type_description
_atom_site_fract_x
_atom_site_fract_y
_atom_site_fract_z
_atom_type_partial_charge
O1    O     O_R   0.379730 0.148600 0.662710 -0.539238
O2    O     O_R   0.620270 0.851400 0.337290 -0.539239
O3    O     O_R   0.120270 0.648600 0.337290 -0.538488
O4    O     O_R   0.879730 0.351400 0.662710 -0.538487
O5    O     O_R   0.722480 0.134490 0.741330 -0.541001
O6    O     O_R   0.277520 0.865510 0.258670 -0.540999
O7    O     O_R   0.777520 0.634490 0.258670 -0.539180
O8    O     O_R   0.222480 0.365510 0.741330 -0.539180
O9    O     O_R   0.892880 0.345890 0.741600 -0.541570
O10   O     O_R   0.107120 0.654110 0.258400 -0.541571
O11   O     O_R   0.607120 0.845890 0.258400 -0.538505
O12   O     O_R   0.392880 0.154110 0.741600 -0.538505
C1    C     C_R   0.553104 0.111641 0.753899 0.671835
C2    C     C_R   0.446896 0.888359 0.246100 0.671834
C3    C     C_R   0.945520 0.613825 0.245279 0.677333
C4    C     C_R   0.054480 0.386175 0.754721 0.677332
O13   O     O_R   0.709490 0.135560 0.662990 -0.540129
O14   O     O_R   0.290510 0.864440 0.337010 -0.540128
O15   O     O_R   0.790510 0.635560 0.337010 -0.540802
O16   O     O_R   0.209490 0.364440 0.662990 -0.540802
C5    C     C_R   0.539891 0.107722 0.650952 0.698544
C6    C     C_R   0.460109 0.892278 0.349048 0.698544
C7    C     C_R   0.960415 0.608077 0.349112 0.700274
C8    C     C_R   0.039585 0.391923 0.650888 0.700274
O17   O     O_3   0.552800 0.316610 0.702160 -0.367703
O18   O     O_3   0.447200 0.683390 0.297840 -0.367703
O19   O     O_3   0.947200 0.816610 0.297840 -0.367453
O20   O     O_3   0.052800 0.183390 0.702160 -0.367453
V1    V     V_3+5 0.827630 0.234380 0.702160 1.423652
V2    V     V_3+5 0.172370 0.765620 0.297840 1.423652
V3    V     V_3+5 0.672370 0.734380 0.297840 1.422675
V4    V     V_3+5 0.327630 0.265620 0.702160 1.422675
C9    C     C_R   0.043237 0.652562 0.917584 0.532518
C10   C     C_R   0.956769 0.347437 0.082416 0.532518
C11   C     C_R   0.526532 0.162080 0.086442 0.531102
C12   C     C_R   0.473471 0.837921 0.913558 0.531101
O21   O     O_2   0.093340 0.546262 0.925501 -0.545435
O22   O     O_2   0.906670 0.453736 0.074499 -0.545436
O23   O     O_2   0.593828 0.058244 0.080388 -0.544624
O24   O     O_2   0.406174 0.941757 0.919612 -0.544623
N1    N     N_R   0.024116 0.687733 0.881121 -0.540330
N2    N     N_R   0.975887 0.312265 0.118879 -0.540330
N3    N     N_R   0.483882 0.198485 0.122015 -0.538547
N4    N     N_R   0.516119 0.801516 0.877985 -0.538547
C13   C     C_R   0.987672 0.799490 0.874281 0.579809
C14   C     C_R   0.012328 0.200508 0.125720 0.579811
C15   C     C_R   0.445153 0.311365 0.126713 0.558483
C16   C     C_R   0.554850 0.688636 0.873286 0.558487
C17   C     C_R   0.119416 0.640494 0.815957 -0.066598
C18   C     C_R   0.880580 0.359506 0.184042 -0.066600
C19   C     C_R   0.499375 0.153726 0.191368 -0.058315
C20   C     C_R   0.500620 0.846275 0.808632 -0.058315
C21   C     C_R   0.121017 0.568739 0.785243 -0.191676
C22   C     C_R   0.878978 0.431262 0.214756 -0.191677
C23   C     C_R   0.481684 0.079159 0.220919 -0.187786
C24   C     C_R   0.518310 0.920841 0.779081 -0.187790
C25   C     C_R   0.984435 0.421935 0.822368 -0.055457
C26   C     C_R   0.015572 0.578064 0.177633 -0.055454
C27   C     C_R   0.456952 0.925702 0.177536 -0.080441
C28   C     C_R   0.543053 0.074298 0.822464 -0.080438
C29   C     C_R   0.974095 0.497183 0.852513 -0.041892
C30   C     C_R   0.025913 0.502815 0.147488 -0.041885
C31   C     C_R   0.447697 0.002764 0.148053 -0.072416
C32   C     C_R   0.552306 0.997236 0.851947 -0.072415
C33   C     C_R   0.040361 0.608238 0.850024 0.340676
C34   C     C_R   0.959641 0.391761 0.149976 0.340675
C35   C     C_R   0.477637 0.119015 0.153653 0.331228
C36   C     C_R   0.522362 0.880985 0.846347 0.331232
C37   C     C_R   0.999016 0.842512 0.940466 -0.028384
C38   C     C_R   0.000988 0.157486 0.059535 -0.028384
C39   C     C_R   0.485883 0.348747 0.060870 -0.027751
C40   C     C_R   0.514124 0.651254 0.939130 -0.027752
C41   C     C_R   0.018461 0.727694 0.947474 -0.037864
C42   C     C_R   0.981546 0.272304 0.052527 -0.037864
C43   C     C_R   0.509787 0.233781 0.055432 -0.037401
C44   C     C_R   0.490219 0.766220 0.944568 -0.037401
C45   C     C_R   0.019585 0.690360 0.984277 -0.113013
C46   C     C_R   0.980427 0.309638 0.015724 -0.113014
C47   C     C_R   0.523662 0.192618 0.019141 -0.115054
C48   C     C_R   0.476345 0.807383 0.980859 -0.115054
C49   C     C_R   0.986318 0.878477 0.903427 -0.032422
C50   C     C_R   0.013683 0.121521 0.096573 -0.032422
C51   C     C_R   0.461332 0.387945 0.097147 -0.042729
C52   C     C_R   0.538675 0.612055 0.902853 -0.042729
C53   C     C_R   0.048820 0.460191 0.787709 -0.110909
C54   C     C_R   0.951180 0.539809 0.212291 -0.110911
C55   C     C_R   0.458632 0.965201 0.214351 -0.101782
C56   C     C_R   0.541368 0.034799 0.785649 -0.101781
H1    H     H_    0.912084 0.467897 0.877812 0.181457
H2    H     H_    0.087927 0.532099 0.122189 0.181456
H3    H     H_    0.413185 0.968983 0.121007 0.192168
H4    H     H_    0.586820 0.031017 0.878993 0.192167
H5    H     H_    0.029264 0.602034 0.990609 0.161287
H6    H     H_    0.970752 0.397964 0.009392 0.161288
H7    H     H_    0.537125 0.103737 0.013903 0.159429
H8    H     H_    0.462882 0.896264 0.986097 0.159429
C57   C     C_R   0.010813 0.962191 0.037467 0.025302
C58   C     C_R   0.989189 0.037806 0.962534 0.025303
C59   C     C_R   0.521896 0.458487 0.963215 0.028485
C60   C     C_R   0.478115 0.541514 0.036785 0.028484
C61   C     C_R   0.993744 0.117026 0.992311 0.011075
C62   C     C_R   0.006261 0.882971 0.007690 0.011074
C63   C     C_R   0.488422 0.617620 0.006392 0.014219
C64   C     C_R   0.511589 0.382381 0.993608 0.014219
C65   C     C_R   0.002763 0.078592 0.029630 0.084577
C66   C     C_R   0.997241 0.921405 0.970371 0.084577
C67   C     C_R   0.508552 0.575475 0.969733 0.093579
C68   C     C_R   0.491457 0.424526 0.030267 0.093579
C69   C     C_R   0.024213 0.929253 0.075135 -0.113711
C70   C     C_R   0.975782 0.070745 0.924866 -0.113713
C71   C     C_R   0.545942 0.421915 0.926218 -0.103424
C72   C     C_R   0.454069 0.578086 0.073782 -0.103424
C73   C     C_R   0.026018 0.007054 0.103950 -0.086358
C74   C     C_R   0.973979 0.992944 0.896051 -0.086358
C75   C     C_R   0.551350 0.496846 0.896746 -0.096084
C76   C     C_R   0.448660 0.503155 0.103254 -0.096084
O25   O     O_2   0.052392 0.164601 0.160521 -0.536063
O26   O     O_2   0.947604 0.835397 0.839480 -0.536063
O27   O     O_2   0.616593 0.648440 0.840693 -0.545126
O28   O     O_2   0.383409 0.351562 0.159307 -0.545129
C77   C     C_R   0.010633 0.765864 0.013733 -0.165492
C78   C     C_R   0.989379 0.234134 0.986267 -0.165494
C79   C     C_R   0.520546 0.264817 0.988831 -0.163246
C80   C     C_R   0.479464 0.735184 0.011169 -0.163246
H9    H     H_    0.821410 0.401612 0.240674 0.116344
H10   H     H_    0.178580 0.598391 0.759325 0.116342
H11   H     H_    0.507741 0.889608 0.750792 0.105222
H12   H     H_    0.492250 0.110392 0.249208 0.105222
H13   H     H_    0.822850 0.277399 0.187448 0.143612
H14   H     H_    0.177142 0.722603 0.812551 0.143612
H15   H     H_    0.470460 0.761918 0.800436 0.152626
H16   H     H_    0.529533 0.238083 0.199565 0.152628
H17   H     H_    0.033903 0.976484 0.132274 0.174389
H18   H     H_    0.966089 0.023514 0.867727 0.174390
H19   H     H_    0.566215 0.463547 0.868907 0.176080
H20   H     H_    0.433795 0.536454 0.131093 0.176081
H21   H     H_    0.033677 0.843437 0.083422 0.177929
H22   H     H_    0.966309 0.156560 0.916579 0.177930
H23   H     H_    0.563572 0.335520 0.919030 0.178014
H24   H     H_    0.436442 0.664481 0.080971 0.178015
H25   H     H_    0.011361 0.728826 0.040964 0.150349
H26   H     H_    0.988658 0.271171 0.959037 0.150351
H27   H     H_    0.529438 0.225023 0.962053 0.146411
H28   H     H_    0.470573 0.774978 0.037947 0.146412
C81   C     C_R   0.969784 0.529590 0.380113 -0.035791
C82   C     C_R   0.030216 0.470410 0.619887 -0.035791
C83   C     C_R   0.531263 0.029181 0.619872 -0.035732
C84   C     C_R   0.468737 0.970819 0.380128 -0.035732
C85   C     C_R   0.927804 0.343527 0.404218 -0.168199
C86   C     C_R   0.072197 0.656473 0.595782 -0.168199
C87   C     C_R   0.575653 0.843256 0.595407 -0.167580
C88   C     C_R   0.424346 0.156744 0.404593 -0.167580
C89   C     C_R   0.934133 0.416238 0.374132 -0.180883
C90   C     C_R   0.065867 0.583762 0.625868 -0.180883
C91   C     C_R   0.568791 0.915905 0.625634 -0.182310
C92   C     C_R   0.431209 0.084095 0.374366 -0.182310
C93   C     C_R   0.998320 0.570654 0.416205 -0.219747
C94   C     C_R   0.001680 0.429346 0.583795 -0.219747
C95   C     C_R   0.501470 0.070267 0.583897 -0.219117
C96   C     C_R   0.498530 0.929733 0.416102 -0.219117
C97   C     C_R   0.987857 0.499268 0.447429 0.081663
C98   C     C_R   0.012143 0.500731 0.552570 0.081663
C99   C     C_R   0.512678 0.999028 0.552541 0.081309
C100  C     C_R   0.487322 0.000972 0.447459 0.081309
C101  C     C_R   0.952629 0.384017 0.440676 0.128079
C102  C     C_R   0.047371 0.615983 0.559323 0.128080
C103  C     C_R   0.549621 0.883807 0.559043 0.128308
C104  C     C_R   0.450378 0.116193 0.440957 0.128308
C105  C     C_R   0.007753 0.538608 0.484939 0.051946
C106  C     C_R   0.992247 0.461392 0.515061 0.051946
C107  C     C_R   0.491893 0.038532 0.515141 0.052089
C108  C     C_R   0.508106 0.961468 0.484859 0.052089
C109  C     C_R   0.958320 0.347455 0.506665 -0.195692
C110  C     C_R   0.041680 0.652545 0.493335 -0.195692
C111  C     C_R   0.543508 0.847505 0.492991 -0.195779
C112  C     C_R   0.456492 0.152495 0.507009 -0.195780
C113  C     C_R   0.939391 0.309997 0.470271 -0.197868
C114  C     C_R   0.060609 0.690003 0.529729 -0.197868
C115  C     C_R   0.563356 0.809907 0.529292 -0.197558
C116  C     C_R   0.436644 0.190093 0.470708 -0.197558
H29   H     H_    0.912533 0.221925 0.465268 0.140658
H30   H     H_    0.087467 0.778075 0.534732 0.140658
H31   H     H_    0.591394 0.721844 0.534094 0.140784
H32   H     H_    0.408605 0.278156 0.465906 0.140784
H33   H     H_    0.977406 0.340805 0.581266 0.097210
H34   H     H_    0.022593 0.659195 0.418734 0.097210
H35   H     H_    0.524328 0.841247 0.418433 0.097358
H36   H     H_    0.475673 0.158753 0.581567 0.097359
H37   H     H_    0.090315 0.615616 0.653788 0.105453
H38   H     H_    0.909685 0.384384 0.346211 0.105453
H39   H     H_    0.405809 0.115924 0.346515 0.105358
H40   H     H_    0.594190 0.884076 0.653485 0.105358
H41   H     H_    0.899914 0.255703 0.399034 0.127335
H42   H     H_    0.100086 0.744297 0.600966 0.127335
H43   H     H_    0.604938 0.755471 0.600400 0.127654
H44   H     H_    0.395061 0.244529 0.399599 0.127654
H45   H     H_    0.944620 0.284032 0.527577 0.130179
H46   H     H_    0.055380 0.715968 0.472422 0.130179
H47   H     H_    0.557710 0.784153 0.471945 0.129978
H48   H     H_    0.442289 0.215847 0.528055 0.129978
C117  C     C_2   0.939888 0.302327 0.828251 0.350433
H49   H     H_    0.940396 0.243171 0.805370 0.045019
O29   O     O_2   0.906290 0.267389 0.859256 -0.546573
C118  C     C_2   0.060128 0.697670 0.171749 0.350426
H50   H     H_    0.059617 0.756827 0.194630 0.045023
O30   O     O_2   0.093736 0.732607 0.140745 -0.546577
C119  C     C_2   0.476708 0.804705 0.169495 0.425458
H51   H     H_    0.460927 0.743039 0.191271 0.021463
O31   O     O_2   0.518048 0.772400 0.138476 -0.531188
C120  C     C_2   0.523308 0.195295 0.830505 0.425451
H52   H     H_    0.539088 0.256961 0.808728 0.021462
O32   O     O_2   0.481976 0.227602 0.861524 -0.531188

loop_
_geom_bond_atom_site_label_1
_geom_bond_atom_site_label_2
_ccdc_geom_bond_type
C13   O26   S    
C26   C30   A    
C94   C98   A    
C103  C115  A    
C107  C108  A    
O1    C5    A    
C58   C70   A    
C23   H12   S    
C96   C100  A    
O13   V1    S    
C105  C106  A    
C72   H24   S    
O3    C7    A    
C10   N2    A    
C72   C76   A    
C40   C44   A    
C83   C95   A    
C28   C56   A    
C76   H20   S    
C71   H23   S    
C64   C79   A    
C7    C81   S    
C11   C43   A    
C18   C22   A    
C17   C33   A    
C32   C36   A    
O20   V1    S    
O9    C4    A    
C2    C55   S    
O10   C3    A    
N2    C14   A    
O4    C8    A    
O11   C2    A    
C113  H29   S    
C24   C56   A    
C86   C102  A    
C101  C113  A    
C69   H21   S    
C84   C96   A    
C24   H11   S    
C87   H43   S    
C5    C83   S    
C85   C89   A    
C86   H42   S    
C12   C44   A    
C85   H41   S    
C98   C102  A    
C88   C92   A    
C82   C90   A    
C49   C74   A    
C38   C42   A    
C105  C110  A    
C37   C41   A    
C102  C114  A    
C71   C75   A    
C15   C51   A    
C48   H8    S    
C62   C77   A    
C11   N3    A    
O15   V3    S    
C110  C114  A    
O5    V1    S    
C57   C62   A    
C20   C36   A    
C108  C111  A    
O9    V1    S    
C97   C105  A    
O17   V4    S    
O7    C3    A    
C59   C64   A    
O11   V3    S    
O18   V3    S    
O8    C4    A    
C73   H17   S    
C39   C68   A    
O12   V4    S    
O19   V2    S    
C61   C65   A    
C21   C53   A    
C117  O29   D    
C48   C80   A    
C112  H48   S    
C38   C50   A    
C63   C80   A    
C26   C54   A    
C12   N4    A    
C88   C104  A    
C29   H1    S    
C16   O27   S    
C39   C51   A    
C89   H38   S    
C87   C103  A    
O17   V1    S    
C22   H9    S    
C31   C35   A    
C110  H46   S    
C60   C68   A    
C88   H44   S    
C107  C112  A    
C109  H45   S    
C119  H51   S    
O8    V4    S    
C115  H31   S    
C77   H25   S    
C12   O24   S    
O7    V3    S    
C93   H34   S    
C27   C55   A    
C91   H40   S    
C28   C120  S    
C22   C54   A    
C30   C34   A    
O15   C7    A    
N1    C33   S    
C104  C116  A    
C47   C79   A    
C60   C63   A    
O13   C5    A    
C16   C52   A    
C14   O25   S    
O2    V3    S    
C95   H36   S    
O3    V2    S    
C11   O23   S    
C47   H7    S    
C18   H13   S    
C29   C33   A    
O6    C2    A    
C57   C69   A    
O10   V2    S    
C98   C106  A    
C40   C67   A    
O20   V4    S    
C99   C103  A    
C19   H16   S    
C59   C71   A    
C81   C93   A    
C74   H18   S    
C85   C101  A    
C19   C35   A    
N1    C13   A    
C118  H50   S    
C25   C29   A    
C18   C34   A    
C111  H47   S    
C40   C52   A    
C10   C42   A    
C37   C49   A    
O14   V2    S    
C100  C104  A    
C9    C41   A    
C15   O28   S    
O6    V2    S    
C90   H37   S    
C118  O30   D    
O18   V2    S    
C52   C75   A    
C87   C91   A    
C3    C54   S    
O19   V3    S    
C86   C90   A    
C4    C53   S    
C95   C99   A    
N4    C36   S    
C43   C47   A    
C32   H4    S    
C25   C117  S    
C94   H33   S    
C93   C97   A    
C64   C68   A    
C99   C107  A    
C119  O31   D    
O16   V4    S    
C27   C119  S    
C81   C89   A    
C100  C108  A    
C70   C74   A    
C41   C45   A    
C10   O22   S    
C20   H15   S    
O5    C1    A    
C51   C76   A    
C13   C49   A    
C44   C48   A    
C50   C73   A    
C6    C84   S    
C38   C65   A    
C14   C50   A    
O4    V1    S    
C111  C115  A    
C37   C66   A    
C60   C72   A    
C82   C94   A    
C69   C73   A    
C83   C91   A    
C114  H30   S    
C58   C61   A    
C59   C67   A    
C17   H14   S    
C27   C31   A    
C61   C78   A    
C58   C66   A    
C117  H49   S    
C28   C32   A    
C9    N1    A    
C120  O32   D    
O14   C6    A    
C57   C65   A    
N4    C16   A    
C8    C82   S    
O2    C6    A    
C39   C43   A    
C75   H19   S    
C46   H6    S    
C17   C21   A    
C30   H2    S    
C1    C56   S    
C45   H5    S    
C79   H27   S    
C25   C53   A    
C62   C66   A    
C19   C23   A    
O1    V4    S    
C23   C55   A    
C46   C78   A    
C9    O21   S    
C45   C77   A    
C21   H10   S    
C70   H22   S    
C26   C118  S    
C92   H39   S    
C116  H32   S    
C112  C116  A    
O12   C1    A    
N3    C35   S    
C120  H52   S    
C42   C46   A    
C31   H3    S    
N2    C34   S    
C78   H26   S    
C80   H28   S    
C63   C67   A    
C84   C92   A    
C96   H35   S    
C109  C113  A    
N3    C15   A    
O16   C8    A    
C97   C101  A    
C20   C24   A    
C106  C109  A    
