data_mof_unit_67266.cif
_audit_creation_date              2012-12-11T18:15:50-0500
_audit_creation_method            fapswitch 2.2
_symmetry_space_group_name_H-M    P1
_symmetry_Int_Tables_number       1
_space_group_crystal_system       triclinic
_cell_length_a                    20.13274
_cell_length_b                    20.446087
_cell_length_c                    8.57559
_cell_angle_alpha                 90.174999
_cell_angle_beta                  92.702909
_cell_angle_gamma                 89.309402
_cell_volume                      3525.82518959

loop_
_atom_site_label
_atom_site_type_symbol
_atom_type_description
_atom_site_fract_x
_atom_site_fract_y
_atom_site_fract_z
_atom_type_partial_charge
Ba1   Ba    Ba6+2 0.999980 0.452130 0.155200 1.753931
Ba2   Ba    Ba6+2 0.999980 0.547870 0.655200 1.746590
Ba3   Ba    Ba6+2 0.499980 0.952130 0.155200 1.755912
Ba4   Ba    Ba6+2 0.499980 0.047870 0.655200 1.731430
C1    C     C_3   0.956952 0.141761 0.349506 -0.303363
C2    C     C_3   0.932173 0.846091 0.872244 -0.275046
C3    C     C_3   0.450049 0.648354 0.400858 -0.315572
C4    C     C_3   0.445550 0.353882 0.870873 -0.242078
C5    C     C_R   0.152378 0.349354 0.818199 0.035351
C6    C     C_R   0.151258 0.652162 0.321792 0.033480
C7    C     C_R   0.652499 0.849503 0.817461 0.043390
C8    C     C_R   0.652410 0.151298 0.320868 0.034750
C9    C     C_R   0.114993 0.341009 0.677098 -0.266317
C10   C     C_R   0.113449 0.661199 0.181082 -0.279105
C11   C     C_R   0.616518 0.842377 0.674225 -0.282054
C12   C     C_R   0.615653 0.159440 0.179141 -0.290670
C13   C     C_R   0.130087 0.290886 0.572467 0.007522
C14   C     C_R   0.128067 0.710688 0.075570 0.023363
C15   C     C_R   0.632462 0.792972 0.568399 -0.015519
C16   C     C_R   0.630315 0.208862 0.074334 0.034251
C17   C     C_R   0.179600 0.245096 0.613052 -0.146126
C18   C     C_R   0.177937 0.755394 0.115120 -0.139218
C19   C     C_R   0.681473 0.746742 0.609296 -0.158427
C20   C     C_R   0.679118 0.254591 0.114565 -0.117524
C21   C     C_R   0.216005 0.249352 0.756359 0.020579
C22   C     C_R   0.214375 0.751624 0.259024 -0.000678
C23   C     C_R   0.716156 0.749451 0.754760 0.014506
C24   C     C_R   0.715561 0.250634 0.258052 -0.006542
C25   C     C_R   0.204084 0.302538 0.858947 -0.019259
C26   C     C_R   0.202778 0.698911 0.362464 -0.028706
C27   C     C_R   0.703699 0.802148 0.858547 -0.013687
C28   C     C_R   0.703660 0.198161 0.361896 -0.038393
C29   C     C_R   0.804589 0.704229 0.932716 -0.014325
C30   C     C_R   0.804807 0.295091 0.434577 -0.018431
C31   C     C_R   0.305228 0.204957 0.933761 -0.019753
C32   C     C_R   0.304774 0.795313 0.434545 -0.009350
C33   C     C_R   0.791600 0.756721 0.036657 0.006717
C34   C     C_R   0.792127 0.243066 0.539118 0.021482
C35   C     C_R   0.292963 0.258144 0.036483 0.010213
C36   C     C_R   0.292993 0.742517 0.537622 0.030860
C37   C     C_R   0.856311 0.656941 0.974398 0.111652
C38   C     C_R   0.856702 0.341797 0.474921 0.120073
C39   C     C_R   0.356515 0.157286 0.975581 0.118841
C40   C     C_R   0.356410 0.842301 0.475811 0.118072
C41   C     C_R   0.896209 0.668295 0.109553 -0.179350
C42   C     C_R   0.897824 0.328572 0.608717 -0.144303
C43   C     C_R   0.396762 0.169078 0.110158 -0.180535
C44   C     C_R   0.397412 0.829657 0.610185 -0.147498
C45   C     C_3   0.960639 0.168785 0.899363 0.231757
C46   C     C_3   0.996507 0.799624 0.484737 0.262562
C47   C     C_3   0.455578 0.659468 0.902885 0.193171
C48   C     C_3   0.512149 0.291247 0.482545 0.256974
C49   C     C_R   0.876760 0.714621 0.219739 0.067804
C50   C     C_R   0.878375 0.283526 0.721392 0.031772
C51   C     C_R   0.377342 0.215372 0.220960 0.067873
C52   C     C_R   0.380654 0.781843 0.719025 0.026117
C53   C     C_R   0.825157 0.758637 0.182830 -0.066430
C54   C     C_R   0.826136 0.240937 0.685210 -0.093111
C55   C     C_R   0.327179 0.260795 0.182150 -0.097377
C56   C     C_R   0.328660 0.738964 0.681813 -0.075954
C57   C     C_R   0.764067 0.700459 0.794738 -0.058564
C58   C     C_R   0.764453 0.298327 0.295996 -0.028586
C59   C     C_R   0.265210 0.201473 0.795068 -0.011864
C60   C     C_R   0.263487 0.799271 0.297036 -0.067221
C61   C     C_3   0.983247 0.102475 0.966284 0.429100
C62   C     C_3   0.007673 0.873723 0.496226 0.450061
C63   C     C_3   0.426607 0.597834 0.973959 0.404135
C64   C     C_3   0.539638 0.359044 0.525865 0.438371
C65   C     C_3   0.752645 0.512628 0.775281 0.734778
C66   C     C_3   0.756029 0.494292 0.267543 0.713395
C67   C     C_3   0.254821 0.008694 0.780750 0.662519
C68   C     C_3   0.254369 0.991745 0.272007 0.717064
C69   C     C_3   0.677531 0.529928 0.792450 0.039664
C70   C     C_3   0.680627 0.480756 0.271509 0.090254
C71   C     C_3   0.180554 0.024914 0.803176 0.091777
C72   C     C_3   0.179879 0.972754 0.279175 0.040563
C73   C     C_3   0.186562 0.537890 0.010971 0.325629
C74   C     C_3   0.190808 0.461172 0.501288 0.295108
C75   C     C_3   0.689914 0.038386 0.000885 0.307702
C76   C     C_3   0.691286 0.962570 0.510361 0.273541
C77   C     C_3   0.248499 0.579065 0.033621 -0.330900
C78   C     C_3   0.254304 0.420003 0.517435 -0.292143
C79   C     C_3   0.753153 0.078640 0.014274 -0.356117
C80   C     C_3   0.753266 0.919219 0.512934 -0.288871
C81   C     C_3   0.989892 0.207224 0.393200 0.432669
C82   C     C_3   0.979089 0.790634 0.927624 0.446266
C83   C     C_3   0.494388 0.705248 0.448678 0.441156
C84   C     C_3   0.484319 0.292056 0.921189 0.412591
C85   C     C_R   0.244227 0.306474 0.997556 -0.026868
C86   C     C_R   0.243426 0.695258 0.500811 -0.030971
C87   C     C_R   0.742709 0.804961 0.998771 -0.033087
C88   C     C_R   0.743242 0.195310 0.501719 -0.045690
H1    H     H_    0.955642 0.246593 0.347903 0.069524
H2    H     H_    0.950863 0.745466 0.901245 0.002069
H3    H     H_    0.461709 0.749087 0.440171 0.012138
H4    H     H_    0.452542 0.250349 0.883034 0.015542
H5    H     H_    0.674210 0.568788 0.883420 0.127129
H6    H     H_    0.665848 0.483616 0.394725 0.200229
H7    H     H_    0.170621 0.019978 0.928297 0.195869
H8    H     H_    0.177445 0.936717 0.374517 0.103198
H9    H     H_    0.165583 0.529657 0.126206 0.006070
H10   H     H_    0.169580 0.466441 0.617647 0.013474
H11   H     H_    0.669476 0.033836 0.118003 0.014229
H12   H     H_    0.676681 0.971017 0.631706 0.024661
H13   H     H_    0.149985 0.564630 0.932794 0.036847
H14   H     H_    0.155063 0.435977 0.419381 0.037803
H15   H     H_    0.653438 0.063687 0.919757 0.047059
H16   H     H_    0.650952 0.937315 0.441632 0.035352
H17   H     H_    0.286893 0.551748 0.105189 0.154735
H18   H     H_    0.290363 0.443431 0.601545 0.214145
H19   H     H_    0.790348 0.054483 0.095535 0.151233
H20   H     H_    0.795968 0.945175 0.570559 0.199131
H21   H     H_    0.237834 0.625489 0.093544 0.024152
H22   H     H_    0.243521 0.370424 0.560138 0.029395
H23   H     H_    0.742536 0.128262 0.059096 0.046252
H24   H     H_    0.745429 0.873499 0.577680 0.038772
H25   H     H_    0.267513 0.591119 0.918252 0.169467
H26   H     H_    0.277033 0.415289 0.402313 0.130935
H27   H     H_    0.774536 0.083310 0.897783 0.139802
H28   H     H_    0.765092 0.906491 0.391385 0.151406
H29   H     H_    0.924587 0.123902 0.441156 0.162190
H30   H     H_    0.885125 0.844336 0.934246 0.060422
H31   H     H_    0.409794 0.643548 0.484005 0.123645
H32   H     H_    0.399435 0.358717 0.936336 0.081678
H33   H     H_    0.922582 0.148767 0.246852 0.094919
H34   H     H_    0.918447 0.842184 0.746967 0.136655
H35   H     H_    0.426265 0.657594 0.283894 0.105900
H36   H     H_    0.429546 0.351201 0.745810 0.153510
H37   H     H_    0.076526 0.376338 0.643544 0.052119
H38   H     H_    0.074795 0.626770 0.148423 0.046462
H39   H     H_    0.577763 0.877483 0.641199 0.051148
H40   H     H_    0.577388 0.124694 0.145720 0.049531
H41   H     H_    0.190141 0.206694 0.530912 0.147975
H42   H     H_    0.188854 0.792485 0.031135 0.145939
H43   H     H_    0.692146 0.708561 0.526716 0.148584
H44   H     H_    0.688923 0.292983 0.032528 0.141162
H45   H     H_    0.809938 0.793362 0.270090 0.110853
H46   H     H_    0.811690 0.206142 0.772122 0.056266
H47   H     H_    0.314632 0.297975 0.266613 0.077531
H48   H     H_    0.315442 0.703000 0.767254 0.070660
H49   H     H_    0.936658 0.634695 0.140333 0.070213
H50   H     H_    0.939064 0.360588 0.637649 0.067050
H51   H     H_    0.437507 0.135728 0.140389 0.069773
H52   H     H_    0.437637 0.862689 0.640497 0.061961
H53   H     H_    0.237840 0.346697 0.077652 0.100638
H54   H     H_    0.236910 0.655760 0.581962 0.125440
H55   H     H_    0.735795 0.844547 0.080312 0.104046
H56   H     H_    0.736421 0.156127 0.583539 0.108739
H57   H     H_    0.769267 0.659809 0.716190 0.114455
H58   H     H_    0.770938 0.337573 0.215007 0.138748
H59   H     H_    0.271674 0.161632 0.714894 0.132478
H60   H     H_    0.269529 0.838976 0.216888 0.118801
H61   H     H_    0.994795 0.103258 0.328168 0.156070
H62   H     H_    0.954780 0.893513 0.898291 0.226707
H63   H     H_    0.479376 0.602137 0.401330 0.172216
H64   H     H_    0.476575 0.397779 0.892873 0.203224
H65   H     H_    0.003438 0.189240 0.840905 0.030933
H66   H     H_    0.027849 0.774113 0.574917 0.063941
H67   H     H_    0.508560 0.649745 0.879484 0.062309
H68   H     H_    0.533916 0.255296 0.567251 0.061539
H69   H     H_    0.916919 0.159421 0.819581 0.023915
H70   H     H_    0.014367 0.781574 0.373634 -0.046370
H71   H     H_    0.429023 0.669003 0.790037 0.011075
H72   H     H_    0.529142 0.277337 0.366720 -0.015788
H73   H     H_    0.950333 0.086751 0.058249 0.018419
H74   H     H_    0.000916 0.889911 0.617884 0.097437
H75   H     H_    0.382845 0.612457 0.040621 0.010321
H76   H     H_    0.529367 0.370398 0.647847 0.077444
H77   H     H_    0.769826 0.535699 0.668031 0.036139
H78   H     H_    0.775727 0.474958 0.158092 0.045648
H79   H     H_    0.270627 0.029308 0.669163 0.033601
H80   H     H_    0.274484 0.971391 0.164039 0.050347
O1    O     O_2   0.130070 0.404060 0.104920 -0.470003
O2    O     O_2   0.130070 0.595940 0.604920 -0.465135
O3    O     O_2   0.630070 0.904060 0.104920 -0.466706
O4    O     O_2   0.630070 0.095940 0.604920 -0.471437
O5    O     O_3   0.787478 0.467704 0.401962 -0.627474
O6    O     O_3   0.788555 0.533177 0.909305 -0.652744
O7    O     O_3   0.288701 0.969074 0.406986 -0.657091
O8    O     O_3   0.289923 0.032620 0.911645 -0.631912
O9    O     O_3   0.942750 0.213065 0.015438 -0.632952
O10   O     O_3   0.929718 0.785688 0.506052 -0.594035
O11   O     O_3   0.452669 0.711860 0.009948 -0.604464
O12   O     O_3   0.442573 0.290812 0.486066 -0.598588
O13   O     O_3   0.924190 0.533610 0.949240 -0.469491
O14   O     O_3   0.924190 0.466390 0.449240 -0.469846
O15   O     O_3   0.424190 0.033610 0.949240 -0.466506
O16   O     O_3   0.424190 0.966390 0.449240 -0.467274
O17   O     O_3   0.075780 0.466370 0.861070 -0.504236
O18   O     O_3   0.075780 0.533630 0.361070 -0.505006
O19   O     O_3   0.575780 0.966370 0.861070 -0.504543
O20   O     O_3   0.575780 0.033630 0.361070 -0.497643
O21   O     O_3   0.022320 0.344950 0.359800 -0.503576
O22   O     O_3   0.022320 0.655050 0.859800 -0.508125
O23   O     O_3   0.522320 0.844950 0.359800 -0.499028
O24   O     O_3   0.522320 0.155050 0.859800 -0.507430
O25   O     O_2   0.135803 0.300160 0.247975 -0.457856
O26   O     O_2   0.128554 0.708915 0.746363 -0.479966
O27   O     O_2   0.630620 0.793963 0.239661 -0.452607
O28   O     O_2   0.631720 0.205197 0.747337 -0.494991
O29   O     O_3   0.205000 0.478320 0.943948 -0.606034
O30   O     O_3   0.207096 0.522499 0.443262 -0.615240
O31   O     O_3   0.706555 0.976595 0.943381 -0.628499
O32   O     O_3   0.706634 0.022002 0.441372 -0.622926
O33   O     O_3   0.052412 0.211795 0.327077 -0.573862
O34   O     O_3   0.039267 0.791242 0.849422 -0.587622
O35   O     O_3   0.547592 0.710159 0.347792 -0.558510
O36   O     O_3   0.546155 0.290086 0.850241 -0.609017
O37   O     O_2   0.869860 0.403670 0.205810 -0.499845
O38   O     O_2   0.869860 0.596330 0.705810 -0.502581
O39   O     O_2   0.369860 0.903670 0.205810 -0.503998
O40   O     O_2   0.369860 0.096330 0.705810 -0.502336
O41   O     O_3   0.977590 0.344880 0.951200 -0.466511
O42   O     O_3   0.977590 0.655120 0.451200 -0.493109
O43   O     O_3   0.477590 0.844880 0.951200 -0.453197
O44   O     O_3   0.477590 0.155120 0.451200 -0.500817
O45   O     O_2   0.859075 0.308642 0.028066 -0.444300
O46   O     O_2   0.854323 0.687124 0.522055 -0.426750
O47   O     O_2   0.362855 0.802022 0.032041 -0.441029
O48   O     O_2   0.360053 0.197850 0.535095 -0.451611
P1    P     P_3+3 0.136530 0.426510 0.931350 0.978037
P2    P     P_3+3 0.136530 0.573490 0.431350 0.977266
P3    P     P_3+3 0.636530 0.926510 0.931350 0.971467
P4    P     P_3+3 0.636530 0.073490 0.431350 0.971748
P5    P     P_3+3 0.863410 0.426100 0.379280 1.084461
P6    P     P_3+3 0.863410 0.573900 0.879280 1.059258
P7    P     P_3+3 0.363410 0.926100 0.379280 1.062842
P8    P     P_3+3 0.363410 0.073900 0.879280 1.078831
P9    P     P_3+3 0.915415 0.286164 0.924239 0.987719
P10   P     P_3+3 0.910918 0.710260 0.421968 1.026303
P11   P     P_3+3 0.418674 0.783240 0.922160 1.012631
P12   P     P_3+3 0.414657 0.214134 0.421554 0.987926
P13   P     P_3+3 0.081622 0.716140 0.883394 0.962092
P14   P     P_3+3 0.086944 0.287722 0.377612 1.004914
P15   P     P_3+3 0.584445 0.213463 0.883138 0.943824
P16   P     P_3+3 0.585444 0.786326 0.379115 1.000946
N1    N     N_3   0.638766 0.474158 0.842290 -0.438936
H81   H     H_    0.592715 0.491480 0.877367 0.213867
H82   H     H_    0.628526 0.443764 0.746404 0.261457
N2    N     N_3   0.640338 0.527967 0.178057 -0.470538
H83   H     H_    0.633541 0.570102 0.245181 0.248600
H84   H     H_    0.592572 0.509380 0.159006 0.240048
N3    N     N_3   0.135414 0.981882 0.714362 -0.456732
H85   H     H_    0.154090 0.973126 0.605721 0.189293
H86   H     H_    0.132842 0.937032 0.771860 0.268508
N4    N     N_3   0.135623 0.028134 0.311841 -0.439337
H87   H     H_    0.148264 0.046804 0.421574 0.207752
H88   H     H_    0.087708 0.010314 0.323738 0.218116
N5    N     N_3   0.648235 0.556418 0.646409 -0.485529
H89   H     H_    0.597131 0.561974 0.658035 0.210505
H90   H     H_    0.665509 0.603966 0.635517 0.168801
N6    N     N_3   0.668010 0.414524 0.214672 -0.529065
H91   H     H_    0.618158 0.404148 0.226708 0.264334
H92   H     H_    0.673683 0.413590 0.095079 0.237958
N7    N     N_3   0.166243 0.092948 0.761692 -0.507742
H93   H     H_    0.170013 0.098712 0.642010 0.180740
H94   H     H_    0.117028 0.104023 0.784555 0.256578
N8    N     N_3   0.156994 0.940517 0.134245 -0.486393
H95   H     H_    0.167043 0.890669 0.145894 0.174357
H96   H     H_    0.105383 0.944125 0.118565 0.266695
N9    N     N_3   0.998240 0.213339 0.561358 -0.550115
H97   H     H_    0.036404 0.181338 0.599581 0.213083
H98   H     H_    0.954070 0.199050 0.607066 0.118814
N10   N     N_3   0.994118 0.797275 0.094367 -0.453989
H99   H     H_    0.951659 0.812824 0.149153 0.200524
H100  H     H_    0.004649 0.750349 0.136549 0.069828
N11   N     N_3   0.519010 0.694891 0.609407 -0.552564
H101  H     H_    0.523195 0.739882 0.666718 0.097267
H102  H     H_    0.565669 0.672081 0.611379 0.175275
N12   N     N_3   0.495610 0.292197 0.090113 -0.444841
H103  H     H_    0.452303 0.307193 0.142311 0.160184
H104  H     H_    0.503986 0.244041 0.125914 0.084484
S1    S     S_3+6 0.977519 0.040855 0.818734 -0.110741
O49   O     O_2   0.020338 0.983942 0.871673 -0.335647
O50   O     O_2   0.906660 0.019317 0.794622 -0.288578
O51   O     O_3   0.004635 0.069784 0.650728 -0.552512
H105  H     H_    0.028317 0.032975 0.602040 0.392635
S2    S     S_3+6 0.950668 0.921337 0.371615 -0.090478
O52   O     O_2   0.888048 0.884785 0.331769 -0.343338
O53   O     O_2   0.932117 0.983208 0.454118 -0.255495
O54   O     O_3   0.986252 0.940774 0.205113 -0.543454
H106  H     H_    0.952497 0.967918 0.146823 0.374899
S3    S     S_3+6 0.399695 0.541368 0.824784 -0.103643
O55   O     O_2   0.365455 0.485111 0.897814 -0.296195
O56   O     O_2   0.352249 0.573568 0.707295 -0.347960
O57   O     O_3   0.466437 0.513310 0.734733 -0.460639
H107  H     H_    0.482073 0.551628 0.677312 0.343898
S4    S     S_3+6 0.500246 0.424878 0.416789 -0.074843
O58   O     O_2   0.430075 0.433031 0.467235 -0.253138
O59   O     O_2   0.537296 0.486749 0.452163 -0.318798
O60   O     O_3   0.498841 0.412406 0.223493 -0.554228
H108  H     H_    0.453065 0.424049 0.185195 0.358794
N13   N     N_3   0.052097 0.105576 0.026286 -0.485334
H109  H     H_    0.062869 0.062412 0.086606 0.227123
H110  H     H_    0.057202 0.143751 0.105925 0.224233
N14   N     N_3   0.075680 0.887811 0.458706 -0.521504
H111  H     H_    0.108025 0.862886 0.537718 0.166531
H112  H     H_    0.084234 0.868819 0.347978 0.187215
N15   N     N_3   0.476284 0.564698 0.076544 -0.475528
H113  H     H_    0.451209 0.538780 0.160048 0.217065
H114  H     H_    0.505898 0.598968 0.136690 0.183242
N16   N     N_3   0.611769 0.359617 0.513883 -0.465445
H115  H     H_    0.632838 0.334822 0.610990 0.209368
H116  H     H_    0.625257 0.331873 0.417841 0.162570
S5    S     S_3+6 0.771374 0.428167 0.765046 -0.099326
O61   O     O_2   0.749560 0.391194 0.903790 -0.352225
O62   O     O_2   0.741300 0.397751 0.619913 -0.333907
O63   O     O_3   0.854359 0.427319 0.768088 -0.588956
H117  H     H_    0.868756 0.424419 0.879748 0.363621
S6    S     S_3+6 0.772771 0.578098 0.283217 -0.114225
O64   O     O_2   0.746881 0.614658 0.141619 -0.344276
O65   O     O_2   0.742822 0.606997 0.424590 -0.368922
O66   O     O_3   0.855531 0.579644 0.304829 -0.581350
H118  H     H_    0.865455 0.572142 0.417172 0.376326
S7    S     S_3+6 0.272222 0.923750 0.785299 -0.129003
O67   O     O_2   0.243677 0.891692 0.923332 -0.360115
O68   O     O_2   0.246131 0.890357 0.639713 -0.370274
O69   O     O_3   0.355091 0.919424 0.804199 -0.570245
H119  H     H_    0.365754 0.923707 0.917285 0.376839
S8    S     S_3+6 0.269713 0.076526 0.275049 -0.091378
O70   O     O_2   0.239490 0.110088 0.133089 -0.304924
O71   O     O_2   0.246016 0.109541 0.418842 -0.371914
O72   O     O_3   0.352635 0.077623 0.283361 -0.588830
H120  H     H_    0.365854 0.077128 0.395885 0.368925

loop_
_geom_bond_atom_site_label_1
_geom_bond_atom_site_label_2
_ccdc_geom_bond_type
N7    H94   S    
C51   C55   A    
C74   C78   S    
C73   H9    S    
O60   H108  S    
C30   C38   A    
O16   P7    S    
C75   H11   S    
C25   C85   A    
C80   H20   S    
C60   H60   S    
O34   P13   S    
C68   H80   S    
C47   O11   S    
C88   H56   S    
Ba3   O43   S    
C34   C88   A    
S1    O51   S    
C44   H52   S    
Ba1   P1    S    
C79   H27   S    
C5    C9    A    
C7    C11   A    
C8    C12   A    
O2    P2    D    
C66   C70   S    
C50   P9    S    
C76   C80   S    
Ba1   O18   S    
Ba4   O19   S    
C84   O36   S    
C17   H41   S    
C21   C25   A    
S6    O65   D    
Ba2   O38   S    
C23   C27   A    
O72   H120  S    
S4    O60   S    
C24   C28   A    
C63   S3    S    
C7    P3    S    
C33   C87   A    
Ba1   O37   S    
C13   C17   A    
C15   C19   A    
C65   O6    S    
C6    C26   A    
C62   N14   S    
C12   C16   A    
C78   H22   S    
N14   H111  S    
Ba2   O42   S    
N5    H90   S    
N12   H104  S    
O23   P16   S    
C32   C40   A    
C78   H26   S    
O19   P3    S    
O21   P14   S    
O41   P9    S    
Ba2   P6    S    
C10   H38   S    
C63   H75   S    
Ba4   O24   S    
C37   P6    S    
C58   H58   S    
C51   P12   S    
C48   O12   S    
C43   H51   S    
C3    H31   S    
Ba3   O15   S    
O24   P15   S    
Ba1   O13   S    
C72   H8    S    
C74   H14   S    
Ba4   O16   S    
C28   C88   A    
C70   N2    S    
C40   P7    S    
C6    P2    S    
C29   C57   A    
O3    P3    D    
C31   C59   A    
C32   C60   A    
C57   H57   S    
C35   C85   A    
C33   C53   A    
C40   C44   A    
S4    O59   D    
N6    H91   S    
C48   H68   S    
Ba4   O44   S    
C77   H25   S    
C46   H70   S    
O29   P1    S    
C15   P16   S    
C87   H55   S    
C81   O33   S    
C70   H6    S    
C13   P14   S    
C46   H66   S    
C85   H53   S    
Ba1   O1    S    
N5    H89   S    
C71   N7    S    
O18   P2    S    
N9    H97   S    
C81   H1    S    
O10   P10   S    
O46   P10   D    
N10   H99   S    
S5    O62   D    
C83   H3    S    
C31   C39   A    
C45   H69   S    
Ba2   P2    S    
C49   P10   S    
C1    C81   S    
C54   H46   S    
C41   C49   A    
C80   H24   S    
N1    H81   S    
S3    O57   S    
O38   P6    D    
C45   H65   S    
C46   O10   S    
C69   N5    S    
Ba3   O39   S    
N16   H116  S    
C61   S1    S    
C79   H23   S    
C6    C10   A    
C65   H77   S    
C52   P11   S    
C4    C84   S    
S8    O71   D    
C67   O8    S    
N13   H109  S    
C4    H36   S    
C71   H7    S    
C53   H45   S    
C47   C63   S    
C47   H71   S    
C56   H48   S    
C45   O9    S    
C64   H76   S    
C22   C26   A    
C27   C87   A    
N15   H114  S    
C18   C22   A    
C67   H79   S    
Ba3   Ba4   S    
O11   P11   S    
C39   P8    S    
C64   N16   S    
N4    H87   S    
S7    O69   S    
Ba3   P3    S    
O4    P4    D    
C63   N15   S    
C14   C18   A    
C20   C24   A    
O47   P11   D    
O26   P13   D    
C73   O29   S    
N11   H101  S    
C66   O5    S    
C76   H16   S    
C2    C82   S    
C9    C13   A    
C36   C86   A    
N8    H95   S    
Ba2   O13   S    
Ba3   O20   S    
O14   P5    S    
C39   C43   A    
N2    H83   S    
S1    O50   D    
O7    P7    S    
O5    P5    S    
C11   H39   S    
O51   H105  S    
C1    H33   S    
S3    O55   D    
C9    H37   S    
S2    O52   D    
C3    H35   S    
C83   N11   S    
C24   C58   A    
C84   H4    S    
C74   H10   S    
O28   P15   D    
C26   C86   A    
O1    P1    D    
C42   H50   S    
C11   C15   A    
C76   H12   S    
C36   C56   A    
O33   P14   S    
N3    H85   S    
C61   H73   S    
C30   C58   A    
C38   C42   A    
C82   N10   S    
O30   P2    S    
C8    P4    S    
C17   C21   A    
C34   C54   A    
C3    C83   S    
S2    O54   S    
C65   C69   S    
N14   H112  S    
S7    O67   D    
C41   H49   S    
O37   P5    D    
C2    H34   S    
C49   C53   A    
C4    H32   S    
O8    P8    S    
C29   C33   A    
C52   C56   A    
Ba2   O22   S    
C31   C35   A    
N15   H113  S    
S8    O72   S    
C73   C77   S    
C80   H28   S    
C16   P15   S    
C35   C55   A    
C42   C50   A    
C75   H15   S    
O36   P15   S    
C59   H59   S    
C2    H62   S    
C48   H72   S    
Ba3   O3    S    
C77   H17   S    
Ba1   O41   S    
C79   H19   S    
O22   P13   S    
O42   P10   S    
Ba3   P7    S    
N6    H92   S    
Ba1   P5    S    
S6    O64   D    
C70   N6    S    
C19   H43   S    
C29   C37   A    
C73   H13   S    
C66   H78   S    
C37   C41   A    
O27   P16   D    
S4    O58   D    
C75   C79   S    
N11   H102  S    
O66   H118  S    
C76   O32   S    
Ba4   P8    S    
C12   H40   S    
Ba3   O23   S    
O40   P8    D    
C5    P1    S    
C3    H63   S    
N10   H100  S    
S5    O61   D    
Ba4   O4    S    
C77   H21   S    
N12   H103  S    
C65   S5    S    
C66   S6    S    
S6    O66   S    
S3    O56   D    
C10   C14   A    
Ba1   O21   S    
Ba2   O17   S    
C68   C72   S    
Ba3   O16   S    
C82   O34   S    
C14   P13   S    
Ba1   O14   S    
C69   H5    S    
C45   C61   S    
C18   H42   S    
O43   P11   S    
C78   H18   S    
Ba4   O15   S    
O57   H107  S    
O17   P1    S    
C1    H29   S    
Ba1   Ba2   S    
C21   C59   A    
C22   C60   A    
C82   H2    S    
O45   P9    D    
C64   S4    S    
C16   C20   A    
O9    P9    S    
N3    H86   S    
C19   C23   A    
C23   C57   A    
O20   P4    S    
C48   C64   S    
C5    C25   A    
N13   H110  S    
C7    C27   A    
O39   P7    D    
O32   P4    S    
C68   S8    S    
O35   P16   S    
N4    H88   S    
S7    O68   D    
O48   P12   D    
O31   P3    S    
C32   C36   A    
O12   P12   S    
C55   H47   S    
N9    H98   S    
O54   H106  S    
Ba4   P4    S    
C72   N8    S    
N8    H96   S    
Ba2   O14   S    
C69   N1    S    
O69   H119  S    
S5    O63   S    
N2    H84   S    
S1    O49   D    
C46   C62   S    
C83   O35   S    
C75   O31   S    
N1    H82   S    
S2    O53   D    
C2    H30   S    
N7    H93   S    
O63   H117  S    
C43   C51   A    
C50   C54   A    
C38   P5    S    
C84   N12   S    
C44   C52   A    
N16   H115  S    
C30   C34   A    
C72   N4    S    
C74   O30   S    
C62   H74   S    
C81   N9    S    
O25   P14   D    
Ba4   O40   S    
S8    O70   D    
C86   H54   S    
Ba2   O2    S    
C67   C71   S    
O15   P8    S    
C20   H44   S    
C1    H61   S    
O13   P6    S    
C47   H67   S    
O44   P12   S    
C62   S2    S    
C4    H64   S    
O6    P6    S    
C71   N3    S    
C61   N13   S    
C68   O7    S    
C8    C28   A    
C67   S7    S    
