data_mof_unit_23613.cif
_audit_creation_date              2012-12-11T16:24:06-0500
_audit_creation_method            fapswitch 2.2
_symmetry_space_group_name_H-M    P1
_symmetry_Int_Tables_number       1
_space_group_crystal_system       triclinic
_cell_length_a                    14.70769
_cell_length_b                    14.719302
_cell_length_c                    33.274364
_cell_angle_alpha                 96.215304
_cell_angle_beta                  96.399559
_cell_angle_gamma                 61.399323
_cell_volume                      6272.61164318

loop_
_atom_site_label
_atom_site_type_symbol
_atom_type_description
_atom_site_fract_x
_atom_site_fract_y
_atom_site_fract_z
_atom_type_partial_charge
C1    C     C_R   0.390521 0.700608 0.446189 0.538753
C2    C     C_R   0.345330 0.351044 0.307293 0.005252
C3    C     C_R   0.394426 0.262161 0.329273 -0.116577
C4    C     C_R   0.410045 0.271243 0.371565 0.126246
C5    C     C_R   0.409839 0.277734 0.161534 0.253740
C6    C     C_R   0.395136 0.262652 0.119228 0.131668
C7    C     C_R   0.207986 0.352560 0.124697 -0.166322
C8    C     C_R   0.221881 0.371650 0.166137 0.229941
C9    C     C_R   0.322522 0.329959 0.184788 0.026460
C10   C     C_1   0.334043 0.337171 0.227985 0.055308
C11   C     C_1   0.339960 0.342579 0.264212 -0.009804
C12   C     C_R   0.405955 0.386543 0.433965 0.566754
C13   C     C_R   0.293436 0.295523 0.101156 -0.045485
C14   C     C_R   0.750744 0.374373 0.408685 -0.023587
C15   C     C_R   0.781571 0.436127 0.390665 -0.154186
C16   C     C_R   0.801986 0.417764 0.349848 -0.167845
C17   C     C_R   0.793002 0.336735 0.326515 0.042216
C18   C     C_R   0.768769 0.270111 0.345114 0.274861
C19   C     C_R   0.750713 0.287789 0.386292 -0.108857
C20   C     C_R   0.808540 0.312959 0.200889 0.354016
C21   C     C_R   0.800894 0.327751 0.282537 0.352589
C22   C     C_R   0.822956 0.389806 0.141070 -0.143592
C23   C     C_R   0.700376 0.409986 0.447313 0.552230
C24   C     C_R   0.861900 0.380312 0.103360 0.232612
C25   C     C_R   0.882574 0.204518 0.093230 0.114460
C26   C     C_R   0.848623 0.213340 0.132256 0.139330
C27   C     C_R   0.824229 0.305149 0.157182 -0.021902
C28   C     C_R   0.898055 0.284616 0.080250 0.023419
C29   C     C_R   0.369735 0.754876 0.408538 -0.039977
C30   C     C_R   0.285948 0.761953 0.381903 -0.144240
C31   C     C_R   0.276748 0.786080 0.341534 0.116133
C32   C     C_R   0.356267 0.799749 0.327315 0.015938
C33   C     C_R   0.435272 0.803754 0.354935 0.142325
C34   C     C_R   0.393732 0.701412 0.561356 0.541482
C35   C     C_R   0.440107 0.784132 0.395891 0.156349
C36   C     C_R   0.355652 0.819588 0.202844 0.338815
C37   C     C_R   0.357561 0.806246 0.283452 0.335894
C38   C     C_R   0.270129 0.820174 0.134004 -0.124673
C39   C     C_R   0.246080 0.854753 0.094885 -0.134159
C40   C     C_R   0.381370 0.906188 0.104976 -0.129853
C41   C     C_R   0.403891 0.873576 0.144217 -0.120235
C42   C     C_R   0.345950 0.833891 0.159436 0.042837
C43   C     C_R   0.298922 0.901730 0.080668 0.025187
C44   C     C_R   0.373161 0.370833 0.586043 -0.007404
C45   C     C_R   0.407695 0.389173 0.549261 0.536782
C46   C     C_R   0.291286 0.452742 0.606210 -0.146065
C47   C     C_R   0.274452 0.443885 0.645611 -0.160384
C48   C     C_R   0.338852 0.352937 0.665586 0.053422
C49   C     C_R   0.414264 0.266111 0.643897 0.135807
C50   C     C_R   0.431479 0.276457 0.604468 -0.130133
C51   C     C_R   0.323561 0.357663 0.790791 0.329557
C52   C     C_R   0.332610 0.353587 0.709570 0.349749
C53   C     C_R   0.220782 0.408289 0.851878 -0.129469
C54   C     C_R   0.208232 0.385908 0.889918 -0.131604
C55   C     C_R   0.388190 0.253212 0.894397 -0.132981
C56   C     C_R   0.661599 0.436028 0.566561 0.561647
C57   C     C_R   0.400849 0.275853 0.856483 -0.124364
C58   C     C_R   0.315915 0.350049 0.834006 0.029787
C59   C     C_R   0.290543 0.304733 0.910602 0.022537
C60   C     C_R   0.694708 0.413393 0.609687 -0.032101
C61   C     C_R   0.748111 0.459497 0.634764 0.280119
C62   C     C_R   0.767918 0.443100 0.676467 0.301598
C63   C     C_R   0.733411 0.381768 0.693153 -0.005420
C64   C     C_R   0.683457 0.334296 0.668205 -0.179700
C65   C     C_R   0.664460 0.349790 0.626927 -0.201002
C66   C     C_R   0.860041 0.230934 0.823978 -0.123233
C67   C     C_R   0.373455 0.370894 0.391542 0.046650
C68   C     C_R   0.906667 0.207666 0.863201 0.254884
C69   C     C_R   0.834581 0.392392 0.881674 -0.143060
C70   C     C_R   0.785676 0.415669 0.842713 0.144035
C71   C     C_R   0.801841 0.333640 0.813370 -0.008621
C72   C     C_1   0.769995 0.352071 0.771324 -0.024598
C73   C     C_1   0.750312 0.366141 0.735764 0.003371
C74   C     C_R   0.897916 0.289160 0.891891 -0.010314
C75   C     C_R   0.379319 0.751738 0.602823 0.034860
C76   C     C_R   0.280299 0.804890 0.618856 0.136175
C77   C     C_R   0.273693 0.826625 0.660905 -0.098486
C78   C     C_R   0.317289 0.459244 0.368971 -0.164628
C79   C     C_R   0.363583 0.798575 0.686674 0.003857
C80   C     C_R   0.460495 0.753405 0.670621 -0.130519
C81   C     C_R   0.468380 0.730475 0.629026 -0.163368
C82   C     C_R   0.397382 0.878596 0.833118 -0.178433
C83   C     C_R   0.376067 0.911272 0.873485 -0.151272
C84   C     C_R   0.237085 0.865128 0.865598 -0.086926
C85   C     C_R   0.260156 0.829565 0.825274 0.291225
C86   C     C_R   0.337253 0.841428 0.808605 0.040076
C87   C     C_1   0.349210 0.823936 0.765785 0.022943
C88   C     C_1   0.356517 0.812314 0.729745 -0.010098
C89   C     C_R   0.304194 0.449240 0.327107 -0.124738
C90   C     C_R   0.292996 0.908770 0.889663 -0.021135
C91   C     C_R   0.961473 0.264900 0.045215 0.570960
C92   C     C_R   0.273722 0.260264 0.059610 0.570234
C93   C     C_R   0.259453 0.959516 0.043776 0.540652
C94   C     C_R   0.961523 0.267742 0.930872 0.559621
C95   C     C_R   0.270932 0.264219 0.945417 0.547075
C96   C     C_R   0.256462 0.964161 0.929101 0.556633
Cr1   Cr    Cr6+3 0.576280 0.580550 0.506370 1.008003
Cr2   Cr    Cr6+3 0.346780 0.572400 0.496520 1.013117
Cr3   Cr    Cr6+3 0.576960 0.347070 0.497150 1.008172
Cr4   Cr    Cr6+3 0.087320 0.083240 0.984860 1.039236
Cr5   Cr    Cr6+3 0.087720 0.316210 0.996740 1.029876
Cr6   Cr    Cr6+3 0.317350 0.090340 0.995890 1.007788
H1    H     H_    0.728889 0.237931 0.399749 0.128867
H2    H     H_    0.821441 0.469145 0.336118 0.137395
H3    H     H_    0.795919 0.462871 0.158820 0.145840
H4    H     H_    0.229665 0.744443 0.392532 0.141594
H5    H     H_    0.182505 0.849990 0.076691 0.124609
H6    H     H_    0.224450 0.789761 0.145292 0.121461
H7    H     H_    0.423972 0.941387 0.094783 0.119804
H8    H     H_    0.463478 0.883711 0.163298 0.118779
H9    H     H_    0.244600 0.526382 0.592681 0.147209
H10   H     H_    0.493270 0.211662 0.588842 0.123473
H11   H     H_    0.132191 0.427578 0.901816 0.134573
H12   H     H_    0.215204 0.510903 0.661343 0.139240
H13   H     H_    0.423694 0.186055 0.313556 0.104787
H14   H     H_    0.154287 0.467089 0.835580 0.131419
H15   H     H_    0.453418 0.191219 0.909918 0.125539
H16   H     H_    0.475717 0.230733 0.843863 0.131484
H17   H     H_    0.873831 0.168143 0.801140 0.132685
H18   H     H_    0.657534 0.286397 0.680802 0.150399
H19   H     H_    0.622905 0.314291 0.608588 0.155867
H20   H     H_    0.826502 0.455520 0.903540 0.147055
H21   H     H_    0.420627 0.944391 0.891226 0.143092
H22   H     H_    0.457789 0.886724 0.820537 0.123055
H23   H     H_    0.530446 0.732010 0.690403 0.144934
H24   H     H_    0.545207 0.689744 0.617783 0.170960
H25   H     H_    0.172636 0.862564 0.877357 0.140321
H26   H     H_    0.198477 0.863677 0.673567 0.117726
H27   H     H_    0.288987 0.536675 0.383357 0.135642
H28   H     H_    0.129680 0.378310 0.111350 0.156470
H29   H     H_    0.265221 0.518180 0.310067 0.136593
H30   H     H_    0.784720 0.501800 0.407509 0.126121
N1    N     N_R   0.766360 0.406968 0.221685 -0.230516
N2    N     N_R   0.243146 0.417730 0.727512 -0.259304
N3    N     N_R   0.417978 0.293667 0.733139 -0.185033
N4    N     N_R   0.413403 0.295177 0.772881 -0.240118
N5    N     N_R   0.762347 0.414279 0.261686 -0.238046
N6    N     N_R   0.842957 0.233741 0.261936 -0.171783
N7    N     N_R   0.847524 0.226637 0.221956 -0.226931
N8    N     N_R   0.336632 0.747479 0.216733 -0.231420
N9    N     N_R   0.338446 0.740416 0.256362 -0.201286
N10   N     N_R   0.375980 0.878594 0.269465 -0.245050
N11   N     N_R   0.375487 0.884852 0.229896 -0.238000
N12   N     N_R   0.238544 0.419212 0.767320 -0.255246
O1    O     O_R   0.679450 0.499830 0.463150 -0.523064
O2    O     O_R   0.356040 0.477400 0.534170 -0.499378
O3    O     O_R   0.495910 0.323070 0.537100 -0.528927
O4    O     O_R   0.663920 0.359620 0.542290 -0.506762
O5    O     O_3   0.500010 0.500010 0.500010 -0.257398
O6    O     O_R   0.170070 0.978950 0.027680 -0.514278
O7    O     O_R   0.001760 0.175230 0.026640 -0.479941
O8    O     O_R   0.984760 0.333570 0.037150 -0.465505
O9    O     O_R   0.183410 0.309240 0.041890 -0.511121
O10   O     O_R   0.340240 0.172500 0.045430 -0.491990
O11   O     O_R   0.309670 0.000990 0.032050 -0.509376
O12   O     O_R   0.480650 0.664000 0.464630 -0.488901
O13   O     O_R   0.168330 0.982130 0.939200 -0.496701
O14   O     O_R   0.000140 0.178170 0.944610 -0.454102
O15   O     O_R   0.983010 0.336750 0.948660 -0.528634
O16   O     O_R   0.181800 0.312190 0.959860 -0.501765
O17   O     O_R   0.338500 0.175680 0.956950 -0.519908
O18   O     O_R   0.308050 0.003930 0.950020 -0.502840
O19   O     O_3   0.164130 0.163270 0.992500 -0.248060
O20   O     O_R   0.323930 0.675950 0.455370 -0.527476
O21   O     O_R   0.354700 0.475360 0.451930 -0.511542
O22   O     O_R   0.494470 0.320860 0.448390 -0.488452
O23   O     O_R   0.662580 0.357570 0.460050 -0.503585
O24   O     O_R   0.680900 0.502040 0.551870 -0.471104
O25   O     O_R   0.481990 0.666040 0.546870 -0.525793
O26   O     O_R   0.325370 0.678160 0.544080 -0.474639
N13   N     N_2   0.481599 0.218821 0.094732 -0.482437
H31   H     H_    0.526189 0.256332 0.099092 0.268449
C97   C     C_3   0.543618 0.107047 0.093673 -0.264192
H32   H     H_    0.610943 0.084650 0.116353 0.138147
H33   H     H_    0.573640 0.078306 0.063183 0.140785
H34   H     H_    0.497239 0.069162 0.099735 0.147962
O27   O     O_3   0.859693 0.464801 0.087155 -0.539769
C98   C     C_3   0.895360 0.520555 0.115950 -0.118999
H35   H     H_    0.958347 0.469753 0.137566 0.146760
H36   H     H_    0.829660 0.581968 0.132616 0.116304
H37   H     H_    0.927517 0.559451 0.099624 0.132525
O28   O     O_3   0.759102 0.189583 0.323083 -0.558640
C99   C     C_3   0.653931 0.225485 0.309364 -0.114727
H38   H     H_    0.628685 0.286107 0.287281 0.152224
H39   H     H_    0.602200 0.255773 0.334920 0.112420
H40   H     H_    0.644999 0.159588 0.293579 0.131876
N14   N     N_2   0.898530 0.116476 0.066461 -0.476448
H41   H     H_    0.931451 0.046584 0.079636 0.263299
C100  C     C_3   0.810083 0.132018 0.038703 -0.287389
H42   H     H_    0.743848 0.143931 0.055672 0.149365
H43   H     H_    0.830998 0.062650 0.017352 0.123905
H44   H     H_    0.786520 0.200259 0.020778 0.147048
N15   N     N_2   0.832224 0.132839 0.144732 -0.513899
H45   H     H_    0.768212 0.156200 0.161072 0.275093
C101  C     C_3   0.923729 0.040332 0.158083 -0.295623
H46   H     H_    0.922887 0.032893 0.190870 0.174148
H47   H     H_    0.996679 0.041356 0.152905 0.159551
H48   H     H_    0.923482 0.971185 0.141187 0.125368
N16   N     N_2   0.514501 0.796342 0.424167 -0.502271
H49   H     H_    0.493611 0.821362 0.453499 0.246418
C102  C     C_3   0.623054 0.723555 0.419828 -0.250779
H50   H     H_    0.657500 0.681290 0.447837 0.153762
H51   H     H_    0.665141 0.766705 0.415105 0.141843
H52   H     H_    0.633676 0.666185 0.393755 0.167535
O29   O     O_3   0.509288 0.245953 0.179317 -0.560122
C103  C     C_3   0.544417 0.150854 0.197141 -0.125698
H53   H     H_    0.521593 0.096470 0.178470 0.100948
H54   H     H_    0.516429 0.164170 0.227921 0.116072
H55   H     H_    0.630467 0.112091 0.200546 0.138365
N17   N     N_2   0.189930 0.795257 0.314470 -0.494649
H56   H     H_    0.163144 0.853489 0.294689 0.269545
C104  C     C_3   0.108605 0.779864 0.328268 -0.304443
H57   H     H_    0.050929 0.786878 0.302602 0.145692
H58   H     H_    0.068254 0.839650 0.352587 0.149019
H59   H     H_    0.141251 0.700865 0.339181 0.140386
N18   N     N_2   0.515063 0.819768 0.341577 -0.501844
H60   H     H_    0.540794 0.785766 0.313518 0.267313
C105  C     C_3   0.500719 0.924297 0.348789 -0.287739
H61   H     H_    0.568110 0.927757 0.338440 0.130770
H62   H     H_    0.495658 0.947877 0.381621 0.171833
H63   H     H_    0.428940 0.979464 0.331968 0.162409
N19   N     N_2   0.475319 0.169410 0.661837 -0.498536
H64   H     H_    0.546881 0.124606 0.650160 0.243882
C106  C     C_3   0.420734 0.110638 0.664266 -0.284320
H65   H     H_    0.472158 0.039208 0.680321 0.153631
H66   H     H_    0.398042 0.088114 0.633340 0.130490
H67   H     H_    0.350257 0.156601 0.681391 0.164825
O30   O     O_3   0.972887 0.105502 0.871471 -0.533319
C107  C     C_3   0.913063 0.056242 0.876036 -0.093686
H68   H     H_    0.871004 0.049242 0.846933 0.109547
H69   H     H_    0.857592 0.097388 0.900101 0.100211
H70   H     H_    0.966092 0.976621 0.885478 0.139925
O31   O     O_3   0.775466 0.526126 0.619506 -0.526680
C108  C     C_3   0.875877 0.467765 0.605420 -0.081261
H71   H     H_    0.881563 0.403466 0.583088 0.111412
H72   H     H_    0.935370 0.436634 0.630948 0.115247
H73   H     H_    0.893732 0.519693 0.589838 0.141494
N20   N     N_2   0.726837 0.521487 0.833005 -0.510204
H74   H     H_    0.720472 0.534960 0.802804 0.272583
C109  C     C_3   0.628860 0.578349 0.851623 -0.305534
H75   H     H_    0.590816 0.660558 0.843765 0.147582
H76   H     H_    0.641060 0.576607 0.885137 0.151015
H77   H     H_    0.576686 0.544631 0.840374 0.146545
N21   N     N_2   0.460160 0.180782 0.393867 -0.503199
H78   H     H_    0.423031 0.135967 0.388795 0.238967
C110  C     C_3   0.570653 0.120146 0.389536 -0.292320
H79   H     H_    0.603759 0.054293 0.409483 0.138722
H80   H     H_    0.609835 0.168228 0.398594 0.177956
H81   H     H_    0.586245 0.088829 0.357706 0.116647
O32   O     O_3   0.813628 0.494840 0.700768 -0.544430
C111  C     C_3   0.916556 0.424109 0.713594 -0.107723
H82   H     H_    0.953538 0.353449 0.692735 0.082666
H83   H     H_    0.918858 0.400855 0.744456 0.139124
H84   H     H_    0.964724 0.463990 0.715451 0.159942
N22   N     N_2   0.187658 0.832976 0.593301 -0.494875
H85   H     H_    0.125292 0.841560 0.607804 0.242468
C112  C     C_3   0.160464 0.918881 0.568740 -0.292200
H86   H     H_    0.143401 0.990457 0.588415 0.127767
H87   H     H_    0.090369 0.932331 0.548536 0.143086
H88   H     H_    0.224480 0.901876 0.549490 0.154579
O33   O     O_3   0.199879 0.793796 0.801011 -0.561502
C113  C     C_3   0.235749 0.689201 0.808550 -0.117721
H89   H     H_    0.224243 0.681298 0.840233 0.103115
H90   H     H_    0.318840 0.640583 0.802009 0.121667
H91   H     H_    0.190102 0.659008 0.788067 0.169894
O34   O     O_3   0.136241 0.421959 0.188970 -0.561624
C114  C     C_3   0.103843 0.529175 0.190785 -0.132505
H92   H     H_    0.081319 0.559750 0.160043 0.095732
H93   H     H_    0.165002 0.547092 0.206322 0.136998
H94   H     H_    0.034370 0.570117 0.208687 0.139509

loop_
_geom_bond_atom_site_label_1
_geom_bond_atom_site_label_2
_ccdc_geom_bond_type
C8    C9    A    
C47   H12   S    
C66   C68   A    
N13   H31   S    
N22   C112  S    
N1    N5    A    
C94   O15   A    
C55   C59   A    
C81   H24   S    
C100  H44   S    
C52   N2    A    
C41   C42   A    
C74   C94   S    
C36   C42   S    
N6    N7    A    
C21   N5    A    
Cr3   O4    S    
C106  H65   S    
C49   C50   A    
C113  H91   S    
C7    C13   A    
C98   H35   S    
C57   C58   A    
C35   N16   S    
C7    C8    A    
C97   H32   S    
C110  H81   S    
C25   C28   A    
C39   H5    S    
N15   H45   S    
N13   C97   S    
C26   C27   A    
C62   C63   A    
C108  H72   S    
C5    C6    A    
C20   N7    A    
C36   N11   A    
N18   C105  S    
C38   C42   A    
C107  H70   S    
C99   H39   S    
C85   C86   A    
C30   C31   A    
C49   N19   S    
C114  H94   S    
C103  H54   S    
C98   H36   S    
C111  H83   S    
C80   H23   S    
C18   O28   S    
C68   C74   A    
C15   C16   A    
C1    O12   A    
C54   H11   S    
C61   O31   S    
N21   H78   S    
C18   C19   A    
C102  H50   S    
Cr1   O12   S    
C100  H43   S    
C76   N22   S    
O28   C99   S    
C79   C88   S    
C7    H28   S    
C25   N14   S    
C43   C93   S    
C96   O18   A    
C110  H79   S    
C19   H1    S    
Cr4   O13   S    
C16   H2    S    
C40   C43   A    
C15   H30   S    
C66   C71   A    
Cr5   O16   S    
C34   O25   A    
C16   C17   A    
N15   C101  S    
N18   H60   S    
C70   C71   A    
C65   H19   S    
C20   N1    A    
C28   C91   S    
N3    N4    A    
O31   C108  S    
Cr6   O10   S    
C61   C62   A    
C34   O26   A    
C53   H14   S    
C34   C75   S    
C54   C59   A    
C101  H48   S    
C84   H25   S    
C97   H33   S    
C96   O13   A    
C92   O10   A    
N16   H49   S    
C78   C89   A    
C46   H9    S    
C30   H4    S    
C109  H76   S    
C102  H51   S    
C93   O6    A    
C100  H42   S    
C67   C78   A    
C84   C90   A    
C21   N6    A    
C2    C11   S    
C9    C10   S    
C82   H22   S    
O30   C107  S    
C23   O1    A    
C33   N18   S    
C44   C46   A    
Cr3   O23   S    
C6    N13   S    
C77   C79   A    
Cr4   O7    S    
C64   H18   S    
C12   C67   S    
C110  H80   S    
C91   O7    A    
N14   C100  S    
C37   N10   A    
C95   O16   A    
Cr2   O21   S    
C93   O11   A    
N8    N9    A    
C1    O20   A    
C72   C73   T    
C8    O34   S    
N20   H74   S    
C99   H40   S    
N20   C109  S    
C12   O21   A    
C113  H90   S    
C86   C87   S    
Cr6   O19   S    
C111  H84   S    
C39   C43   A    
C101  H46   S    
C63   C73   S    
Cr4   O6    S    
O32   C111  S    
O29   C103  S    
N2    N12   A    
C109  H77   S    
C17   C21   S    
C79   C80   A    
C60   C61   A    
C112  H87   S    
C108  H73   S    
C14   C23   S    
C56   O4    A    
C2    C89   A    
C75   C76   A    
C3    H13   S    
C99   H38   S    
C5    C9    A    
C29   C30   A    
Cr3   O5    S    
C51   N4    A    
C105  H62   S    
C47   C48   A    
C14   C15   A    
C104  H59   S    
C48   C52   S    
Cr6   O18   S    
C56   O24   A    
C1    C29   S    
C17   C18   A    
C111  H82   S    
C40   H7    S    
C69   C74   A    
C51   C58   S    
C32   C37   S    
C84   C85   A    
N19   C106  S    
C36   N8    A    
C92   O9    A    
C77   H26   S    
C37   N9    A    
C59   C95   S    
C23   O23   A    
C40   C41   A    
C104  H58   S    
C60   C65   A    
O27   C98   S    
N17   C104  S    
C66   H17   S    
C55   C57   A    
C13   C92   S    
C102  H52   S    
C22   C24   A    
C108  H71   S    
Cr5   O9    S    
C53   C54   A    
C3    C4    A    
Cr1   O24   S    
C106  H67   S    
C91   O8    A    
C112  H86   S    
C44   C45   S    
C105  H63   S    
N16   C102  S    
C55   H15   S    
C97   H34   S    
C44   C50   A    
C83   C90   A    
Cr3   O3    S    
C46   C47   A    
C48   C49   A    
Cr1   O5    S    
C45   O3    A    
Cr1   O1    S    
C14   C19   A    
C78   H27   S    
C31   C32   A    
C75   C81   A    
C41   H8    S    
C24   C28   A    
C85   O33   S    
C80   C81   A    
C106  H66   S    
C4    C67   A    
Cr2   O20   S    
C53   C58   A    
C68   O30   S    
C90   C96   S    
C113  H89   S    
C20   C27   S    
C22   H3    S    
Cr2   O2    S    
C29   C35   A    
Cr5   O8    S    
C45   O2    A    
C89   H29   S    
C22   C27   A    
C114  H92   S    
C64   C65   A    
C112  H88   S    
C95   O17   A    
C50   H10   S    
C25   C26   A    
Cr1   O25   S    
C71   C72   S    
C107  H69   S    
C82   C86   A    
C32   C33   A    
C6    C13   A    
C12   O22   A    
C76   C77   A    
C114  H93   S    
C103  H55   S    
C105  H61   S    
C38   C39   A    
C31   N17   S    
C69   H20   S    
Cr6   O17   S    
Cr6   O11   S    
Cr5   O19   S    
C109  H75   S    
C33   C35   A    
N21   C110  S    
C2    C3    A    
Cr4   O19   S    
N17   H56   S    
Cr3   O22   S    
C38   H6    S    
C69   C70   A    
C103  H53   S    
C98   H37   S    
C10   C11   T    
C5    O29   S    
C63   C64   A    
Cr2   O26   S    
Cr4   O14   S    
C62   O32   S    
C56   C60   S    
C104  H57   S    
Cr5   O15   S    
C87   C88   T    
C94   O14   A    
C82   C83   A    
O34   C114  S    
C24   O27   S    
O33   C113  S    
C52   N3    A    
C51   N12   A    
C107  H68   S    
N10   N11   A    
N14   H41   S    
C70   N20   S    
C83   H21   S    
C26   N15   S    
N19   H64   S    
C4    N21   S    
N22   H85   S    
C57   H16   S    
C101  H47   S    
Cr2   O5    S    
