data_mof_unit_30986.cif
_audit_creation_date              2012-12-11T14:21:14-0500
_audit_creation_method            fapswitch 2.2
_symmetry_space_group_name_H-M    P1
_symmetry_Int_Tables_number       1
_space_group_crystal_system       triclinic
_cell_length_a                    11.554681
_cell_length_b                    11.554194
_cell_length_c                    19.557316
_cell_angle_alpha                 90.463424
_cell_angle_beta                  89.987531
_cell_angle_gamma                 60.084023
_cell_volume                      2263.00311481

loop_
_atom_site_label
_atom_site_type_symbol
_atom_type_description
_atom_site_fract_x
_atom_site_fract_y
_atom_site_fract_z
_atom_type_partial_charge
C1    C     C_R   0.640309 0.117127 0.599289 0.542892
C2    C     C_1   0.640912 0.704153 0.668015 0.005104
C3    C     C_1   0.126611 0.198966 0.859291 0.008035
C4    C     C_1   0.171555 0.170203 0.727717 -0.029734
C5    C     C_1   0.150132 0.182367 0.798945 -0.029128
C6    C     C_1   0.195380 0.160737 0.667385 0.004928
C7    C     C_1   0.678766 0.191157 0.860784 0.008449
C8    C     C_1   0.658513 0.166988 0.729057 -0.029665
C9    C     C_1   0.665786 0.180704 0.800362 -0.029396
C10   C     C_1   0.652843 0.149448 0.668673 0.004339
C11   C     C_R   0.662515 0.678741 0.190061 -0.005091
C12   C     C_R   0.612252 0.746221 0.598655 0.545728
C13   C     C_R   0.533859 0.741765 0.217992 0.022337
C14   C     C_R   0.521078 0.725818 0.287876 0.031320
C15   C     C_R   0.759675 0.647055 0.302393 -0.164935
C16   C     C_R   0.774911 0.631260 0.232538 -0.126650
C17   C     C_R   0.419580 0.801245 0.175927 -0.094518
C18   C     C_R   0.298636 0.819173 0.199655 -0.088093
C19   C     C_R   0.288326 0.785474 0.266373 -0.076427
C20   C     C_R   0.397557 0.739182 0.310175 -0.058519
C21   C     C_R   0.634022 0.693714 0.331059 -0.005016
C22   C     C_R   0.141857 0.190104 0.192746 0.025544
C23   C     C_R   0.241100 0.145169 0.598184 0.542408
C24   C     C_R   0.213774 0.246453 0.221094 -0.081350
C25   C     C_R   0.201616 0.269392 0.291719 -0.057128
C26   C     C_R   0.129577 0.105319 0.304524 -0.147966
C27   C     C_R   0.096273 0.121138 0.235299 0.211339
C28   C     C_R   0.282079 0.295891 0.180907 0.219746
C29   C     C_R   0.310528 0.389456 0.209189 0.014616
C30   C     C_R   0.276749 0.431928 0.276686 0.298087
C31   C     C_R   0.211264 0.380746 0.316577 0.286651
C32   C     C_R   0.181727 0.178944 0.333593 -0.037987
C33   C     C_R   0.663629 0.187696 0.192082 0.050131
C34   C     C_R   0.646480 0.110212 0.401718 0.543486
C35   C     C_R   0.721461 0.055471 0.214769 0.032558
C36   C     C_R   0.749128 0.031928 0.284697 -0.057424
C37   C     C_R   0.603506 0.269117 0.308497 -0.149197
C38   C     C_R   0.607069 0.293956 0.239432 -0.163168
C39   C     C_R   0.768404 0.946652 0.168232 0.218924
C40   C     C_R   0.878055 0.822543 0.186938 0.297556
C41   C     C_R   0.922068 0.803639 0.254425 0.235125
C42   C     C_R   0.856209 0.905915 0.303144 -0.177264
C43   C     C_R   0.673478 0.138350 0.332186 0.005173
C44   C     C_R   0.081596 0.231288 0.928580 0.544789
C45   C     C_R   0.613818 0.740316 0.401612 0.542601
C46   C     C_R   0.683988 0.604282 0.929484 0.537405
C47   C     C_R   0.708511 0.206724 0.930116 0.562693
C48   C     C_R   0.081427 0.235325 0.125621 0.568002
C49   C     C_R   0.682144 0.615445 0.123908 0.525618
C50   C     C_R   0.706032 0.211452 0.126108 0.628641
C51   C     C_R   0.241948 0.143714 0.401772 0.542213
C52   C     C_1   0.670577 0.646347 0.860121 0.007585
C53   C     C_1   0.654563 0.683845 0.728435 -0.030249
C54   C     C_1   0.663492 0.666667 0.799692 -0.029166
Cr1   Cr    Cr6+3 0.404720 0.198220 0.499960 1.058244
Cr2   Cr    Cr6+3 0.698290 0.897110 0.500380 1.032179
Cr3   Cr    Cr6+3 0.396970 0.904720 0.499610 1.021495
Cr4   Cr    Cr6+3 0.926180 0.151990 0.028120 1.073307
Cr5   Cr    Cr6+3 0.921330 0.451820 0.027470 1.074752
Cr6   Cr    Cr6+3 0.626260 0.446870 0.028710 1.053621
H1    H     H_    0.550806 0.351870 0.343882 0.154846
H2    H     H_    0.567522 0.396277 0.223216 0.159141
H3    H     H_    0.900643 0.888344 0.353084 0.146888
H4    H     H_    0.875490 0.576780 0.212128 0.215095
H5    H     H_    0.214555 0.854345 0.165374 0.173384
H6    H     H_    0.195378 0.794992 0.284334 0.154096
H7    H     H_    0.384517 0.705596 0.359342 0.154178
H8    H     H_    0.108803 0.041291 0.336266 0.103674
O1    O     O_R   0.267740 0.231960 0.575440 -0.500845
O2    O     O_R   0.685970 0.784660 0.430010 -0.493952
O3    O     O_R   0.502530 0.767000 0.423990 -0.538968
O4    O     O_R   0.288330 0.026350 0.429250 -0.503208
O5    O     O_3   0.499990 0.000020 0.499980 -0.257657
O6    O     O_R   0.821500 0.119340 0.952830 -0.500536
O7    O     O_R   0.037130 0.162530 0.957360 -0.507140
O8    O     O_R   0.056440 0.344740 0.951340 -0.491756
O9    O     O_R   0.797900 0.560360 0.957470 -0.498320
O10   O     O_R   0.596130 0.579390 0.952730 -0.507621
O11   O     O_R   0.639060 0.321160 0.958670 -0.487511
O12   O     O_R   0.527280 0.186640 0.570530 -0.494943
O13   O     O_R   0.821240 0.124200 0.104370 -0.443966
O14   O     O_R   0.036890 0.167040 0.097840 -0.457875
O15   O     O_R   0.056180 0.349610 0.102880 -0.465816
O16   O     O_R   0.797660 0.564870 0.097950 -0.492094
O17   O     O_R   0.595880 0.584250 0.104270 -0.517985
O18   O     O_R   0.638830 0.325670 0.099150 -0.508863
O19   O     O_3   0.824590 0.350230 0.028100 -0.279280
O20   O     O_R   0.728090 0.003450 0.576380 -0.505555
O21   O     O_R   0.682970 0.789190 0.570490 -0.492932
O22   O     O_R   0.499290 0.771880 0.575530 -0.505375
O23   O     O_R   0.285330 0.030870 0.569730 -0.496738
O24   O     O_R   0.270980 0.227080 0.423890 -0.476306
O25   O     O_R   0.530280 0.182120 0.430050 -0.493123
O26   O     O_R   0.731330 0.998570 0.424830 -0.529016
H9    H     H_    0.846258 0.619114 0.334208 0.154550
H10   H     H_    0.358243 0.430746 0.177940 0.164184
O27   O     O_3   0.306547 0.525906 0.301497 -0.727884
H11   H     H_    0.290475 0.536274 0.351512 0.345723
O28   O     O_3   0.142901 0.452327 0.374217 -0.707695
H12   H     H_    0.071558 0.431026 0.384584 0.324369
O29   O     O_3   0.707215 0.966178 0.105304 -0.699932
H13   H     H_    0.719573 0.879645 0.088406 0.320108
O30   O     O_3   0.948223 0.720212 0.140450 -0.660499
H14   H     H_    0.933398 0.757717 0.093853 0.323436
O31   O     O_3   0.029976 0.683051 0.271735 -0.650536
H15   H     H_    0.047188 0.684565 0.321262 0.338642
H16   H     H_    0.426389 0.824404 0.123010 0.123615
O32   O     O_3   0.326678 0.251794 0.115163 -0.665307
H17   H     H_    0.333513 0.163469 0.108506 0.322056
O33   O     O_3   0.017882 0.072288 0.209003 -0.688381
H18   H     H_    0.994191 0.029556 0.245940 0.310083

loop_
_geom_bond_atom_site_label_1
_geom_bond_atom_site_label_2
_ccdc_geom_bond_type
C25   C31   A    
C22   C48   S    
Cr6   O11   S    
C26   C32   A    
O29   H13   S    
C45   O3    A    
C41   C42   A    
C23   O1    A    
C20   H7    S    
C36   C42   A    
C19   C20   A    
C34   O25   A    
C47   O11   A    
Cr1   O25   S    
C2    C12   S    
Cr4   O19   S    
Cr5   O9    S    
O27   H11   S    
C53   C54   S    
C18   H5    S    
Cr2   O26   S    
C30   O27   S    
Cr6   O10   S    
C26   C27   A    
Cr1   O24   S    
C41   O31   S    
C14   C21   A    
C12   O22   A    
C28   C29   A    
C37   C38   A    
Cr5   O15   S    
C17   H16   S    
C15   H9    S    
C30   C31   A    
Cr2   O20   S    
C15   C16   A    
C46   C52   S    
O32   H17   S    
C19   H6    S    
C18   C19   A    
Cr3   O5    S    
C44   O8    A    
O33   H18   S    
C35   C36   A    
C27   O33   S    
C8    C9    S    
C31   O28   S    
C24   C28   A    
C25   C32   A    
C13   C14   A    
Cr6   O19   S    
C52   C54   T    
Cr4   O7    S    
C39   O29   S    
C21   C45   S    
C3    C44   S    
Cr3   O22   S    
C34   C43   S    
C14   C20   A    
C12   O21   A    
C24   C25   A    
C4    C6    T    
Cr4   O13   S    
C39   C40   A    
C46   O10   A    
Cr6   O18   S    
C33   C50   S    
Cr3   O3    S    
C7    C47   S    
C37   C43   A    
C44   O7    A    
C35   C39   A    
C32   C51   S    
C29   C30   A    
C11   C49   S    
C49   O17   A    
C51   O24   A    
C29   H10   S    
C11   C16   A    
O28   H12   S    
C17   C18   A    
Cr5   O16   S    
Cr1   O1    S    
Cr2   O21   S    
Cr2   O2    S    
C22   C27   A    
C22   C24   A    
C51   O4    A    
Cr4   O6    S    
C49   O16   A    
C7    C9    T    
C40   C41   A    
Cr2   O5    S    
Cr3   O23   S    
C45   O2    A    
C1    C10   S    
C34   O26   A    
C47   O6    A    
C4    C5    S    
C3    C5    T    
C2    C53   T    
C46   O9    A    
C37   H1    S    
Cr6   O17   S    
O31   H15   S    
C33   C38   A    
C48   O15   A    
C13   C17   A    
C26   H8    S    
Cr4   O14   S    
C40   O30   S    
Cr1   O12   S    
C11   C13   A    
C1    O20   A    
C6    C23   S    
C42   H3    S    
C33   C35   A    
C48   O14   A    
C23   O23   A    
Cr3   O4    S    
C28   O32   S    
Cr5   O19   S    
C50   O18   A    
Cr1   O5    S    
C15   C21   A    
C8    C10   T    
O30   H14   S    
C1    O12   A    
C36   C43   A    
C16   H4    S    
Cr5   O8    S    
C50   O13   A    
C38   H2    S    
