data_mof_unit_35523.cif
_audit_creation_date              2013-03-05T16:10:35-0500
_audit_creation_method            fapswitch 2.2
_symmetry_space_group_name_H-M    P1
_symmetry_Int_Tables_number       1
_space_group_crystal_system       triclinic
_cell_length_a                    14.423887
_cell_length_b                    16.653424
_cell_length_c                    10.202041
_cell_angle_alpha                 90.498722
_cell_angle_beta                  92.115991
_cell_angle_gamma                 90.101919
_cell_volume                      2448.83356503

loop_
_atom_site_label
_atom_site_type_symbol
_atom_site_description
_atom_site_fract_x
_atom_site_fract_y
_atom_site_fract_z
_atom_type_partial_charge
O1    O     O_R   0.091250 0.408820 0.620260 -0.518029
O2    O     O_R   0.091250 0.408820 0.379740 -0.565988
O3    O     O_R   0.091250 0.591180 0.620260 -0.504802
O4    O     O_R   0.091250 0.591180 0.379740 -0.501478
O5    O     O_R   0.591250 0.908820 0.620260 -0.525149
O6    O     O_R   0.591250 0.908820 0.379740 -0.539962
O7    O     O_R   0.591250 0.091180 0.620260 -0.539477
O8    O     O_R   0.591250 0.091180 0.379740 -0.561611
C1    C     C_R   0.124649 0.384421 0.501533 0.805236
C2    C     C_R   0.122460 0.617190 0.501995 0.799803
C3    C     C_R   0.625289 0.884576 0.500788 0.820400
C4    C     C_R   0.625130 0.115279 0.502138 0.817486
O9    O     O_R   0.908940 0.408800 0.620260 -0.517664
O10   O     O_R   0.908940 0.408800 0.379740 -0.508374
O11   O     O_R   0.908940 0.591200 0.620260 -0.530863
O12   O     O_R   0.908940 0.591200 0.379740 -0.524068
O13   O     O_R   0.408940 0.908800 0.620260 -0.539992
O14   O     O_R   0.408940 0.908800 0.379740 -0.526139
O15   O     O_R   0.408940 0.091200 0.620260 -0.533752
O16   O     O_R   0.408940 0.091200 0.379740 -0.532892
C5    C     C_R   0.879104 0.383051 0.498770 0.774450
C6    C     C_R   0.876928 0.614934 0.498204 0.758370
C7    C     C_R   0.378742 0.883031 0.496608 0.762995
C8    C     C_R   0.378995 0.116931 0.498718 0.770406
Cu1   Cu    Cu3+1 0.000100 0.500000 0.642410 1.084913
Cu2   Cu    Cu3+1 0.000100 0.500000 0.357590 1.086369
Cu3   Cu    Cu3+1 0.500100 0.000000 0.642410 1.081285
Cu4   Cu    Cu3+1 0.500100 0.000000 0.357590 1.073831
C9    C     C_3   0.855729 0.244651 0.581324 -0.388221
C10   C     C_3   0.786336 0.280396 0.361245 -0.364208
C11   C     C_3   0.801386 0.719190 0.631631 -0.331966
C12   C     C_3   0.841682 0.747936 0.400457 -0.352016
C13   C     C_3   0.300727 0.782588 0.624849 -0.328062
C14   C     C_3   0.342965 0.742556 0.402801 -0.330200
C15   C     C_3   0.346721 0.250583 0.596095 -0.356788
C16   C     C_3   0.303803 0.229600 0.364503 -0.321374
H1    H     H_    0.886966 0.265549 0.675018 0.242438
H2    H     H_    0.733442 0.319895 0.313612 0.219675
H3    H     H_    0.770162 0.673328 0.695290 0.233518
H4    H     H_    0.833665 0.724066 0.298929 0.242761
H5    H     H_    0.283133 0.831307 0.690975 0.242831
H6    H     H_    0.337156 0.758170 0.297688 0.253351
H7    H     H_    0.372981 0.227648 0.689455 0.254807
H8    H     H_    0.266335 0.191950 0.289987 0.236989
H9    H     H_    0.915205 0.220201 0.527516 0.213976
H10   H     H_    0.847833 0.278460 0.299809 0.276813
H11   H     H_    0.873712 0.732465 0.666150 0.257332
H12   H     H_    0.916853 0.758989 0.421095 0.203674
H13   H     H_    0.370424 0.756942 0.646668 0.255582
H14   H     H_    0.417717 0.730811 0.425247 0.191052
H15   H     H_    0.409726 0.278656 0.555784 0.207940
H16   H     H_    0.374596 0.241228 0.335913 0.251014
C17   C     C_3   0.226717 0.720260 0.642115 0.177576
C18   C     C_3   0.283210 0.666058 0.424528 0.110391
C19   C     C_3   0.271231 0.312595 0.622907 0.193568
C20   C     C_3   0.254139 0.311235 0.374833 0.136045
C21   C     C_3   0.783106 0.179084 0.609300 0.183556
C22   C     C_3   0.743271 0.196476 0.369033 0.131395
C23   C     C_3   0.741840 0.794794 0.637140 0.155264
C24   C     C_3   0.784430 0.825624 0.406948 0.162844
H17   H     H_    0.166437 0.751885 0.682469 0.186494
H18   H     H_    0.262426 0.642192 0.327585 0.200909
H19   H     H_    0.234834 0.290047 0.707538 0.198506
H20   H     H_    0.205540 0.314801 0.289763 0.183766
H21   H     H_    0.755848 0.195608 0.704905 0.184637
H22   H     H_    0.687820 0.193343 0.293974 0.175578
H23   H     H_    0.684629 0.780647 0.701003 0.200946
H24   H     H_    0.757457 0.833773 0.308010 0.200374
H25   H     H_    0.727687 0.349028 0.666569 0.258107
H26   H     H_    0.687448 0.390396 0.513099 0.205648
H27   H     H_    0.679607 0.614467 0.513354 0.210504
H28   H     H_    0.707273 0.634678 0.347445 0.243921
H29   H     H_    0.180295 0.882097 0.505442 0.203400
H30   H     H_    0.210715 0.864469 0.340085 0.252867
H31   H     H_    0.207742 0.140535 0.631717 0.239729
H32   H     H_    0.187249 0.110253 0.464140 0.206140
H33   H     H_    0.079980 0.774383 0.477194 0.194979
H34   H     H_    0.131605 0.745116 0.327798 0.272865
H35   H     H_    0.091798 0.234417 0.584922 0.203025
H36   H     H_    0.102312 0.225000 0.413454 0.214381
H37   H     H_    0.608571 0.256690 0.632209 0.244908
H38   H     H_    0.595374 0.278378 0.461382 0.215331
H39   H     H_    0.585568 0.726155 0.512956 0.199464
H40   H     H_    0.616191 0.747472 0.348817 0.257047
C25   C     C_3   0.717058 0.335670 0.560191 -0.339289
C26   C     C_3   0.707868 0.660947 0.447962 -0.355104
C27   C     C_3   0.209956 0.836735 0.438126 -0.350632
C28   C     C_3   0.210326 0.161210 0.528734 -0.348276
C29   C     C_3   0.811115 0.313366 0.499866 0.004537
C30   C     C_3   0.807640 0.683669 0.494029 -0.029472
C31   C     C_3   0.308890 0.813755 0.487828 -0.040133
C32   C     C_3   0.310697 0.186590 0.497522 -0.023419
C33   C     C_3   0.194495 0.686509 0.503292 -0.066710
C34   C     C_3   0.197876 0.315441 0.503140 -0.066686
C35   C     C_3   0.699151 0.184032 0.505714 -0.026822
C36   C     C_3   0.699027 0.815136 0.499551 -0.045639
C37   C     C_3   0.147136 0.760182 0.432203 -0.441597
C38   C     C_3   0.143114 0.233884 0.507312 -0.501128
C39   C     C_3   0.647402 0.263948 0.540989 -0.499641
C40   C     C_3   0.645311 0.737554 0.449616 -0.470110
C41   C     C_3   0.027618 0.582134 0.082022 0.432376
C42   C     C_3   0.004247 0.584627 0.924480 0.384274
C43   C     C_3   0.904629 0.484649 0.073210 0.435364
C44   C     C_3   0.911461 0.465976 0.915459 0.440547
C45   C     C_3   0.447231 0.070330 0.080489 0.446333
C46   C     C_3   0.458964 0.076967 0.920281 0.439431
C47   C     C_3   0.451754 0.926148 0.076784 0.430136
C48   C     C_3   0.441010 0.932972 0.916460 0.427372
C49   C     C_3   0.071568 0.439946 0.085782 -0.277088
C50   C     C_3   0.083198 0.452482 0.923097 -0.318585
C51   C     C_3   0.600507 0.006987 0.086000 -0.286352
C52   C     C_3   0.600307 0.990554 0.922721 -0.316767
N1    N     N_3   0.001260 0.500000 0.143650 -0.292624
N2    N     N_3   0.001260 0.500000 0.856350 -0.297046
N3    N     N_3   0.501260 0.000000 0.143650 -0.330974
N4    N     N_3   0.501260 0.000000 0.856350 -0.322698
Br1   Br    Br    0.285609 0.659955 0.786345 -0.263874
Br2   Br    Br    0.360918 0.583227 0.503254 -0.385070
Br3   Br    Br    0.343935 0.404381 0.682824 -0.306621
Br4   Br    Br    0.351336 0.393288 0.361839 -0.353100
Br5   Br    Br    0.853593 0.080104 0.631262 -0.298843
Br6   Br    Br    0.843761 0.122101 0.326906 -0.353313
Br7   Br    Br    0.824072 0.875727 0.716861 -0.286898
Br8   Br    Br    0.876349 0.912201 0.434408 -0.330235
Br9   Br    Br    0.152472 0.627300 0.116807 -0.358143
Br10  Br    Br    0.070899 0.669387 0.846100 -0.317554
Br11  Br    Br    0.813285 0.413853 0.146369 -0.342642
Br12  Br    Br    0.886670 0.351064 0.890404 -0.409991
Br13  Br    Br    0.463814 0.175505 0.160681 -0.328217
Br14  Br    Br    0.519216 0.174314 0.858054 -0.330988
Br15  Br    Br    0.493879 0.821443 0.145223 -0.316539
Br16  Br    Br    0.447237 0.823813 0.847512 -0.294251
Br17  Br    Br    0.981680 0.677688 0.171395 -0.363888
Br18  Br    Br    0.897431 0.653462 0.888647 -0.353860
Br19  Br    Br    0.810547 0.564857 0.119353 -0.312625
Br20  Br    Br    0.797087 0.495359 0.814955 -0.334365
Br21  Br    Br    0.315804 0.071065 0.134082 -0.332067
Br22  Br    Br    0.338112 0.120766 0.854262 -0.344676
Br23  Br    Br    0.329064 0.891619 0.138593 -0.321972
Br24  Br    Br    0.309524 0.943187 0.855078 -0.330386
C53   C     C_2   0.168983 0.445171 0.153103 0.958873
O17   O     O_2   0.231702 0.403013 0.113728 -0.463811
O18   O     O_R   0.189774 0.495827 0.258575 -0.682269
H41   H     H_    0.257228 0.512307 0.263114 0.379130
C54   C     C_2   0.171591 0.495872 0.880250 0.993334
O19   O     O_2   0.236547 0.516320 0.952710 -0.461676
O20   O     O_R   0.182174 0.501208 0.747526 -0.689563
H42   H     H_    0.242264 0.522867 0.718540 0.397515
C55   C     C_2   0.045321 0.351809 0.122394 0.878951
O21   O     O_2   0.980581 0.338049 0.190639 -0.533743
O22   O     O_R   0.101656 0.286181 0.092218 -0.715552
H43   H     H_    0.078037 0.233254 0.126619 0.358103
C56   C     C_2   0.107322 0.367577 0.867931 0.982031
O23   O     O_2   0.183718 0.339729 0.897498 -0.509573
O24   O     O_R   0.048402 0.318649 0.791631 -0.713248
H44   H     H_    0.069387 0.260584 0.790881 0.333735
C57   C     C_2   0.661375 0.085346 0.104306 0.940219
O25   O     O_2   0.745664 0.077424 0.098392 -0.540465
O26   O     O_R   0.631833 0.163503 0.086431 -0.673153
H45   H     H_    0.683505 0.204481 0.077393 0.384460
C58   C     C_2   0.668843 0.039644 0.839853 1.016266
O27   O     O_2   0.698992 0.008840 0.741429 -0.498211
O28   O     O_R   0.702461 0.115777 0.871123 -0.721445
H46   H     H_    0.772503 0.118004 0.867618 0.363575
C59   C     C_2   0.661935 0.949792 0.169975 0.960742
O29   O     O_2   0.663835 0.877840 0.151399 -0.579621
O30   O     O_R   0.721509 0.979418 0.268648 -0.688239
H47   H     H_    0.786432 0.968491 0.239385 0.385564
C60   C     C_2   0.654567 0.910725 0.910534 0.966298
O31   O     O_2   0.623747 0.849188 0.865413 -0.521595
O32   O     O_R   0.748243 0.910732 0.955693 -0.704739
H48   H     H_    0.774541 0.854581 0.967599 0.394254

loop_
_geom_bond_atom_site_label_1
_geom_bond_atom_site_label_2
_geom_bond_distance
_ccdc_geom_bond_type
C3    C36   1.572838 S    
O32   H48   1.016319 S    
C41   C42   1.630890 S    
C27   C31   1.546538 S    
C13   C17   1.503712 S    
C20   Br4   1.964778 S    
C60   O31   1.197828 D    
H35   C38   1.103654 S    
C51   C52   1.685659 S    
C14   H6    1.105855 S    
C9    C29   1.547234 S    
C58   O27   1.218448 D    
H25   C25   1.110946 S    
C52   C60   1.550268 S    
C5    C29   1.518407 S    
C20   C34   1.566533 S    
C52   C58   1.559227 S    
C59   O29   1.212019 D    
C42   N2    1.565788 S    
O10   C5    1.375039 A    
C43   N1    1.563979 S    
O5    C3    1.387808 A    
C19   C34   1.587589 S    
C35   C39   1.572558 S    
C46   Br22  1.987619 S    
C34   C38   1.571658 S    
C13   H13   1.108705 S    
O18   H41   1.009741 S    
C10   C22   1.532266 S    
O7    Cu3   2.026357 S    
C10   H2    1.109460 S    
H38   C39   1.113346 S    
C11   C23   1.527178 S    
C24   Br8   1.968211 S    
C43   Br19  1.972309 S    
C14   C31   1.554216 S    
H29   C27   1.113186 S    
C18   C33   1.572203 S    
C43   C44   1.643056 S    
O20   H42   0.994213 S    
C23   H23   1.096648 S    
O5    Cu3   2.026915 S    
C17   H17   1.107757 S    
C22   H22   1.087541 S    
O11   C6    1.373590 A    
C12   C30   1.532445 S    
O28   H46   1.012861 S    
C19   H19   1.095673 S    
C41   Br9   1.969322 S    
C47   C48   1.642199 S    
C20   H20   1.097388 S    
C4    C35   1.563420 S    
H33   C37   1.112047 S    
C51   C59   1.545119 S    
H30   C27   1.105771 S    
C56   O24   1.389159 S    
C50   C54   1.543420 S    
C15   H7    1.084783 S    
H32   C28   1.112786 S    
C16   H16   1.089723 S    
C49   N1    1.553936 S    
Cu3   N4    2.182071 S    
C16   C32   1.540059 S    
O22   H43   1.014533 S    
C57   O26   1.381775 S    
C11   H11   1.109910 S    
C25   C39   1.565746 S    
O1    Cu1   2.026915 S    
C60   O32   1.411365 S    
O9    Cu1   2.012881 S    
C15   C32   1.535521 S    
C10   C29   1.541972 S    
C8    C32   1.523074 S    
C58   O28   1.386992 S    
O30   H47   1.009680 S    
C45   N3    1.540663 S    
C54   O19   1.218028 D    
C23   Br7   1.946523 S    
O7    C4    1.379606 A    
O6    Cu4   2.019023 S    
C22   Br6   1.965420 S    
C14   H14   1.111997 S    
C54   O20   1.371858 S    
C17   C33   1.573015 S    
O14   C7    1.357222 A    
H40   C40   1.110186 S    
C28   C32   1.552476 S    
O3    Cu1   2.026357 S    
O14   Cu4   2.026703 S    
C43   Br11  1.940470 S    
C47   Br15  1.972510 S    
C26   C30   1.542756 S    
O6    C3    1.376132 A    
C48   Br24  1.983249 S    
C25   C29   1.554593 S    
C45   Br13  1.937383 S    
O16   Cu4   2.027259 S    
C2    C33   1.551402 S    
Cu1   Cu2   2.905744 S    
C15   C19   1.532318 S    
C53   O17   1.223449 D    
C57   O25   1.226785 D    
C9    H9    1.111405 S    
C53   O18   1.385248 S    
O13   Cu3   2.012881 S    
C49   C55   1.566916 S    
C22   C35   1.569219 S    
C42   Br18  1.947690 S    
C16   C20   1.542413 S    
Cu4   N3    2.183306 S    
H27   C26   1.112802 S    
C51   N3    1.572102 S    
H28   C26   1.111124 S    
O26   H45   1.016877 S    
C44   Br12  1.958995 S    
O8    C4    1.380094 A    
C11   C30   1.524425 S    
H34   C37   1.106880 S    
C6    C30   1.520744 S    
O1    C1    1.378239 A    
O2    Cu2   2.019023 S    
O13   C7    1.383696 A    
O10   Cu2   2.026703 S    
C21   Br5   1.948466 S    
C47   N3    1.560177 S    
C44   N2    1.556722 S    
C24   C36   1.590134 S    
C9    C21   1.547400 S    
C14   C18   1.558862 S    
H39   C40   1.113044 S    
C18   Br2   1.939715 S    
C15   H15   1.114898 S    
O8    Cu4   2.012535 S    
C7    C31   1.530205 S    
C16   H8    1.106028 S    
C23   C36   1.552877 S    
C12   C24   1.538351 S    
O4    C2    1.376356 A    
C33   C37   1.574734 S    
C52   N4    1.567002 S    
O15   Cu3   2.019367 S    
Cu1   N2    2.182071 S    
C46   Br14  1.959618 S    
C50   N2    1.562050 S    
O12   C6    1.365152 A    
C44   Br20  1.974600 S    
H36   C38   1.113884 S    
C10   H10   1.105213 S    
C21   H21   1.098034 S    
C42   Br10  1.904667 S    
O12   Cu2   2.027259 S    
O4    Cu2   2.012535 S    
C41   Br17  1.955946 S    
C18   H18   1.094003 S    
C45   C46   1.654019 S    
C46   N4    1.567847 S    
H37   C39   1.111115 S    
C13   H5    1.087027 S    
C48   N4    1.557277 S    
C55   O22   1.401888 S    
O15   C8    1.370435 A    
C51   C57   1.577385 S    
Cu2   N1    2.183306 S    
C50   C56   1.561868 S    
C55   O21   1.208006 D    
O9    C5    1.362352 A    
C26   C40   1.564256 S    
O2    C1    1.380714 A    
C12   H12   1.111571 S    
C36   C40   1.576366 S    
C11   H3    1.112188 S    
C17   Br1   1.957484 S    
C12   H4    1.108192 S    
C47   Br23  1.986238 S    
C41   N1    1.562543 S    
C48   Br16  1.946926 S    
O11   Cu1   2.019367 S    
C45   Br21  1.992284 S    
H31   C28   1.110374 S    
C19   Br3   1.934039 S    
C24   H24   1.078046 S    
C59   O30   1.386057 S    
C21   C35   1.580304 S    
C9    H1    1.095287 S    
O24   H44   1.013818 S    
O3    C2    1.376426 A    
C49   C53   1.543007 S    
C27   C37   1.562207 S    
C56   O23   1.224753 D    
C49   C50   1.689041 S    
H26   C25   1.112514 S    
C1    C34   1.561678 S    
O16   C8    1.368885 A    
C28   C38   1.563810 S    
Cu3   Cu4   2.905744 S    
C13   C31   1.503977 S    
