data_mof_unit_30907.cif
_audit_creation_date              2012-12-10T20:30:08-0500
_audit_creation_method            fapswitch 2.2
_symmetry_space_group_name_H-M    P1
_symmetry_Int_Tables_number       1
_space_group_crystal_system       triclinic
_cell_length_a                    9.859466
_cell_length_b                    10.761435
_cell_length_c                    13.145975
_cell_angle_alpha                 89.607261
_cell_angle_beta                  69.942357
_cell_angle_gamma                 89.367459
_cell_volume                      1310.12923636

loop_
_atom_site_label
_atom_site_type_symbol
_atom_type_description
_atom_site_fract_x
_atom_site_fract_y
_atom_site_fract_z
_atom_type_partial_charge
C1    C     C_R   0.500331 0.739769 0.498566 0.898880
C2    C     C_R   0.432330 0.474900 0.984499 0.087845
C3    C     C_R   0.462709 0.441164 0.875664 0.087133
C4    C     C_R   0.543345 0.461151 0.029123 0.080102
C5    C     C_R   0.673065 0.396390 0.971653 0.174753
C6    C     C_R   0.691473 0.347228 0.870113 -0.265939
C7    C     C_R   0.587224 0.368645 0.822907 -0.214230
C8    C     C_R   0.529569 0.512125 0.128980 -0.262678
C9    C     C_R   0.757644 0.421008 0.122909 -0.203571
C10   C     C_R   0.368421 0.482571 0.822109 -0.121034
C11   C     C_R   0.399116 0.939306 0.469148 0.116256
C12   C     C_R   0.420091 0.493033 0.704155 0.850298
C13   C     C_R   0.506843 0.871243 0.490151 -0.155490
C14   C     C_R   0.625707 0.931296 0.501936 -0.205417
C15   C     C_R   0.625727 0.059224 0.511062 -0.020914
C16   C     C_R   0.506920 0.127432 0.499980 -0.206042
C17   C     C_R   0.400252 0.066179 0.472659 0.122726
C18   C     C_3   0.239600 0.074238 0.524745 -0.409418
C19   C     C_3   0.238943 0.933622 0.522035 -0.456135
C20   C     C_R   0.885716 0.519817 0.593613 0.228168
C21   C     C_R   0.969496 0.468666 0.409762 -0.125129
C22   C     C_R   0.113338 0.468424 0.409789 -0.122178
C23   C     C_R   0.500038 0.259918 0.503491 0.861274
C24   C     C_R   0.028208 0.519713 0.593713 0.206900
C25   C     C_3   0.000094 0.633087 0.662656 -0.522586
C26   C     C_3   0.846193 0.632797 0.662673 -0.476239
C27   C     C_R   0.580176 0.499913 0.295764 0.882386
C28   C     C_R   0.780912 0.379409 0.017988 -0.200944
C29   C     C_R   0.629125 0.484087 0.179250 -0.058636
C30   C     C_R   0.231246 0.529510 0.882104 -0.195254
C31   C     C_R   0.191721 0.543990 0.993351 -0.148371
C32   C     C_R   0.292101 0.520451 0.044192 -0.192935
H1    H     H_    0.835958 0.398805 0.161488 0.152074
H2    H     H_    0.204943 0.112747 0.608181 0.195945
H3    H     H_    0.187554 0.118204 0.470519 0.232285
H4    H     H_    0.206029 0.891132 0.604134 0.195730
H5    H     H_    0.185129 0.895949 0.467232 0.221383
H6    H     H_    0.948968 0.445409 0.336483 0.143881
H7    H     H_    0.200471 0.444360 0.336330 0.153092
H8    H     H_    0.006774 0.613994 0.743847 0.195285
H9    H     H_    0.063097 0.713997 0.619493 0.216698
H10   H     H_    0.787307 0.293655 0.826460 0.150580
H11   H     H_    0.819798 0.713885 0.619765 0.216092
H12   H     H_    0.879922 0.329495 0.975042 0.141953
H13   H     H_    0.438340 0.570393 0.171849 0.147964
H14   H     H_    0.156261 0.558558 0.842702 0.148926
H15   H     H_    0.255863 0.535505 0.130472 0.124435
H16   H     H_    0.085046 0.578829 0.039678 0.147339
H17   H     H_    0.604346 0.326502 0.745142 0.156717
H18   H     H_    0.712849 0.878282 0.514480 0.199602
N1    N     N_R   0.856940 0.500860 0.500710 -0.110754
N2    N     N_R   0.142580 0.500820 0.500710 -0.105699
O1    O     O_R   0.385310 0.683210 0.499990 -0.612519
O2    O     O_R   0.614650 0.683240 0.500000 -0.621262
O3    O     O_R   0.328390 0.499940 0.653610 -0.613566
O4    O     O_R   0.557730 0.499980 0.653620 -0.617864
O5    O     O_R   0.385350 0.316760 0.500000 -0.602703
O6    O     O_R   0.614690 0.316790 0.500010 -0.638869
O7    O     O_R   0.442270 0.500020 0.346380 -0.621679
O8    O     O_R   0.671610 0.500060 0.346390 -0.618224
Zn1   Zn    Zn3+2 0.346870 0.499980 0.499990 0.943881
Zn2   Zn    Zn3+2 0.653130 0.500020 0.500010 0.939335
C33   C     C_2   0.742887 0.113548 0.543656 0.420653
H19   H     H_    0.722026 0.191782 0.598340 0.071585
O9    O     O_2   0.864370 0.068346 0.511837 -0.600029
H20   H     H_    0.765124 0.612684 0.743647 0.214152

loop_
_geom_bond_atom_site_label_1
_geom_bond_atom_site_label_2
_ccdc_geom_bond_type
C24   N2    A    
C23   O6    A    
C2    C4    A    
C1    O2    A    
C33   O9    D    
O6    Zn2   S    
C6    C7    A    
C19   H5    S    
C13   C14   A    
C27   C29   S    
C5    C28   A    
C18   H2    S    
C18   H3    S    
C10   C30   A    
C31   C32   A    
C9    C29   A    
C30   C31   A    
C31   H16   S    
C16   C23   S    
C17   C18   S    
C25   C26   S    
C3    C10   A    
C27   O7    A    
C21   C22   A    
O5    Zn1   S    
C11   C13   A    
C11   C19   S    
C27   O8    A    
C12   O4    A    
N1    Zn2   S    
C10   C12   S    
C9    H1    S    
C14   H18   S    
C8    C29   A    
O3    Zn1   S    
C2    C32   A    
C22   N2    A    
C28   H12   S    
C26   H11   S    
C2    C3    A    
C20   N1    A    
C3    C7    A    
N2    Zn1   S    
C25   H8    S    
C5    C6    A    
C32   H15   S    
O4    Zn2   S    
O7    Zn1   S    
C12   O3    A    
C1    C13   S    
C22   H7    S    
C15   C16   A    
C26   H20   S    
C16   C17   A    
C20   C24   A    
C21   N1    A    
C24   C25   S    
C7    H17   S    
O8    Zn2   S    
C18   C19   S    
C6    H10   S    
C25   H9    S    
C4    C8    A    
C23   O5    A    
C1    O1    A    
C8    H13   S    
C11   C17   A    
C15   C33   S    
O2    Zn2   S    
C19   H4    S    
C14   C15   A    
O1    Zn1   S    
C30   H14   S    
C21   H6    S    
C33   H19   S    
C9    C28   A    
C4    C5    A    
C20   C26   S    
