data_mof_unit_65335.cif
_audit_creation_date              2012-12-10T19:39:20-0500
_audit_creation_method            fapswitch 2.2
_symmetry_space_group_name_H-M    P1
_symmetry_Int_Tables_number       1
_space_group_crystal_system       triclinic
_cell_length_a                    25.868096
_cell_length_b                    43.161647
_cell_length_c                    25.129878
_cell_angle_alpha                 90.0
_cell_angle_beta                  120.995414
_cell_angle_gamma                 89.999987
_cell_volume                      24051.3430432

loop_
_atom_site_label
_atom_site_type_symbol
_atom_type_description
_atom_site_fract_x
_atom_site_fract_y
_atom_site_fract_z
_atom_type_partial_charge
C1    C     C_R   0.359999 0.749924 0.000140 0.953661
C2    C     C_R   0.640006 0.250077 0.999865 0.958005
C3    C     C_R   0.640001 0.749924 0.999859 0.953664
C4    C     C_R   0.359994 0.250077 0.000135 0.958003
C5    C     C_R   0.859999 0.249924 0.000140 0.953655
C6    C     C_R   0.140006 0.750077 0.999865 0.957995
C7    C     C_R   0.140001 0.249924 0.999860 0.953655
C8    C     C_R   0.859994 0.750077 0.000135 0.957995
C9    C     C_R   0.499999 0.967436 0.999999 -0.359723
C10   C     C_R   0.499999 0.032571 0.999999 -0.361720
C11   C     C_R   1.000000 0.467436 1.000000 -0.359715
C12   C     C_R   0.999998 0.532571 0.999999 -0.361706
C13   C     C_R   0.499998 0.532376 0.000007 0.001169
C14   C     C_R   0.499994 0.467617 0.000008 0.001257
C15   C     C_R   0.000000 0.032375 1.000000 0.001120
C16   C     C_R   1.000000 0.967617 1.000000 0.001220
C17   C     C_R   0.606156 0.656647 0.927077 -0.407643
C18   C     C_R   0.393433 0.343535 0.072207 -0.418995
C19   C     C_R   0.393852 0.656650 0.072936 -0.407644
C20   C     C_R   0.606573 0.343538 0.927807 -0.418998
C21   C     C_R   0.106143 0.156652 0.927053 -0.407655
C22   C     C_R   0.893417 0.843543 0.072184 -0.419009
C23   C     C_R   0.893854 0.156651 0.072942 -0.407659
C24   C     C_R   0.106575 0.843540 0.927808 -0.419011
C25   C     C_R   0.634581 0.685218 0.934390 0.595382
C26   C     C_R   0.365184 0.314931 0.065130 0.570608
C27   C     C_R   0.365424 0.685220 0.065618 0.595372
C28   C     C_R   0.634820 0.314933 0.934880 0.570614
C29   C     C_R   0.134572 0.185222 0.934373 0.595375
C30   C     C_R   0.865174 0.814936 0.065113 0.570631
C31   C     C_R   0.865425 0.185221 0.065623 0.595373
C32   C     C_R   0.134821 0.814935 0.934880 0.570626
C33   C     C_R   0.690821 0.691228 0.988087 -0.031526
C34   C     C_R   0.308953 0.308801 0.011518 -0.017445
C35   C     C_R   0.309183 0.691228 0.011920 -0.031529
C36   C     C_R   0.691051 0.308802 0.988489 -0.017439
C37   C     C_R   0.190813 0.191229 0.988072 -0.031522
C38   C     C_R   0.808944 0.808803 0.011503 -0.017429
C39   C     C_R   0.809185 0.191229 0.011924 -0.031517
C40   C     C_R   0.191052 0.808802 0.988490 -0.017430
C41   C     C_R   0.717961 0.668233 0.033960 -0.309773
C42   C     C_R   0.281644 0.331711 0.965483 -0.305506
C43   C     C_R   0.282045 0.668231 0.966051 -0.309766
C44   C     C_R   0.718361 0.331710 0.034528 -0.305510
C45   C     C_R   0.217950 0.168231 0.033939 -0.309785
C46   C     C_R   0.781631 0.831709 0.965463 -0.305528
C47   C     C_R   0.782047 0.168231 0.966056 -0.309785
C48   C     C_R   0.218364 0.831711 0.034528 -0.305528
C49   C     C_R   0.689335 0.639684 0.026359 0.627365
C50   C     C_R   0.310091 0.360294 0.972849 0.624428
C51   C     C_R   0.310674 0.639683 0.973656 0.627357
C52   C     C_R   0.689917 0.360293 0.027166 0.624432
C53   C     C_R   0.189319 0.139683 0.026330 0.627356
C54   C     C_R   0.810071 0.860294 0.972823 0.624439
C55   C     C_R   0.810677 0.139683 0.973664 0.627359
C56   C     C_R   0.189920 0.860294 0.027166 0.624435
C57   C     C_R   0.633585 0.633852 0.972803 0.523900
C58   C     C_R   0.365831 0.366246 0.026328 0.530569
C59   C     C_R   0.366425 0.633853 0.027213 0.523897
C60   C     C_R   0.634177 0.366247 0.973689 0.530582
C61   C     C_R   0.133568 0.133854 0.972773 0.523906
C62   C     C_R   0.865810 0.866251 0.026301 0.530584
C63   C     C_R   0.866428 0.133853 0.027221 0.523907
C64   C     C_R   0.134180 0.866249 0.973689 0.530586
C65   C     C_R   0.276454 0.222030 0.997955 0.600745
C66   C     C_R   0.723496 0.777972 0.001965 0.594386
C67   C     C_R   0.723545 0.222030 0.002043 0.600740
C68   C     C_R   0.276502 0.777972 0.998032 0.594388
C69   C     C_R   0.776457 0.722030 0.997962 0.600742
C70   C     C_R   0.223500 0.277972 0.001972 0.594392
C71   C     C_R   0.223544 0.722030 0.002041 0.600739
C72   C     C_R   0.776502 0.277972 0.998030 0.594391
C73   C     C_R   0.304375 0.250387 0.001140 -0.246675
C74   C     C_R   0.695597 0.749616 0.998817 -0.244501
C75   C     C_R   0.695625 0.250387 0.998860 -0.246677
C76   C     C_R   0.304403 0.749616 0.001182 -0.244496
C77   C     C_R   0.804375 0.750387 0.001140 -0.246677
C78   C     C_R   0.195598 0.249616 0.998817 -0.244494
C79   C     C_R   0.195625 0.750387 0.998860 -0.246676
C80   C     C_R   0.804402 0.249616 0.001182 -0.244493
C81   C     C_R   0.416057 0.749911 0.831971 0.907123
C82   C     C_R   0.584081 0.250015 0.168069 0.911413
C83   C     C_R   0.583943 0.749911 0.168029 0.907118
C84   C     C_R   0.415919 0.250015 0.831931 0.911416
C85   C     C_R   0.916057 0.249910 0.831971 0.907109
C86   C     C_R   0.084081 0.750015 0.168069 0.911396
C87   C     C_R   0.083943 0.249910 0.168029 0.907107
C88   C     C_R   0.915919 0.750015 0.831931 0.911402
C89   C     C_R   0.278277 0.278617 0.003716 -0.074962
C90   C     C_R   0.721646 0.721389 0.996151 -0.075922
C91   C     C_R   0.721725 0.278617 0.996287 -0.074963
C92   C     C_R   0.278356 0.721389 0.003852 -0.075920
C93   C     C_R   0.778273 0.778617 0.003709 -0.074964
C94   C     C_R   0.221642 0.221390 0.996143 -0.075922
C95   C     C_R   0.221726 0.778617 0.996288 -0.074962
C96   C     C_R   0.778357 0.221389 0.003854 -0.075923
C97   C     C_R   0.450958 0.384644 0.953002 -0.098662
C98   C     C_R   0.450828 0.615351 0.953164 -0.093046
C99   C     C_R   0.549037 0.384644 0.047004 -0.098634
C100  C     C_R   0.549171 0.615352 0.046840 -0.093033
C101  C     C_R   0.950953 0.884645 0.952998 -0.098685
C102  C     C_R   0.950823 0.115351 0.953170 -0.093062
C103  C     C_R   0.049047 0.884645 0.047002 -0.098687
C104  C     C_R   0.049178 0.115351 0.046830 -0.093066
C105  C     C_R   0.499999 0.368299 0.000002 -0.217821
C106  C     C_R   0.500000 0.631698 0.000001 -0.224062
C107  C     C_R   1.000000 0.868299 0.000000 -0.217808
C108  C     C_R   0.000000 0.131698 1.000000 -0.224064
C109  C     C_R   0.858926 0.720762 0.733140 0.629043
C110  C     C_R   0.085134 0.242792 0.266575 0.637410
C111  C     C_R   0.141067 0.720761 0.266860 0.629047
C112  C     C_R   0.914865 0.242788 0.733425 0.637404
C113  C     C_R   0.358906 0.220764 0.733142 0.629040
C114  C     C_R   0.585138 0.742780 0.266574 0.637395
C115  C     C_R   0.641089 0.220763 0.266859 0.629038
C116  C     C_R   0.414859 0.742774 0.733426 0.637392
C117  C     C_R   0.822525 0.719829 0.668416 0.442069
C118  C     C_R   0.116200 0.240369 0.331314 0.433177
C119  C     C_R   0.177467 0.719828 0.331584 0.442067
C120  C     C_R   0.883798 0.240365 0.668686 0.433177
C121  C     C_R   0.322505 0.219832 0.668417 0.442071
C122  C     C_R   0.616206 0.740356 0.331313 0.433181
C123  C     C_R   0.677490 0.219831 0.331583 0.442072
C124  C     C_R   0.383791 0.740350 0.668687 0.433184
C125  C     C_R   0.810867 0.747707 0.633901 0.045659
C126  C     C_R   0.179276 0.246288 0.365938 0.046922
C127  C     C_R   0.189133 0.747706 0.366100 0.045662
C128  C     C_R   0.820723 0.246288 0.634062 0.046923
C129  C     C_R   0.310867 0.247707 0.633902 0.045673
C130  C     C_R   0.679278 0.746288 0.365937 0.046922
C131  C     C_R   0.689133 0.247707 0.366099 0.045656
C132  C     C_R   0.320722 0.746289 0.634063 0.046924
C133  C     C_R   0.833303 0.775874 0.665615 -0.087853
C134  C     C_R   0.209718 0.252773 0.334326 -0.084682
C135  C     C_R   0.166705 0.775874 0.334385 -0.087856
C136  C     C_R   0.790283 0.252777 0.665674 -0.084678
C137  C     C_R   0.333333 0.275873 0.665615 -0.087891
C138  C     C_R   0.709715 0.752787 0.334325 -0.084669
C139  C     C_R   0.666681 0.275873 0.334385 -0.087848
C140  C     C_R   0.290286 0.752793 0.665674 -0.084666
C141  C     C_R   0.866750 0.776634 0.730213 -0.272718
C142  C     C_R   0.178688 0.253465 0.269738 -0.289029
C143  C     C_R   0.133258 0.776634 0.269787 -0.272717
C144  C     C_R   0.821313 0.253470 0.730262 -0.289029
C145  C     C_R   0.366771 0.276633 0.730213 -0.272700
C146  C     C_R   0.678684 0.753479 0.269738 -0.289032
C147  C     C_R   0.633234 0.276633 0.269787 -0.272720
C148  C     C_R   0.321317 0.753485 0.730262 -0.289038
C149  C     C_R   0.880463 0.749100 0.764126 -0.232513
C150  C     C_R   0.116308 0.248968 0.235759 -0.238370
C151  C     C_R   0.119537 0.749100 0.235874 -0.232518
C152  C     C_R   0.883692 0.248968 0.764241 -0.238363
C153  C     C_R   0.380463 0.249101 0.764127 -0.232502
C154  C     C_R   0.616309 0.748968 0.235758 -0.238351
C155  C     C_R   0.619537 0.249100 0.235874 -0.232503
C156  C     C_R   0.383691 0.748968 0.764242 -0.238341
C157  C     C_R   0.726299 0.766817 0.531617 0.301932
C158  C     C_R   0.265239 0.228129 0.468226 0.300508
C159  C     C_R   0.273707 0.766813 0.468384 0.301933
C160  C     C_R   0.734756 0.228131 0.531774 0.300508
C161  C     C_R   0.226314 0.266826 0.531617 0.301931
C162  C     C_R   0.765255 0.728139 0.468226 0.300507
C163  C     C_R   0.773690 0.266823 0.468383 0.301934
C164  C     C_R   0.234739 0.728143 0.531775 0.300508
C165  C     C_R   0.500000 0.665806 0.000000 0.838639
C166  C     C_R   0.500000 0.334193 1.000000 0.828059
C167  C     C_R   0.000000 0.165806 1.000000 0.838638
C168  C     C_R   1.000000 0.834193 0.000000 0.828071
C169  C     C_R   0.695470 0.766697 0.466314 0.479868
C170  C     C_R   0.297624 0.229274 0.533519 0.479574
C171  C     C_R   0.304535 0.766693 0.533686 0.479866
C172  C     C_R   0.702372 0.229277 0.466481 0.479574
C173  C     C_R   0.195485 0.266706 0.466315 0.479868
C174  C     C_R   0.797638 0.729284 0.533518 0.479576
C175  C     C_R   0.804519 0.266703 0.533685 0.479866
C176  C     C_R   0.202356 0.729288 0.466482 0.479574
C177  C     C_R   0.713855 0.746928 0.434669 -0.217919
C178  C     C_R   0.277522 0.247911 0.565170 -0.217778
C179  C     C_R   0.286144 0.746929 0.565331 -0.217920
C180  C     C_R   0.722478 0.247910 0.434830 -0.217782
C181  C     C_R   0.213855 0.246928 0.434669 -0.217916
C182  C     C_R   0.777522 0.747910 0.565169 -0.217780
C183  C     C_R   0.786145 0.246928 0.565331 -0.217918
C184  C     C_R   0.222478 0.747910 0.434831 -0.217781
C185  C     C_R   0.450332 0.416961 0.951982 0.530491
C186  C     C_R   0.450207 0.583034 0.952138 0.531562
C187  C     C_R   0.549655 0.416961 0.048031 0.530454
C188  C     C_R   0.549792 0.583035 0.047870 0.531565
C189  C     C_R   0.950329 0.916962 0.951978 0.530492
C190  C     C_R   0.950199 0.083033 0.952145 0.531602
C191  C     C_R   0.049671 0.916962 0.048022 0.530484
C192  C     C_R   0.049801 0.083033 0.047855 0.531599
C193  C     C_R   0.499992 0.433532 0.000008 -0.159451
C194  C     C_R   0.499999 0.566463 0.000005 -0.161201
C195  C     C_R   1.000000 0.933532 0.000000 -0.159536
C196  C     C_R   0.000000 0.066462 1.000000 -0.161268
C197  C     C_R   0.465306 0.483838 0.018998 -0.118888
C198  C     C_R   0.534686 0.516154 0.981017 -0.117705
C199  C     C_R   0.534686 0.483836 0.981019 -0.118710
C200  C     C_R   0.465309 0.516156 0.018999 -0.117659
C201  C     C_R   0.965415 0.983837 0.019117 -0.118770
C202  C     C_R   0.034583 0.016155 0.980881 -0.117670
C203  C     C_R   0.034585 0.983837 0.980883 -0.118761
C204  C     C_R   0.965417 0.016155 0.019119 -0.117667
C205  C     C_R   0.500000 0.833990 0.000000 0.805932
C206  C     C_R   0.500000 0.166012 1.000000 0.831179
C207  C     C_R   0.000000 0.333990 0.000000 0.805959
C208  C     C_R   1.000000 0.666012 1.000000 0.831207
C209  C     C_R   0.551059 0.115543 0.008181 0.417504
C210  C     C_R   0.551007 0.884463 0.008046 0.406315
C211  C     C_R   0.448940 0.115543 0.991817 0.417508
C212  C     C_R   0.448992 0.884463 0.991953 0.406315
C213  C     C_R   0.051038 0.615542 0.008129 0.417477
C214  C     C_R   0.050991 0.384464 0.008004 0.406301
C215  C     C_R   0.948959 0.615543 0.991869 0.417481
C216  C     C_R   0.949009 0.384464 0.991996 0.406299
C217  C     C_R   0.550480 0.083183 0.006575 0.463759
C218  C     C_R   0.550426 0.916824 0.006442 0.459016
C219  C     C_R   0.449519 0.083183 0.993423 0.463759
C220  C     C_R   0.449572 0.916824 0.993556 0.459006
C221  C     C_R   0.050456 0.583182 0.006515 0.463743
C222  C     C_R   0.050407 0.416824 0.006394 0.458996
C223  C     C_R   0.949541 0.583183 0.993482 0.463739
C224  C     C_R   0.949593 0.416824 0.993607 0.459002
C225  C     C_R   0.499999 0.066791 0.999999 -0.350738
C226  C     C_R   0.499999 0.933216 0.999999 -0.347591
C227  C     C_R   0.999998 0.566790 0.999998 -0.350720
C228  C     C_R   0.000000 0.433216 0.000000 -0.347575
C229  C     C_R   0.500000 0.131989 1.000000 -0.431324
C230  C     C_R   0.500000 0.868016 1.000000 -0.433417
C231  C     C_R   0.999999 0.631988 0.999999 -0.431347
C232  C     C_R   0.000000 0.368016 0.000000 -0.433446
C233  C     C_R   0.524265 0.016187 0.056845 0.445172
C234  C     C_R   0.475727 0.983820 0.943152 0.444692
C235  C     C_R   0.475734 0.016187 0.943153 0.445170
C236  C     C_R   0.524271 0.983820 0.056846 0.444696
C237  C     C_R   0.024356 0.516187 0.056855 0.445185
C238  C     C_R   0.975636 0.483820 0.943144 0.444699
C239  C     C_R   0.975641 0.516186 0.943144 0.445162
C240  C     C_R   0.024363 0.483821 0.056856 0.444692
H1    H     H_    0.412780 0.372278 0.916238 0.198628
H2    H     H_    0.412543 0.627715 0.916527 0.201195
H3    H     H_    0.587217 0.372278 0.083766 0.198625
H4    H     H_    0.587456 0.627716 0.083477 0.201194
H5    H     H_    0.912767 0.872279 0.916236 0.198627
H6    H     H_    0.912532 0.127715 0.916540 0.201198
H7    H     H_    0.087232 0.872279 0.083765 0.198628
H8    H     H_    0.087468 0.127715 0.083460 0.201198
H9    H     H_    0.761160 0.672497 0.075604 0.237806
H10   H     H_    0.238445 0.327356 0.923902 0.240342
H11   H     H_    0.238846 0.672494 0.924406 0.237807
H12   H     H_    0.761561 0.327353 0.076107 0.240344
H13   H     H_    0.261149 0.172492 0.075583 0.237801
H14   H     H_    0.738433 0.827351 0.923883 0.240338
H15   H     H_    0.738848 0.172493 0.924412 0.237801
H16   H     H_    0.261563 0.827354 0.076107 0.240340
H17   H     H_    0.825254 0.797348 0.640187 0.207350
H18   H     H_    0.257686 0.257542 0.359828 0.206717
H19   H     H_    0.174760 0.797349 0.359813 0.207349
H20   H     H_    0.742316 0.257549 0.640172 0.206714
H21   H     H_    0.325291 0.297345 0.640187 0.207362
H22   H     H_    0.757679 0.757565 0.359828 0.206715
H23   H     H_    0.674718 0.297346 0.359813 0.207350
H24   H     H_    0.242324 0.757576 0.640173 0.206713
H25   H     H_    0.883218 0.798639 0.753755 0.200004
H26   H     H_    0.203104 0.258244 0.246248 0.198282
H27   H     H_    0.116795 0.798640 0.246245 0.200007
H28   H     H_    0.796898 0.258251 0.753752 0.198276
H29   H     H_    0.383255 0.298637 0.753755 0.199993
H30   H     H_    0.703097 0.758268 0.246247 0.198269
H31   H     H_    0.616754 0.298638 0.246245 0.199995
H32   H     H_    0.296906 0.758279 0.753753 0.198263
H33   H     H_    0.438397 0.471438 0.033729 0.206054
H34   H     H_    0.561594 0.528553 0.966283 0.206705
H35   H     H_    0.561593 0.471434 0.966289 0.206047
H36   H     H_    0.438403 0.528557 0.033732 0.206711
H37   H     H_    0.938589 0.971436 0.033947 0.205986
H38   H     H_    0.061408 0.028555 0.966048 0.206648
H39   H     H_    0.061410 0.971436 0.966052 0.205986
H40   H     H_    0.938593 0.028555 0.033952 0.206648
H41   H     H_    0.563005 0.652079 0.885649 0.235222
H42   H     H_    0.436578 0.348197 0.113574 0.223643
H43   H     H_    0.437003 0.652084 0.114365 0.235221
H44   H     H_    0.563428 0.348201 0.886441 0.223643
H45   H     H_    0.062991 0.152087 0.885624 0.235218
H46   H     H_    0.936560 0.848207 0.113551 0.223644
H47   H     H_    0.937005 0.152086 0.114372 0.235214
H48   H     H_    0.063431 0.848203 0.886442 0.223642
O1    O     O_3   0.500000 0.749970 0.000000 -0.534926
O2    O     O_3   0.500000 0.250030 0.000000 -0.537901
O3    O     O_3   0.000000 0.249970 0.000000 -0.534928
O4    O     O_3   0.000000 0.750030 0.000000 -0.537903
O5    O     O_R   0.402360 0.768140 0.036330 -0.555435
O6    O     O_R   0.597640 0.231860 0.963670 -0.571846
O7    O     O_R   0.597640 0.768140 0.963670 -0.555438
O8    O     O_R   0.402360 0.231860 0.036330 -0.571847
O9    O     O_R   0.902360 0.268140 0.036330 -0.555427
O10   O     O_R   0.097640 0.731860 0.963670 -0.571839
O11   O     O_R   0.097640 0.268140 0.963670 -0.555430
O12   O     O_R   0.902360 0.731860 0.036330 -0.571840
O13   O     O_R   0.400350 0.731780 0.861400 -0.639392
O14   O     O_R   0.599650 0.268220 0.138600 -0.641646
O15   O     O_R   0.599650 0.731780 0.138600 -0.639398
O16   O     O_R   0.400350 0.268220 0.861400 -0.641644
O17   O     O_R   0.900350 0.231780 0.861400 -0.639404
O18   O     O_R   0.099650 0.768220 0.138600 -0.641657
O19   O     O_R   0.099650 0.231780 0.138600 -0.639406
O20   O     O_R   0.900350 0.768220 0.861400 -0.641655
O21   O     O_R   0.451490 0.680670 0.963650 -0.646016
O22   O     O_R   0.548510 0.319330 0.036350 -0.650839
O23   O     O_R   0.548510 0.680670 0.036350 -0.646019
O24   O     O_R   0.451490 0.319330 0.963650 -0.650838
O25   O     O_R   0.951490 0.180670 0.963650 -0.646019
O26   O     O_R   0.048510 0.819330 0.036350 -0.650838
O27   O     O_R   0.048510 0.180670 0.036350 -0.646019
O28   O     O_R   0.951490 0.819330 0.963650 -0.650840
O29   O     O_R   0.487790 0.819270 0.036340 -0.613956
O30   O     O_R   0.512210 0.180730 0.963660 -0.600062
O31   O     O_R   0.512210 0.819270 0.963660 -0.613960
O32   O     O_R   0.487790 0.180730 0.036340 -0.600070
O33   O     O_R   0.987790 0.319270 0.036340 -0.613950
O34   O     O_R   0.012210 0.680730 0.963660 -0.600053
O35   O     O_R   0.012210 0.319270 0.963660 -0.613956
O36   O     O_R   0.987790 0.680730 0.036340 -0.600056
O37   O     O_R   0.461070 0.768120 0.861410 -0.588173
O38   O     O_R   0.538930 0.231880 0.138590 -0.581546
O39   O     O_R   0.538930 0.768120 0.138590 -0.588162
O40   O     O_R   0.461070 0.231880 0.861410 -0.581551
O41   O     O_R   0.961070 0.268120 0.861410 -0.588146
O42   O     O_R   0.038930 0.731880 0.138590 -0.581523
O43   O     O_R   0.038930 0.268120 0.138590 -0.588139
O44   O     O_R   0.961070 0.731880 0.861410 -0.581528
O45   O     O_R   0.366040 0.731790 0.963660 -0.674778
O46   O     O_R   0.633960 0.268210 0.036340 -0.664870
O47   O     O_R   0.633960 0.731790 0.036340 -0.674778
O48   O     O_R   0.366040 0.268210 0.963660 -0.664869
O49   O     O_R   0.866040 0.231790 0.963660 -0.674780
O50   O     O_R   0.133960 0.768210 0.036340 -0.664874
O51   O     O_R   0.133960 0.231790 0.036340 -0.674779
O52   O     O_R   0.866040 0.768210 0.963660 -0.664874
Zn1   Zn    Zn3+2 0.517420 0.775920 0.948090 1.089562
Zn2   Zn    Zn3+2 0.482580 0.224080 0.051910 1.104105
Zn3   Zn    Zn3+2 0.482580 0.775920 0.051910 1.089567
Zn4   Zn    Zn3+2 0.517420 0.224080 0.948090 1.104106
Zn5   Zn    Zn3+2 0.017420 0.275920 0.948090 1.089578
Zn6   Zn    Zn3+2 0.982580 0.724080 0.051910 1.104121
Zn7   Zn    Zn3+2 0.982580 0.275920 0.051910 1.089584
Zn8   Zn    Zn3+2 0.017420 0.724080 0.948090 1.104119
Zn9   Zn    Zn3+2 0.430670 0.724000 0.948080 1.000609
Zn10  Zn    Zn3+2 0.569330 0.276000 0.051920 0.998844
Zn11  Zn    Zn3+2 0.569330 0.724000 0.051920 1.000604
Zn12  Zn    Zn3+2 0.430670 0.276000 0.948080 0.998847
Zn13  Zn    Zn3+2 0.930670 0.224000 0.948080 1.000592
Zn14  Zn    Zn3+2 0.069330 0.776000 0.051920 0.998832
Zn15  Zn    Zn3+2 0.069330 0.224000 0.051920 1.000592
Zn16  Zn    Zn3+2 0.930670 0.776000 0.948080 0.998833
F1    F     F_    0.715856 0.617621 0.070881 -0.557125
F2    F     F_    0.283399 0.382275 0.928179 -0.558022
F3    F     F_    0.284155 0.617618 0.929138 -0.557127
F4    F     F_    0.716611 0.382273 0.071840 -0.558016
F5    F     F_    0.215837 0.117616 0.070846 -0.557122
F6    F     F_    0.783375 0.882273 0.928148 -0.558005
F7    F     F_    0.784158 0.117617 0.929148 -0.557120
F8    F     F_    0.216614 0.882274 0.071838 -0.558007
F9    F     F_    0.301223 0.195065 0.993507 -0.615672
F10   F     F_    0.698712 0.804937 0.006386 -0.622239
F11   F     F_    0.698775 0.195065 0.006488 -0.615671
F12   F     F_    0.301285 0.804937 0.993607 -0.622241
F13   F     F_    0.801230 0.695065 0.993521 -0.615678
F14   F     F_    0.198719 0.304937 0.006400 -0.622253
F15   F     F_    0.198773 0.695065 0.006485 -0.615681
F16   F     F_    0.801284 0.304937 0.993605 -0.622249
F17   F     F_    0.870696 0.694048 0.766039 -0.587427
F18   F     F_    0.024718 0.237559 0.233486 -0.558485
F19   F     F_    0.129290 0.694047 0.233962 -0.587423
F20   F     F_    0.975279 0.237551 0.766515 -0.558486
F21   F     F_    0.370657 0.194052 0.766041 -0.587438
F22   F     F_    0.524727 0.737534 0.233484 -0.558497
F23   F     F_    0.629333 0.194051 0.233960 -0.587434
F24   F     F_    0.475269 0.737522 0.766517 -0.558504
O53   O     O_3   0.798750 0.691480 0.641296 -0.629635
H49   H     H_    0.764141 0.694739 0.598749 0.346186
O54   O     O_3   0.083489 0.231718 0.358332 -0.629283
H50   H     H_    0.111350 0.224154 0.400966 0.346336
O55   O     O_3   0.201235 0.691478 0.358705 -0.629638
H51   H     H_    0.235844 0.694735 0.401253 0.346187
O56   O     O_3   0.916508 0.231709 0.641668 -0.629283
H52   H     H_    0.888644 0.224147 0.599034 0.346336
O57   O     O_3   0.298709 0.191485 0.641298 -0.629633
H53   H     H_    0.264102 0.194747 0.598750 0.346186
O58   O     O_3   0.583501 0.731692 0.358331 -0.629283
H54   H     H_    0.611368 0.724130 0.400965 0.346336
O59   O     O_3   0.701281 0.191483 0.358702 -0.629634
H55   H     H_    0.735887 0.194745 0.401250 0.346187
O60   O     O_3   0.416493 0.731680 0.641670 -0.629286
H56   H     H_    0.388623 0.724120 0.599035 0.346336
O61   O     O_3   0.707030 0.784688 0.563794 -0.700346
H57   H     H_    0.670353 0.796339 0.534103 0.410069
O62   O     O_3   0.282032 0.208624 0.436060 -0.703246
H58   H     H_    0.318277 0.196689 0.465752 0.409212
O63   O     O_3   0.292981 0.784680 0.436206 -0.700344
H59   H     H_    0.329662 0.796329 0.465897 0.410069
O64   O     O_3   0.717959 0.208629 0.563941 -0.703245
H60   H     H_    0.681711 0.196696 0.534249 0.409212
O65   O     O_3   0.207059 0.284708 0.563795 -0.700348
H61   H     H_    0.170391 0.296365 0.534104 0.410069
O66   O     O_3   0.782063 0.708643 0.436059 -0.703242
H62   H     H_    0.818317 0.696713 0.465751 0.409212
O67   O     O_3   0.792949 0.284702 0.436205 -0.700345
H63   H     H_    0.829620 0.296358 0.465896 0.410069
O68   O     O_3   0.217924 0.708651 0.563942 -0.703242
H64   H     H_    0.181666 0.696724 0.534250 0.409212
F25   F     F_    0.647330 0.785713 0.433322 -0.604407
F26   F     F_    0.348650 0.212154 0.566501 -0.605152
F27   F     F_    0.352683 0.785705 0.566678 -0.604407
F28   F     F_    0.651343 0.212159 0.433499 -0.605154
F29   F     F_    0.147359 0.285731 0.433323 -0.604407
F30   F     F_    0.848677 0.712173 0.566500 -0.605152
F31   F     F_    0.852650 0.285725 0.566677 -0.604408
F32   F     F_    0.151312 0.712181 0.433500 -0.605154
O69   O     O_3   0.400448 0.431052 0.903067 -0.685606
H65   H     H_    0.406525 0.453689 0.904016 0.356461
O70   O     O_3   0.400196 0.568943 0.903368 -0.682561
H66   H     H_    0.406346 0.546317 0.904178 0.356468
O71   O     O_3   0.599537 0.431053 0.096947 -0.685605
H67   H     H_    0.593433 0.453686 0.096029 0.356448
O72   O     O_3   0.599802 0.568944 0.096641 -0.682558
H68   H     H_    0.593653 0.546318 0.095832 0.356469
O73   O     O_3   0.900433 0.931054 0.903070 -0.685540
H69   H     H_    0.906508 0.953691 0.904031 0.356475
O74   O     O_3   0.900176 0.068942 0.903390 -0.682521
H70   H     H_    0.906300 0.046313 0.904233 0.356496
O75   O     O_3   0.099566 0.931054 0.096931 -0.685544
H71   H     H_    0.093491 0.953691 0.095971 0.356474
O76   O     O_3   0.099824 0.068942 0.096609 -0.682523
H72   H     H_    0.093701 0.046313 0.095767 0.356496
O77   O     O_3   0.603131 0.130092 0.018558 -0.609103
H73   H     H_    0.605504 0.151181 0.035030 0.351925
O78   O     O_3   0.603034 0.869916 0.018291 -0.616926
H74   H     H_    0.605474 0.848837 0.034838 0.345854
O79   O     O_3   0.396867 0.130091 0.981440 -0.609104
H75   H     H_    0.394496 0.151182 0.964974 0.351929
O80   O     O_3   0.396966 0.869915 0.981709 -0.616923
H76   H     H_    0.394525 0.848837 0.965160 0.345851
O81   O     O_3   0.103094 0.630091 0.018457 -0.609073
H77   H     H_    0.105497 0.651174 0.034971 0.351933
O82   O     O_3   0.103004 0.369916 0.018211 -0.616902
H78   H     H_    0.105467 0.348843 0.034788 0.345880
O83   O     O_3   0.896903 0.630092 0.981541 -0.609073
H79   H     H_    0.894503 0.651175 0.965032 0.351936
O84   O     O_3   0.896996 0.369916 0.981790 -0.616902
H80   H     H_    0.894532 0.348843 0.965211 0.345878
O85   O     O_3   0.601247 0.068667 0.013234 -0.627638
H81   H     H_    0.595841 0.045954 0.009733 0.354122
O86   O     O_3   0.601142 0.931340 0.012973 -0.631693
H82   H     H_    0.595755 0.954055 0.009534 0.354153
O87   O     O_3   0.398751 0.068667 0.986763 -0.627640
H83   H     H_    0.404157 0.045954 0.990263 0.354123
O88   O     O_3   0.398856 0.931339 0.987025 -0.631696
H84   H     H_    0.404241 0.954054 0.990461 0.354154
O89   O     O_3   0.101198 0.568666 0.013112 -0.627640
H85   H     H_    0.095782 0.545954 0.009590 0.354125
O90   O     O_3   0.101102 0.431340 0.012873 -0.631695
H86   H     H_    0.095704 0.454054 0.009410 0.354157
O91   O     O_3   0.898798 0.568667 0.986885 -0.627640
H87   H     H_    0.904211 0.545954 0.990401 0.354126
O92   O     O_3   0.898899 0.431340 0.987128 -0.631695
H88   H     H_    0.904296 0.454054 0.990591 0.354157
O93   O     O_3   0.548561 0.030712 0.113959 -0.627706
H89   H     H_    0.545936 0.053468 0.109135 0.358703
O94   O     O_3   0.451417 0.969295 0.886037 -0.632667
H90   H     H_    0.453978 0.946539 0.890855 0.354313
O95   O     O_3   0.451439 0.030712 0.886039 -0.627706
H91   H     H_    0.454063 0.053468 0.890862 0.358704
O96   O     O_3   0.548580 0.969295 0.113961 -0.632665
H92   H     H_    0.546016 0.946539 0.109142 0.354313
O97   O     O_3   0.048742 0.530712 0.113977 -0.627715
H93   H     H_    0.046101 0.553468 0.109155 0.358702
O98   O     O_3   0.951235 0.469295 0.886019 -0.632679
H94   H     H_    0.953829 0.446539 0.890839 0.354311
O99   O     O_3   0.951253 0.530712 0.886020 -0.627716
H95   H     H_    0.953892 0.553467 0.890843 0.358703
O100  O     O_3   0.048764 0.469296 0.113981 -0.632678
H96   H     H_    0.046173 0.446539 0.109162 0.354312
F33   F     F_    0.606343 0.605978 0.964793 -0.613972
F34   F     F_    0.392890 0.394157 0.034120 -0.616910
F35   F     F_    0.393670 0.605980 0.035227 -0.613980
F36   F     F_    0.607119 0.394158 0.965902 -0.616889
F37   F     F_    0.106321 0.105981 0.964755 -0.613965
F38   F     F_    0.892862 0.894163 0.034087 -0.616880
F39   F     F_    0.893673 0.105980 0.035238 -0.613964
F40   F     F_    0.107124 0.894160 0.965901 -0.616887
F41   F     F_    0.607793 0.706782 0.888768 -0.593408
F42   F     F_    0.392126 0.293452 0.110901 -0.644510
F43   F     F_    0.392210 0.706787 0.111238 -0.593408
F44   F     F_    0.607876 0.293456 0.889105 -0.644514
F45   F     F_    0.107787 0.206790 0.888757 -0.593408
F46   F     F_    0.892119 0.793460 0.110890 -0.644510
F47   F     F_    0.892211 0.206789 0.111240 -0.593416
F48   F     F_    0.107877 0.793457 0.889106 -0.644509

loop_
_geom_bond_atom_site_label_1
_geom_bond_atom_site_label_2
_ccdc_geom_bond_type
C101  C107  A    
O88   H84   S    
C127  C184  S    
C13   C200  A    
O71   H67   S    
C148  H32   S    
C34   C42   A    
O72   H68   S    
C110  C118  A    
C99   C187  A    
C103  C191  A    
C83   C154  S    
O93   H89   S    
C97   C185  A    
C10   C235  A    
C170  F26   S    
C81   C156  S    
C170  C178  A    
C67   F11   S    
C100  C188  A    
C50   F2    S    
C101  C189  A    
C174  F30   S    
O3    Zn15  S    
C233  O93   S    
C223  O91   S    
C30   C38   A    
C40   C48   A    
O87   H83   S    
C192  O76   S    
C26   F42   S    
C52   F4    S    
C162  C177  A    
C218  O86   S    
C214  C222  A    
C157  C169  A    
C61   F37   S    
C8    O52   A    
O59   H55   S    
C18   C58   A    
C11   C228  S    
C102  H6    S    
C136  H20   S    
C9    C226  S    
O48   Zn12  S    
C147  C155  A    
C123  O59   S    
C205  O29   A    
O4    Zn8   S    
C143  C151  A    
C214  C232  A    
C28   F44   S    
C81   O37   A    
C224  C228  A    
C41   C49   A    
O40   Zn4   S    
C172  F28   S    
C68   C95   A    
C115  C123  A    
C202  C203  A    
C109  C117  A    
O90   H86   S    
C146  H30   S    
C113  F21   S    
O23   Zn11  S    
C30   F46   S    
C112  C120  A    
C72   C91   A    
C12   C227  S    
C212  C220  A    
C27   C35   A    
O77   H73   S    
C21   C29   A    
C103  H7    S    
C222  O90   S    
C81   O13   A    
C23   C31   A    
C216  C224  A    
C130  C177  S    
C191  O75   S    
C109  C149  A    
C134  H18   S    
C165  O21   A    
C25   C33   A    
C160  C172  A    
O4    Zn16  S    
O2    Zn4   S    
C70   F14   S    
C164  C179  A    
C15   C196  S    
C36   C91   S    
C31   F47   S    
C64   F40   S    
C115  C155  A    
C13   C194  S    
C49   F1    S    
O57   H53   S    
C36   C44   A    
C168  O26   A    
C157  C182  A    
C40   C95   S    
C37   C45   A    
O56   H52   S    
C130  C138  A    
O96   H92   S    
C39   C47   A    
C129  C178  S    
C176  C184  A    
C10   C233  A    
C125  C182  S    
C97   C105  A    
O5    Zn3   S    
O74   H70   S    
O2    Zn12  S    
C110  C150  A    
O1    Zn9   S    
C83   O15   A    
C19   H43   S    
C14   C199  A    
C221  C227  A    
C100  C106  A    
C98   C106  A    
C221  O89   S    
C74   C90   A    
C17   C25   A    
C16   C195  S    
O65   H61   S    
C88   O44   A    
C214  O82   S    
C211  C229  A    
O49   Zn13  S    
C78   C94   A    
O45   Zn9   S    
O81   H77   S    
O22   Zn10  S    
C185  O69   S    
C54   F6    S    
C205  O31   A    
C43   H11   S    
C86   O18   A    
C206  O32   A    
C126  C134  A    
C98   C186  A    
O15   Zn11  S    
C103  C107  A    
O67   H63   S    
C114  C154  A    
C2    C75   S    
C209  C217  A    
C104  C192  A    
C199  H35   S    
O69   H65   S    
C139  H23   S    
O27   Zn15  S    
C88   C149  S    
C86   O42   A    
C69   C77   A    
C109  F17   S    
C163  C175  A    
C174  C182  A    
C71   C79   A    
O63   H59   S    
C224  O92   S    
O73   H69   S    
C65   F9    S    
C223  C227  A    
O62   H58   S    
C165  O23   A    
O35   Zn5   S    
C207  O35   A    
C105  C166  S    
C124  C132  A    
C111  C119  A    
O2    Zn2   S    
O8    Zn2   S    
C3    C74   S    
C52   C60   A    
C84   O16   A    
C53   C61   A    
C158  O62   S    
C8    O12   A    
C148  C156  A    
C55   C63   A    
C56   C64   A    
C168  O28   A    
C22   H46   S    
C72   F16   S    
O10   Zn8   S    
C213  C231  A    
C75   C91   A    
C44   C52   A    
C135  C143  A    
C107  C168  S    
O25   Zn13  S    
C60   F36   S    
O31   Zn1   S    
C206  C229  S    
C186  O70   S    
O50   Zn14  S    
C171  C179  A    
C128  C183  S    
C169  F25   S    
O1    Zn11  S    
C169  C177  A    
C51   C59   A    
O19   Zn15  S    
C14   C197  A    
C122  O58   S    
C116  C156  A    
C63   F39   S    
C65   C73   A    
C158  C170  A    
C208  C231  S    
C19   C59   A    
C11   C240  A    
O30   Zn4   S    
O6    Zn4   S    
C162  O66   S    
C6    O50   A    
C1    O45   A    
O100  H96   S    
C206  O30   A    
C3    O47   A    
C110  F18   S    
O99   H95   S    
C129  C137  A    
C28   C36   A    
C4    C73   S    
C45   H13   S    
C42   C50   A    
C66   C93   A    
C82   C155  S    
C87   O43   A    
O44   Zn8   S    
C88   O20   A    
C8    C77   S    
C70   C89   A    
C67   C75   A    
O7    Zn1   S    
O38   Zn2   S    
O12   Zn6   S    
O33   Zn7   S    
C22   C30   A    
C1    C76   S    
C186  C194  A    
C142  H26   S    
C49   C57   A    
C131  C180  S    
C68   C76   A    
C211  C219  A    
C135  H19   S    
C207  O33   A    
C1    O5    A    
C55   F7    S    
O42   Zn6   S    
C34   C89   S    
C157  O61   S    
C144  C152  A    
O61   H57   S    
C138  C146  A    
C38   C93   S    
C23   C63   A    
C218  C226  A    
C82   O38   A    
C158  C181  A    
C191  C195  A    
C38   C46   A    
C131  C139  A    
C213  O81   S    
O84   H80   S    
C113  C121  A    
O83   H79   S    
C140  H24   S    
C237  C240  A    
C173  F29   S    
C126  C181  S    
C97   H1    S    
O3    Zn13  S    
C117  C125  A    
C187  C193  A    
C82   O14   A    
C217  C225  A    
C119  C127  A    
C24   H48   S    
C2    O46   A    
O98   H94   S    
C18   C26   A    
C25   F41   S    
C101  H5    S    
C71   F15   S    
C144  H28   S    
C11   C238  A    
O11   Zn5   S    
C159  C171  A    
C238  O98   S    
C192  C196  A    
C137  C145  A    
C127  C135  A    
C128  C136  A    
C207  C232  S    
O4    Zn6   S    
C239  O99   S    
C57   F33   S    
C215  O83   S    
C48   C56   A    
C5    O9    A    
C147  H31   S    
C201  H37   S    
C213  C221  A    
C210  O78   S    
C138  H22   S    
C203  H39   S    
C104  H8    S    
C87   C150  S    
C10   C225  S    
O36   Zn6   S    
C112  C152  A    
C159  C184  A    
C20   C60   A    
O16   Zn12  S    
C160  C183  A    
C21   C61   A    
C17   H41   S    
C35   C92   S    
C172  C180  A    
C133  H17   S    
C47   C55   A    
C173  C181  A    
O86   H82   S    
C24   C64   A    
C219  O87   S    
C220  O88   S    
C208  O36   A    
C141  C149  A    
O82   H78   S    
C114  F22   S    
C106  C165  S    
C237  O97   S    
O37   Zn1   S    
C185  C193  A    
C29   F45   S    
O34   Zn8   S    
C54   C62   A    
C121  O57   S    
C217  O85   S    
O89   H85   S    
C215  C223  A    
C50   C58   A    
C197  C200  A    
O78   H74   S    
C47   H15   S    
O97   H93   S    
C62   F38   S    
C134  C142  A    
C161  C173  A    
C84   C153  S    
C189  C195  A    
O14   Zn10  S    
C222  C228  A    
C59   F35   S    
C46   C54   A    
C210  C230  A    
C161  O65   S    
C69   F13   S    
C198  H34   S    
O3    Zn5   S    
C12   C237  A    
O9    Zn7   S    
C14   C193  S    
C7    O11   A    
C234  C235  A    
C16   C201  A    
C104  C108  A    
C111  F19   S    
O55   H51   S    
C68   F12   S    
C238  C239  A    
C211  O79   S    
C212  O80   S    
C116  C124  A    
C123  C131  A    
C9    C234  A    
C187  O71   S    
O2    Zn10  S    
C164  O68   S    
C121  C129  A    
O28   Zn16  S    
C166  O22   A    
O60   H56   S    
C120  C128  A    
C132  C140  A    
C20   C28   A    
C133  C141  A    
O21   Zn9   S    
C167  O27   A    
C142  C150  A    
O17   Zn13  S    
C85   C152  S    
C73   C89   A    
C136  C144  A    
C86   C151  S    
C43   C51   A    
C6    C79   S    
O46   Zn10  S    
C220  C226  A    
C77   C93   A    
C102  C190  A    
C164  C176  A    
C171  F27   S    
C99   H3    S    
C115  F23   S    
O3    Zn7   S    
C3    O7    A    
C23   H47   S    
C42   H10   S    
C72   C80   A    
C29   C37   A    
O68   H64   S    
C112  F20   S    
C20   H44   S    
C161  C178  A    
C21   H45   S    
C46   H14   S    
C17   C57   A    
C66   C74   A    
C166  O24   A    
C58   F34   S    
C70   C78   A    
C2    O6    A    
O64   H60   S    
O26   Zn14  S    
C85   O41   A    
O94   H90   S    
C98   H2    S    
O13   Zn9   S    
C140  C148  A    
C24   C32   A    
C15   C204  A    
C189  O73   S    
O58   H54   S    
C240  O100  S    
C66   F10   S    
C79   C95   A    
C216  O84   S    
C139  C147  A    
C215  C231  A    
C118  O54   S    
C204  H40   S    
C87   O19   A    
C197  H33   S    
C145  H29   S    
C111  C151  A    
O1    Zn1   S    
O29   Zn3   S    
C44   H12   S    
C12   C239  A    
C146  C154  A    
O66   H62   S    
C102  C108  A    
C198  C199  A    
C48   H16   S    
C16   C203  A    
C19   C27   A    
C190  C196  A    
C145  C153  A    
C188  C194  A    
O51   Zn15  S    
C9    C236  A    
C205  C230  S    
O32   Zn2   S    
C119  O55   S    
C26   C34   A    
C99   C105  A    
O18   Zn14  S    
C13   C198  A    
C71   C92   A    
C167  O25   A    
C53   F5    S    
C33   C41   A    
C6    O10   A    
O70   H66   S    
C202  H38   S    
O95   H91   S    
C200  H36   S    
C188  O72   S    
C117  O53   S    
O20   Zn16  S    
C163  O67   S    
C141  H25   S    
C7    O51   A    
O47   Zn11  S    
C176  F32   S    
C22   C62   A    
C120  O56   S    
C212  C230  A    
C233  C236  A    
C124  O60   S    
O92   H88   S    
C18   H42   S    
C83   O39   A    
O91   H87   S    
O52   Zn16  S    
C27   F43   S    
C209  C229  A    
C219  C225  A    
C5    C80   S    
C76   C92   A    
C7    C78   S    
O39   Zn3   S    
C65   C94   A    
C108  C167  S    
C4    O48   A    
C67   C96   A    
C201  C204  A    
C80   C96   A    
C51   F3    S    
C69   C90   A    
C159  O63   S    
C5    O49   A    
C15   C202  A    
C35   C43   A    
C85   O17   A    
C125  C133  A    
O24   Zn12  S    
C56   F8    S    
C190  O74   S    
C175  C183  A    
C4    O8    A    
C113  C153  A    
C100  H4    S    
C175  F31   S    
C162  C174  A    
O43   Zn7   S    
C208  O34   A    
C210  C218  A    
C209  O77   S    
C116  F24   S    
O1    Zn3   S    
O41   Zn5   S    
O80   H76   S    
C160  O64   S    
C33   C90   S    
C32   F48   S    
C234  O94   S    
O79   H75   S    
O53   H49   S    
C216  C232  A    
C31   C39   A    
C37   C94   S    
C143  H27   S    
C32   C40   A    
O85   H81   S    
C39   C96   S    
C132  C179  S    
C45   C53   A    
O76   H72   S    
C114  C122  A    
O75   H71   S    
C41   H9    S    
C163  C180  A    
O4    Zn14  S    
C118  C126  A    
C235  O95   S    
C236  O96   S    
C122  C130  A    
C84   O40   A    
O54   H50   S    
C137  H21   S    
