data_mof_unit_7361.cif
_audit_creation_date              2013-03-05T15:40:48-0500
_audit_creation_method            fapswitch 2.2
_symmetry_space_group_name_H-M    P1
_symmetry_Int_Tables_number       1
_space_group_crystal_system       triclinic
_cell_length_a                    7.807346
_cell_length_b                    8.600101
_cell_length_c                    14.950206
_cell_angle_alpha                 91.494707
_cell_angle_beta                  86.530386
_cell_angle_gamma                 92.655554
_cell_volume                      1000.627271

loop_
_atom_site_label
_atom_site_type_symbol
_atom_site_description
_atom_site_fract_x
_atom_site_fract_y
_atom_site_fract_z
_atom_type_partial_charge
O1    O     O_R   0.389250 0.738570 0.505970 -0.626623
O2    O     O_R   0.610750 0.261430 0.494030 -0.626622
O3    O     O_R   0.678390 0.711620 0.490370 -0.604853
O4    O     O_R   0.321610 0.288380 0.509630 -0.604857
C1    C     C_R   0.543590 0.793712 0.496268 0.931061
C2    C     C_R   0.456410 0.206288 0.503732 0.931059
O5    O     O_R   0.355420 0.513510 0.639950 -0.598294
O6    O     O_R   0.644580 0.486490 0.360050 -0.598294
O7    O     O_R   0.644560 0.486560 0.624350 -0.588496
O8    O     O_R   0.355440 0.513440 0.375650 -0.588496
C3    C     C_R   0.502354 0.498427 0.673013 0.867360
C4    C     C_R   0.497646 0.501573 0.326987 0.867359
Zn1   Zn    Zn3+2 0.306940 0.517990 0.510420 1.082036
Zn2   Zn    Zn3+2 0.693060 0.482010 0.489580 1.082038
C5    C     C_R   0.347736 0.453993 0.189232 -0.207891
C6    C     C_R   0.652264 0.546007 0.810768 -0.207891
C7    C     C_R   0.494825 0.506411 0.231347 -0.074192
C8    C     C_R   0.505175 0.493589 0.768652 -0.074192
C9    C     C_R   0.643264 0.558644 0.182026 -0.233524
C10   C     C_R   0.356736 0.441356 0.817974 -0.233524
C11   C     C_R   0.646699 0.556209 0.089502 0.104078
C12   C     C_R   0.353301 0.443791 0.910498 0.104078
C13   C     C_R   0.498652 0.502137 0.046535 0.068340
C14   C     C_R   0.501348 0.497863 0.953464 0.068341
C15   C     C_R   0.348149 0.451736 0.096678 0.094057
C16   C     C_R   0.651851 0.548264 0.903322 0.094057
C17   C     C_R   0.795723 0.605715 0.039452 -0.212502
C18   C     C_R   0.204277 0.394285 0.960548 -0.212502
C19   C     C_R   0.798281 0.601793 0.946430 -0.204417
C20   C     C_R   0.201718 0.398207 0.053570 -0.204418
H1    H     H_    0.235239 0.410735 0.228097 0.227541
H2    H     H_    0.764761 0.589266 0.771903 0.227542
H3    H     H_    0.756266 0.600584 0.215687 0.199051
H4    H     H_    0.243734 0.399415 0.784313 0.199051
H5    H     H_    0.909906 0.647000 0.072204 0.168552
H6    H     H_    0.090094 0.353000 0.927796 0.168552
H7    H     H_    0.914270 0.640405 0.908278 0.173425
H8    H     H_    0.085729 0.359596 0.091721 0.173425
C21   C     C_2   0.558220 0.953459 0.478626 -0.028929
C22   C     C_2   0.441780 0.046541 0.521374 -0.028928
N1    N     N_2   0.950330 0.457950 0.475660 0.050054
N2    N     N_2   0.049670 0.542050 0.524340 0.050054
C23   C     C_3   0.681753 0.001347 0.400204 -0.785261
H9    H     H_    0.725232 0.898622 0.359780 0.232436
H10   H     H_    0.618253 0.076230 0.353880 0.231603
H11   H     H_    0.798015 0.062981 0.425273 0.292213
C24   C     C_3   0.318247 0.998653 0.599796 -0.785265
H12   H     H_    0.274767 0.101377 0.640220 0.232437
H13   H     H_    0.201985 0.937018 0.574727 0.292213
H14   H     H_    0.381747 0.923770 0.646120 0.231603
N3    N     N_R   0.015772 0.436094 0.388511 0.300945
O9    O     O_R   0.012655 0.549323 0.332673 -0.425372
O10   O     O_R   0.034470 0.294989 0.357311 -0.432395
N4    N     N_R   0.984227 0.563908 0.611489 0.300945
O11   O     O_R   0.987350 0.450684 0.667328 -0.425374
O12   O     O_R   0.965519 0.705014 0.642686 -0.432394

loop_
_geom_bond_atom_site_label_1
_geom_bond_atom_site_label_2
_geom_bond_distance
_ccdc_geom_bond_type
C4    C7    1.433052 S    
C22   C24   1.525097 S    
O6    Zn2   1.997185 S    
O7    Zn2   2.027167 S    
C3    C8    1.433052 S    
C5    H1    1.080118 S    
C6    H2    1.080118 S    
C23   H10   1.111097 S    
N1    N2    1.281865 D    
C24   H12   1.111774 S    
O6    C4    1.289539 A    
C13   C14   1.389866 A    
C10   H4    1.084654 S    
C1    C21   1.403835 S    
C11   C17   1.400068 A    
C24   H13   1.109767 S    
C12   C18   1.400068 A    
N2    N4    1.381835 S    
O5    C3    1.289538 A    
O7    C3    1.296615 A    
C20   H8    1.084041 S    
O2    C2    1.275701 A    
O3    Zn2   1.982965 S    
O8    C4    1.296615 A    
C17   H5    1.083956 S    
C23   H9    1.111776 S    
Zn2   N1    2.026389 S    
O1    C1    1.275701 A    
C18   C20   1.389183 A    
Zn1   N2    2.026390 S    
C9    C11   1.381520 A    
C10   C12   1.381520 A    
C24   H14   1.111097 S    
C8    C10   1.397922 A    
C13   C15   1.411976 A    
C11   C13   1.410445 A    
C6    C16   1.383136 A    
O2    Zn2   1.975978 S    
C23   H11   1.109767 S    
C12   C14   1.410444 A    
C5    C15   1.383137 A    
O4    C2    1.291582 A    
C17   C19   1.389183 A    
N3    O10   1.300061 A    
N3    O9    1.301059 A    
O5    Zn1   1.997183 S    
C2    C22   1.403835 S    
O1    Zn1   1.975976 S    
C18   H6    1.083956 S    
C16   C19   1.399715 A    
C6    C8    1.393981 A    
C9    H3    1.084654 S    
C19   H7    1.084041 S    
C21   C22   1.358721 D    
C5    C7    1.393979 A    
N4    O11   1.301058 A    
C15   C20   1.399716 A    
C21   C23   1.525096 S    
C7    C9    1.397922 A    
N1    N3    1.381834 S    
O4    Zn1   1.982966 S    
C14   C16   1.411977 A    
N4    O12   1.300060 A    
O3    C1    1.291583 A    
O8    Zn1   2.027168 S    
