data_mof_unit_53094.cif
_audit_creation_date              2012-10-26T20:51:08-0400
_audit_creation_method            fapswitch 2.2
_symmetry_space_group_name_H-M    P1
_symmetry_Int_Tables_number       1
_space_group_crystal_system       triclinic
_cell_length_a                    12.970725
_cell_length_b                    10.83251
_cell_length_c                    9.545927
_cell_angle_alpha                 89.776376
_cell_angle_beta                  96.290114
_cell_angle_gamma                 91.507463
_cell_volume                      1332.71869188

loop_
_atom_site_label
_atom_site_type_symbol
_atom_type_description
_atom_site_fract_x
_atom_site_fract_y
_atom_site_fract_z
_atom_type_partial_charge
Br1   Br    Br    0.791833 0.363215 0.252358 -0.460480
Br2   Br    Br    0.810188 0.390754 0.840479 -0.473585
C1    C     C_R   0.499034 0.262380 0.499952 0.551073
C2    C     C_R   0.481024 0.935822 0.371921 -0.105319
C3    C     C_R   0.497684 0.870888 0.499314 0.025461
C4    C     C_R   0.300260 0.498589 0.473471 0.533525
C5    C     C_R   0.520514 0.936291 0.625037 0.031137
C6    C     C_3   0.465552 0.929793 0.754629 -0.269120
C7    C     C_3   0.468791 0.069618 0.755569 -0.264800
C8    C     C_R   0.541459 0.599516 0.079347 0.182745
C9    C     C_R   0.450582 0.408762 0.067404 0.001324
C10   C     C_R   0.450707 0.408682 0.918703 0.010226
C11   C     C_R   0.539630 0.599415 0.931082 0.101121
C12   C     C_R   0.026799 0.470610 0.564981 -0.009272
C13   C     C_3   0.646581 0.650815 0.932977 -0.215285
C14   C     C_3   0.653582 0.644331 0.092174 0.131751
C15   C     C_R   0.497168 0.737464 0.499540 0.575255
C16   C     C_R   0.698217 0.483198 0.526245 0.608201
C17   C     C_R   0.810283 0.456693 0.541047 0.027839
C18   C     C_R   0.186968 0.489913 0.457474 0.005699
C19   C     C_R   0.023864 0.463168 0.309878 -0.079532
C20   C     C_R   0.131245 0.479244 0.323506 -0.133327
C21   C     C_R   0.134223 0.486008 0.577708 -0.120718
C22   C     C_R   0.970421 0.458409 0.430267 0.063536
C23   C     C_R   0.862270 0.441242 0.419693 0.129297
C24   C     C_R   0.868426 0.447489 0.674736 0.131777
C25   C     C_R   0.975954 0.458595 0.685844 -0.099287
C26   C     C_R   0.522374 0.063829 0.625105 0.054626
C27   C     C_R   0.501522 0.129166 0.499327 0.016341
C28   C     C_R   0.484825 0.064195 0.371433 -0.140261
Cu1   Cu    Cu3+1 0.499990 0.499980 0.640670 0.981135
Cu2   Cu    Cu3+1 0.500010 0.500020 0.359330 1.024700
H1    H     H_    0.513821 0.889018 0.845080 0.193973
H2    H     H_    0.019974 0.454788 0.789041 0.145439
H3    H     H_    0.170629 0.481956 0.229132 0.134945
H4    H     H_    0.176748 0.492904 0.681852 0.127649
H5    H     H_    0.469811 0.112020 0.271705 0.138286
H6    H     H_    0.461087 0.887430 0.273471 0.189250
H7    H     H_    0.385663 0.889199 0.734337 0.142083
H8    H     H_    0.623714 0.976826 0.131451 0.380317
H9    H     H_    0.390682 0.110426 0.736791 0.129415
H10   H     H_    0.520058 0.109484 0.846029 0.172381
H11   H     H_    0.411957 0.333723 0.117582 0.111878
H12   H     H_    0.412216 0.333586 0.857717 0.108875
H13   H     H_    0.699609 0.588461 0.887911 0.189415
H14   H     H_    0.647466 0.745379 0.887754 0.172075
H15   H     H_    0.708162 0.574340 0.136900 0.177735
H16   H     H_    0.983468 0.456617 0.204739 0.183209
N1    N     N_R   0.500660 0.500930 0.148010 -0.246105
N2    N     N_R   0.500660 0.500890 0.852110 -0.228733
O1    O     O_R   0.500000 0.319640 0.618810 -0.502725
O2    O     O_2   0.786868 0.836616 0.131624 -0.249950
O3    O     O_3   0.592995 0.894413 0.104813 -0.593390
O4    O     O_R   0.500010 0.319680 0.381230 -0.509015
O5    O     O_R   0.348990 0.499960 0.599490 -0.517645
O6    O     O_R   0.349000 0.500000 0.361910 -0.518673
O7    O     O_R   0.499990 0.680320 0.618770 -0.513316
O8    O     O_R   0.500000 0.680360 0.381190 -0.465181
O9    O     O_R   0.651000 0.500000 0.638090 -0.472905
O10   O     O_R   0.651010 0.500040 0.400510 -0.451585
O11   O     O_2   0.686220 0.785554 0.326609 -0.251284
S1    S     S_3+6 0.682275 0.793369 0.169123 0.007800

loop_
_geom_bond_atom_site_label_1
_geom_bond_atom_site_label_2
_ccdc_geom_bond_type
C12   C21   A    
C10   N2    A    
C9    C10   A    
C9    H11   S    
C27   C28   A    
C9    N1    A    
C6    H7    S    
Cu1   O1    S    
C12   C25   A    
C4    C18   S    
O3    S1    S    
C4    O5    A    
C7    H9    S    
Cu1   Cu2   S    
C18   C21   A    
Cu2   O8    S    
C15   O8    A    
C19   H16   S    
Cu1   O7    S    
C24   C25   A    
C5    C6    S    
Br2   C24   S    
O2    S1    D    
C19   C20   A    
C4    O6    A    
Br1   C23   S    
C20   H3    S    
C7    H10   S    
C14   S1    S    
Cu1   O9    S    
C14   H15   S    
Cu2   O4    S    
C26   C27   A    
C18   C20   A    
C21   H4    S    
C3    C5    A    
C6    H1    S    
C11   C13   S    
C25   H2    S    
O11   S1    D    
C17   C23   A    
C1    O4    A    
Cu2   N1    S    
C3    C15   S    
Cu2   O10   S    
Cu1   N2    S    
C12   C22   A    
C11   N2    A    
C16   O9    A    
C2    C3    A    
C22   C23   A    
C7    C26   S    
C10   H12   S    
H8    O3    S    
C19   C22   A    
C16   O10   A    
C1    C27   S    
C17   C24   A    
C1    O1    A    
C16   C17   S    
C8    C14   S    
C13   H14   S    
Cu1   O5    S    
C2    H6    S    
C8    N1    A    
C13   H13   S    
Cu2   O6    S    
C2    C28   A    
C5    C26   A    
C13   C14   S    
C28   H5    S    
C15   O7    A    
C6    C7    S    
C8    C11   A    
