data_mof_unit_58367.cif
_audit_creation_date              2012-12-10T18:16:27-0500
_audit_creation_method            fapswitch 2.2
_symmetry_space_group_name_H-M    P1
_symmetry_Int_Tables_number       1
_space_group_crystal_system       triclinic
_cell_length_a                    18.387523
_cell_length_b                    18.295623
_cell_length_c                    18.406861
_cell_angle_alpha                 120.25729
_cell_angle_beta                  60.146447
_cell_angle_gamma                 120.074949
_cell_volume                      4372.3393058

loop_
_atom_site_label
_atom_site_type_symbol
_atom_type_description
_atom_site_fract_x
_atom_site_fract_y
_atom_site_fract_z
_atom_type_partial_charge
C1    C     C_R   0.389619 0.109397 0.609602 0.523073
C2    C     C_R   0.031418 0.959916 0.906941 0.239885
C3    C     C_R   0.949149 0.947215 0.053923 -0.013470
C4    C     C_R   0.066183 0.053616 0.945701 -0.003395
C5    C     C_R   0.966314 0.908483 0.960733 -0.020355
C6    C     C_R   0.054294 0.092215 0.037817 -0.030995
C7    C     C_R   0.996215 0.442975 0.912950 0.252633
C8    C     C_R   0.002004 0.554735 0.087152 0.247084
C9    C     C_R   0.943107 0.497774 0.968708 -0.168857
C10   C     C_R   0.055432 0.500744 0.031514 -0.170837
C11   C     C_R   0.946855 0.554320 0.054500 0.006548
C12   C     C_R   0.610307 0.890506 0.388786 0.510008
C13   C     C_R   0.052080 0.444529 0.945605 0.010405
C14   C     C_R   0.015158 0.092545 0.540382 -0.171422
C15   C     C_R   0.979363 0.907204 0.464644 -0.171273
C16   C     C_R   0.109102 0.389275 0.889930 0.529449
C17   C     C_R   0.890679 0.610472 0.110084 0.532676
C18   C     C_R   0.957652 0.040253 0.490840 0.238817
C19   C     C_R   0.029591 0.958240 0.521250 0.235514
C20   C     C_R   0.943380 0.947311 0.448913 -0.001629
C21   C     C_R   0.051519 0.052390 0.555809 -0.003320
C22   C     C_R   0.536374 0.092389 0.516095 -0.168000
C23   C     C_R   0.092839 0.259776 0.111854 -0.074340
C24   C     C_R   0.462791 0.906818 0.476843 -0.167950
C25   C     C_R   0.590999 0.040162 0.457456 0.242946
C26   C     C_R   0.407020 0.957983 0.527576 0.244317
C27   C     C_R   0.554692 0.947125 0.442146 -0.004631
C28   C     C_R   0.444663 0.052203 0.551336 -0.000934
C29   C     C_R   0.410473 0.495845 0.547692 0.248125
C30   C     C_R   0.589584 0.504458 0.452640 0.249006
C31   C     C_R   0.466078 0.549427 0.494099 -0.171297
C32   C     C_R   0.533956 0.450784 0.506123 -0.173353
C33   C     C_R   0.554707 0.553055 0.445580 0.000730
C34   C     C_R   0.950918 0.746016 0.876306 -0.058827
C35   C     C_R   0.445315 0.447105 0.554590 0.001316
C36   C     C_R   0.420764 0.515727 0.025737 0.207385
C37   C     C_R   0.580168 0.488387 0.973471 0.206024
C38   C     C_R   0.475185 0.570783 0.079076 0.215716
C39   C     C_R   0.527876 0.436244 0.917850 0.208519
C40   C     C_R   0.389966 0.389733 0.890038 0.555586
C41   C     C_R   0.610154 0.610543 0.109927 0.526499
C42   C     C_R   0.554559 0.556394 0.053263 -0.046272
C43   C     C_R   0.446713 0.447837 0.945739 -0.042225
C44   C     C_R   0.109445 0.109439 0.610215 0.520277
C45   C     C_R   0.150631 0.344972 0.145321 0.311349
C46   C     C_R   0.889275 0.890499 0.390924 0.524880
C47   C     C_R   0.389790 0.390674 0.610486 0.521796
C48   C     C_R   0.610213 0.609372 0.389565 0.523331
C49   C     C_R   0.114324 0.109814 0.889825 0.523600
C50   C     C_R   0.890061 0.890536 0.110002 0.519529
C51   C     C_R   0.256394 0.275518 0.102182 -0.157328
C52   C     C_R   0.783272 0.706631 0.875935 -0.150888
C53   C     C_R   0.196804 0.190144 0.071574 0.290184
C54   C     C_R   0.830337 0.795220 0.918507 0.290406
C55   C     C_R   0.115095 0.182307 0.075203 0.053684
C56   C     C_R   0.904916 0.658081 0.832820 0.296612
C57   C     C_R   0.915496 0.815083 0.916788 0.072101
C58   C     C_3   0.845901 0.097918 0.562296 -0.021370
C59   C     C_3   0.793126 0.131807 0.550852 -0.358892
C60   C     C_3   0.986490 0.875113 0.603222 -0.008874
C61   C     C_3   0.020154 0.840634 0.636094 -0.341585
C62   C     C_3   0.685982 0.097607 0.346104 -0.130157
C63   C     C_3   0.283864 0.878851 0.486145 -0.102340
C64   C     C_3   0.271688 0.452111 0.545052 -0.093539
C65   C     C_3   0.728203 0.549381 0.456186 -0.101814
C66   C     C_3   0.345821 0.577727 0.016577 -0.074983
C67   C     C_R   0.233812 0.352241 0.138710 -0.119295
C68   C     C_3   0.634850 0.406999 0.982120 -0.089511
C69   C     C_3   0.494902 0.720816 0.150932 -0.098764
C70   C     C_3   0.622495 0.399328 0.775011 -0.069348
C71   C     C_3   0.221870 0.095518 0.095960 -0.006949
C72   C     C_3   0.218037 0.998686 0.058697 -0.362366
C73   C     C_3   0.715102 0.846315 0.027822 -0.011965
C74   C     C_3   0.697672 0.934071 0.092768 -0.380275
C75   C     C_3   0.152518 0.486976 0.250223 -0.120703
C76   C     C_3   0.935396 0.535553 0.709912 -0.153950
C77   C     C_3   0.929766 0.118640 0.234307 -0.001447
C78   C     C_R   0.819730 0.638634 0.834252 -0.112625
C79   C     C_3   0.917836 0.144447 0.331044 -0.314345
C80   C     C_3   0.142424 0.904756 0.796778 0.002828
C81   C     C_3   0.155866 0.824139 0.712675 -0.364989
C82   C     C_3   0.997410 0.422121 0.777786 -0.094298
C83   C     C_3   0.974518 0.566165 0.227099 -0.095314
C84   C     C_R   0.995400 0.038961 0.091984 0.218604
H1    H     H_    0.282259 0.416855 0.159849 0.144444
H2    H     H_    0.014800 0.760605 0.878343 0.118254
H3    H     H_    0.896882 0.494551 0.946237 0.156094
H4    H     H_    0.101000 0.504102 0.054972 0.158992
H5    H     H_    0.029046 0.164510 0.568799 0.152479
H6    H     H_    0.967372 0.835538 0.434445 0.154551
H7    H     H_    0.871443 0.150409 0.618379 0.130994
H8    H     H_    0.799632 0.035710 0.579554 0.125511
H9    H     H_    0.765429 0.080054 0.496381 0.216868
H10   H     H_    0.737352 0.145783 0.613391 0.105567
H11   H     H_    0.836718 0.194579 0.534768 0.144230
H12   H     H_    0.781066 0.571103 0.803803 0.109268
H13   H     H_    0.935902 0.817297 0.572445 0.109626
H14   H     H_    0.954470 0.924355 0.662161 0.140391
H15   H     H_    0.073856 0.896893 0.662711 0.232497
H16   H     H_    0.965228 0.813748 0.689679 0.131688
H17   H     H_    0.046586 0.786390 0.580539 0.114700
H18   H     H_    0.641629 0.134637 0.367808 0.105939
H19   H     H_    0.671389 0.033587 0.290832 0.114333
H20   H     H_    0.754566 0.140867 0.320459 0.114116
H21   H     H_    0.309070 0.823400 0.431166 0.103676
H22   H     H_    0.300935 0.931172 0.460603 0.134925
H23   H     H_    0.566034 0.164458 0.531101 0.151055
H24   H     H_    0.210360 0.850210 0.510875 0.148848
H25   H     H_    0.201490 0.445415 0.588240 0.134247
H26   H     H_    0.274642 0.383056 0.502552 0.121145
H27   H     H_    0.290713 0.490367 0.503197 0.098912
H28   H     H_    0.725127 0.618480 0.497997 0.119222
H29   H     H_    0.798475 0.556028 0.413384 0.124899
H30   H     H_    0.708946 0.511792 0.498773 0.093903
H31   H     H_    0.377447 0.554762 0.942905 0.080351
H32   H     H_    0.382610 0.649285 0.046193 0.111360
H33   H     H_    0.277791 0.573015 0.030696 0.147119
H34   H     H_    0.433297 0.835044 0.463780 0.159623
H35   H     H_    0.605409 0.429156 0.056034 0.097977
H36   H     H_    0.696707 0.395901 0.963932 0.134919
H37   H     H_    0.588841 0.341829 0.951733 0.147089
H38   H     H_    0.510484 0.721021 0.084292 0.062331
H39   H     H_    0.557405 0.750896 0.165983 0.114765
H40   H     H_    0.454234 0.765003 0.200873 0.130552
H41   H     H_    0.685910 0.418466 0.783797 0.146763
H42   H     H_    0.618835 0.456787 0.772075 0.093853
H43   H     H_    0.622706 0.345006 0.709596 0.134127
H44   H     H_    0.163738 0.103496 0.158259 0.171706
H45   H     H_    0.440077 0.589560 0.491765 0.148926
H46   H     H_    0.284446 0.140353 0.112298 0.121238
H47   H     H_    0.275929 0.988232 0.997400 0.155990
H48   H     H_    0.219482 0.982897 0.108747 0.104720
H49   H     H_    0.155652 0.952630 0.042392 0.161406
H50   H     H_    0.716019 0.815107 0.066034 0.124058
H51   H     H_    0.659744 0.801399 0.999800 0.118305
H52   H     H_    0.694237 0.966549 0.057845 0.164362
H53   H     H_    0.633525 0.920827 0.147086 0.070469
H54   H     H_    0.752072 0.980123 0.122005 0.140130
H55   H     H_    0.223281 0.528810 0.228112 0.186576
H56   H     H_    0.560011 0.410726 0.508505 0.143434
H57   H     H_    0.140735 0.459744 0.298777 0.089425
H58   H     H_    0.112310 0.531708 0.285596 0.121750
H59   H     H_    0.947702 0.572832 0.669945 0.102862
H60   H     H_    0.869327 0.481812 0.715689 0.112677
H61   H     H_    0.986396 0.502345 0.672830 0.121254
H62   H     H_    0.864141 0.075386 0.223956 0.140132
H63   H     H_    0.952572 0.180926 0.221460 0.102651
H64   H     H_    0.872008 0.183993 0.375360 0.101646
H65   H     H_    0.889638 0.082972 0.347617 0.236052
H66   H     H_    0.982978 0.185753 0.342485 0.152025
H67   H     H_    0.320996 0.282546 0.096284 0.114515
H68   H     H_    0.141680 0.892645 0.850931 0.108890
H69   H     H_    0.200500 0.965351 0.785714 0.184822
H70   H     H_    0.163472 0.835278 0.655224 0.183976
H71   H     H_    0.216905 0.813966 0.698623 0.129050
H72   H     H_    0.098159 0.762577 0.720704 0.146888
H73   H     H_    0.051289 0.488757 0.783320 0.144137
H74   H     H_    0.933268 0.428181 0.794583 0.143383
H75   H     H_    0.015696 0.378528 0.707047 0.124342
H76   H     H_    0.017740 0.529061 0.207787 0.132190
H77   H     H_    0.905434 0.519360 0.229360 0.136799
H78   H     H_    0.718414 0.690238 0.874888 0.097878
H79   H     H_    0.971504 0.614683 0.295536 0.130372
H80   H     H_    0.030676 0.253952 0.113016 0.116593
O1    O     O_3   0.249960 0.250040 0.750040 -0.464294
O2    O     O_R   0.865890 0.634160 0.194850 -0.494513
O3    O     O_R   0.305100 0.073510 0.634200 -0.496306
O4    O     O_R   0.694900 0.926490 0.365800 -0.514688
O5    O     O_R   0.134110 0.365830 0.926590 -0.550059
O6    O     O_R   0.865890 0.634170 0.073410 -0.543159
O7    O     O_R   0.426490 0.365840 0.805130 -0.523001
O8    O     O_R   0.573510 0.634160 0.194870 -0.515515
O9    O     O_R   0.134150 0.194970 0.634230 -0.560597
O10   O     O_R   0.865850 0.805030 0.365770 -0.562101
O11   O     O_R   0.426480 0.365860 0.634240 -0.571917
O12   O     O_3   0.750040 0.749960 0.249960 -0.460466
O13   O     O_R   0.573520 0.634140 0.365760 -0.560756
O14   O     O_R   0.134190 0.073490 0.805100 -0.509320
O15   O     O_R   0.865810 0.926510 0.194900 -0.514416
O16   O     O_R   0.305020 0.365860 0.634250 -0.499029
O17   O     O_R   0.694980 0.634140 0.365750 -0.501956
O18   O     O_R   0.134160 0.194930 0.926560 -0.554665
O19   O     O_R   0.865840 0.805070 0.073440 -0.562625
O20   O     O_3   0.916874 0.080555 0.482458 -0.546468
O21   O     O_3   0.058886 0.915717 0.540513 -0.539415
O22   O     O_3   0.679704 0.081031 0.416466 -0.564840
O23   O     O_R   0.305030 0.365830 0.926580 -0.497734
O24   O     O_3   0.316183 0.915676 0.557003 -0.561263
O25   O     O_3   0.324935 0.497973 0.599961 -0.536951
O26   O     O_3   0.675299 0.502728 0.400824 -0.540942
O27   O     O_3   0.338842 0.524317 0.055914 -0.511737
O28   O     O_3   0.656934 0.472981 0.949255 -0.536882
O29   O     O_3   0.446562 0.634648 0.159050 -0.519383
O30   O     O_3   0.549424 0.365566 0.841962 -0.535208
O31   O     O_3   0.220540 0.114292 0.031125 -0.565218
O32   O     O_3   0.796408 0.864245 0.958708 -0.561294
O33   O     O_3   0.125760 0.418654 0.176283 -0.557118
O34   O     O_R   0.694970 0.634170 0.073420 -0.510769
O35   O     O_3   0.943275 0.592764 0.795064 -0.574299
O36   O     O_3   0.992700 0.073519 0.179435 -0.545723
O37   O     O_3   0.063173 0.916535 0.816194 -0.561383
O38   O     O_3   0.987741 0.380672 0.830719 -0.548587
O39   O     O_3   0.010059 0.614467 0.169857 -0.541370
O40   O     O_R   0.134180 0.073510 0.634210 -0.497828
O41   O     O_R   0.865820 0.926490 0.365790 -0.498527
O42   O     O_R   0.426530 0.194970 0.634210 -0.559795
O43   O     O_R   0.573470 0.805030 0.365790 -0.560068
O44   O     O_R   0.134110 0.365840 0.805150 -0.488040
Zn1   Zn    Zn3+2 0.206570 0.293400 0.880180 0.962607
Zn2   Zn    Zn3+2 0.793430 0.706600 0.119820 0.942532
Zn3   Zn    Zn3+2 0.380110 0.293420 0.706660 0.919433
Zn4   Zn    Zn3+2 0.619890 0.706580 0.293340 0.920955
Zn5   Zn    Zn3+2 0.206560 0.293420 0.706670 0.955815
Zn6   Zn    Zn3+2 0.793440 0.706580 0.293330 0.954120
Zn7   Zn    Zn3+2 0.206610 0.119900 0.706640 0.965552
Zn8   Zn    Zn3+2 0.793390 0.880100 0.293360 0.941226

loop_
_geom_bond_atom_site_label_1
_geom_bond_atom_site_label_2
_ccdc_geom_bond_type
C70   H43   S    
C46   O41   A    
C8    C10   A    
C41   C42   S    
C34   C56   A    
O44   Zn5   S    
C23   C45   A    
C80   C81   S    
C36   O27   S    
C65   H30   S    
C14   C18   A    
O9    Zn5   S    
C50   O19   A    
C24   C27   A    
O3    Zn7   S    
C6    C55   S    
C29   O25   S    
C35   C47   S    
C64   O25   S    
C72   H49   S    
C80   H69   S    
C14   H5    S    
C40   O23   A    
C84   O36   S    
O19   Zn2   S    
C15   C19   A    
C74   H54   S    
O40   Zn7   S    
C10   H4    S    
C60   O21   S    
C81   H72   S    
C66   H32   S    
O14   Zn7   S    
C14   C21   A    
O16   Zn5   S    
C19   C21   A    
C24   C26   A    
C32   H56   S    
C7    O38   S    
C60   H14   S    
C17   O2    A    
C68   H35   S    
C48   O17   A    
C82   H74   S    
C31   H45   S    
C68   O28   S    
C45   O33   S    
C22   H23   S    
C20   C46   S    
C56   C78   A    
C58   O20   S    
C46   O10   A    
C34   H2    S    
C37   C42   A    
C75   H57   S    
C26   O24   S    
C16   O5    A    
O1    Zn7   S    
C40   C43   S    
C83   H76   S    
C73   H51   S    
O41   Zn8   S    
C78   H12   S    
C66   H33   S    
C74   H52   S    
O15   Zn8   S    
C45   C67   A    
C1    C28   S    
C62   O22   S    
O12   Zn8   S    
C1    O3    A    
O17   Zn6   S    
C59   H10   S    
O11   Zn3   S    
C63   H21   S    
C58   H7    S    
C77   H63   S    
C71   O31   S    
C79   H65   S    
C56   O35   S    
C70   H42   S    
C53   C55   A    
C83   H77   S    
C51   H67   S    
C10   C13   A    
C22   C28   A    
C61   H15   S    
C2    O37   S    
C59   H11   S    
C52   C78   A    
O42   Zn3   S    
C48   O13   A    
C74   H53   S    
C3    C50   S    
C52   C54   A    
C72   H48   S    
C62   H20   S    
C77   C79   S    
C73   C74   S    
C15   C20   A    
C39   O30   S    
C67   H1    S    
C6    C84   A    
C66   H31   S    
C12   C27   S    
C32   C35   A    
O23   Zn1   S    
C54   O32   S    
C44   O9    A    
C83   O39   S    
C60   H13   S    
C82   O38   S    
C82   H73   S    
C17   O6    A    
O1    Zn3   S    
C64   H27   S    
C39   C43   A    
C69   H40   S    
C16   O44   A    
C58   C59   S    
C49   O14   A    
C22   C25   A    
O18   Zn1   S    
C81   H70   S    
O12   Zn4   S    
C60   C61   S    
C51   C53   A    
C61   H17   S    
C12   O43   A    
C65   H28   S    
C12   O4    A    
C47   O16   A    
C75   H58   S    
C34   C57   A    
C21   C44   S    
O7    Zn3   S    
C64   H26   S    
C80   O37   S    
O6    Zn2   S    
C18   O20   S    
C70   O30   S    
O5    Zn1   S    
C66   O27   S    
C69   O29   S    
C76   H59   S    
C51   C67   A    
C65   O26   S    
C63   H22   S    
C1    O42   A    
C9    C11   A    
O2    Zn6   S    
C79   H66   S    
C76   H60   S    
C70   H41   S    
C4    C6    A    
C76   H61   S    
O43   Zn4   S    
C53   O31   S    
O12   Zn6   S    
C71   H44   S    
C13   C16   S    
C61   H16   S    
C3    C5    A    
O13   Zn4   S    
C72   H47   S    
C23   H80   S    
O1    Zn5   S    
C80   H68   S    
C83   H79   S    
C11   C17   S    
C31   C33   A    
C30   C33   A    
C65   H29   S    
C8    O39   S    
C41   O34   A    
O8    Zn4   S    
C76   O35   S    
C71   H46   S    
C68   H37   S    
C62   H19   S    
C75   O33   S    
C23   C55   A    
C79   H64   S    
C25   C27   A    
C29   C35   A    
C26   C28   A    
C81   H71   S    
C38   O29   S    
C5    C57   S    
C4    C49   S    
O4    Zn8   S    
C36   C38   A    
C50   O15   A    
C71   C72   S    
C37   C39   A    
C75   H55   S    
C41   O8    A    
C68   H36   S    
C15   H6    S    
C30   C32   A    
C82   H75   S    
O1    Zn1   S    
C64   H25   S    
C9    H3    S    
C69   H38   S    
C8    C11   A    
C2    C4    A    
C24   H34   S    
O12   Zn2   S    
C18   C20   A    
C30   O26   S    
O34   Zn2   S    
C77   O36   S    
C47   O11   A    
C25   O22   S    
C49   O18   A    
C2    C5    A    
C38   C42   A    
C7    C9    A    
C7    C13   A    
C37   O28   S    
C73   H50   S    
C29   C31   A    
C63   O24   S    
C73   O32   S    
C3    C84   A    
C44   O40   A    
C33   C48   S    
C69   H39   S    
C36   C43   A    
C59   H9    S    
O10   Zn6   S    
C63   H24   S    
C58   H8    S    
C77   H62   S    
C40   O7    A    
C19   O21   S    
C52   H78   S    
C62   H18   S    
C54   C57   A    
