data_mof_unit_30433.cif
_audit_creation_date              2012-12-11T14:47:37-0500
_audit_creation_method            fapswitch 2.2
_symmetry_space_group_name_H-M    P1
_symmetry_Int_Tables_number       1
_space_group_crystal_system       triclinic
_cell_length_a                    19.462567
_cell_length_b                    6.975903
_cell_length_c                    19.346738
_cell_angle_alpha                 90.000089
_cell_angle_beta                  96.208213
_cell_angle_gamma                 89.999894
_cell_volume                      2611.28259849

loop_
_atom_site_label
_atom_site_type_symbol
_atom_type_description
_atom_site_fract_x
_atom_site_fract_y
_atom_site_fract_z
_atom_type_partial_charge
O1    O     O_R   0.673510 0.377480 0.186100 -0.528415
O2    O     O_R   0.326490 0.622520 0.813900 -0.528414
O3    O     O_R   0.826490 0.877480 0.313900 -0.528414
O4    O     O_R   0.173510 0.122520 0.686100 -0.528414
O5    O     O_R   0.807790 0.705750 0.184090 -0.523624
O6    O     O_R   0.192210 0.294250 0.815910 -0.523624
O7    O     O_R   0.692210 0.205750 0.315910 -0.523625
O8    O     O_R   0.307790 0.794250 0.684090 -0.523625
C1    C     C_1   0.478164 0.994535 0.521232 0.061533
C2    C     C_1   0.521836 0.005465 0.478767 0.061533
C3    C     C_1   0.021836 0.494537 0.978767 0.061533
C4    C     C_1   0.978164 0.505463 0.021233 0.061533
C5    C     C_R   0.830892 0.538266 0.166303 0.726167
C6    C     C_R   0.169108 0.461733 0.833697 0.726167
C7    C     C_R   0.669108 0.038267 0.333697 0.726169
C8    C     C_R   0.330892 0.961733 0.666303 0.726169
O9    O     O_R   0.672870 0.707110 0.178120 -0.530465
O10   O     O_R   0.327130 0.292890 0.821880 -0.530465
O11   O     O_R   0.827130 0.207110 0.321880 -0.530465
O12   O     O_R   0.172870 0.792890 0.678120 -0.530465
O13   O     O_R   0.690610 0.878650 0.307880 -0.521071
O14   O     O_R   0.309390 0.121350 0.692120 -0.521071
O15   O     O_R   0.809390 0.378650 0.192120 -0.521070
O16   O     O_R   0.190610 0.621350 0.807880 -0.521070
C9    C     C_R   0.648061 0.538168 0.160685 0.769166
C10   C     C_R   0.351939 0.461832 0.839315 0.769166
C11   C     C_R   0.851940 0.038168 0.339315 0.769166
C12   C     C_R   0.148060 0.961831 0.660685 0.769165
C13   C     C_1   0.382925 0.971793 0.614311 -0.141933
C14   C     C_1   0.617075 0.028207 0.385689 -0.141933
C15   C     C_1   0.117075 0.471794 0.885688 -0.141933
C16   C     C_1   0.882925 0.528205 0.114311 -0.141933
O17   O     O_3   0.755980 0.544260 0.292580 -0.362772
O18   O     O_3   0.244020 0.455740 0.707420 -0.362772
O19   O     O_3   0.744020 0.044260 0.207420 -0.362772
O20   O     O_3   0.255980 0.955740 0.792580 -0.362772
V1    V     V_3+5 0.748890 0.818640 0.242100 1.525104
V2    V     V_3+5 0.251110 0.181360 0.757900 1.525104
V3    V     V_3+5 0.751110 0.318640 0.257900 1.525105
V4    V     V_3+5 0.248890 0.681360 0.742100 1.525105
C17   C     C_R   0.085326 0.972386 0.609801 -0.178666
C18   C     C_R   0.914674 0.027613 0.390199 -0.178666
C19   C     C_R   0.414674 0.472386 0.890200 -0.178666
C20   C     C_R   0.585326 0.527614 0.109800 -0.178666
C21   C     C_1   0.426414 0.981795 0.571634 0.066981
C22   C     C_1   0.573586 0.018205 0.428366 0.066981
C23   C     C_1   0.073585 0.481795 0.928366 0.066981
C24   C     C_1   0.926415 0.518204 0.071634 0.066981
C25   C     C_R   0.040247 0.006812 0.416306 0.284404
C26   C     C_R   0.959753 0.993187 0.583694 0.284404
C27   C     C_R   0.459754 0.506810 0.083693 0.284403
C28   C     C_R   0.540246 0.493190 0.916307 0.284404
C29   C     C_R   0.980917 0.021742 0.367563 0.224123
C30   C     C_R   0.019083 0.978258 0.632437 0.224123
C31   C     C_R   0.519083 0.521740 0.132436 0.224122
C32   C     C_R   0.480917 0.478260 0.867564 0.224122
C33   C     C_R   0.907986 0.018438 0.461545 -0.208287
C34   C     C_R   0.092014 0.981562 0.538455 -0.208287
C35   C     C_R   0.592014 0.518441 0.038455 -0.208287
C36   C     C_R   0.407986 0.481559 0.961545 -0.208286
C37   C     C_R   0.966547 0.003007 0.511444 -0.001563
C38   C     C_R   0.033453 0.996993 0.488555 -0.001563
C39   C     C_R   0.533454 0.503008 0.988555 -0.001566
C40   C     C_R   0.466546 0.496991 0.011445 -0.001566
H1    H     H_    0.143663 0.977480 0.522793 0.170487
H2    H     H_    0.856337 0.022520 0.477207 0.170487
H3    H     H_    0.356337 0.477472 0.977208 0.170488
H4    H     H_    0.643663 0.522528 0.022792 0.170488
Br1   Br    Br    0.010255 0.966000 0.730752 -0.439648
Br2   Br    Br    0.989745 0.033999 0.269248 -0.439648
Br3   Br    Br    0.489745 0.466005 0.769249 -0.439647
Br4   Br    Br    0.510255 0.533995 0.230751 -0.439646
Br5   Br    Br    0.130153 0.999489 0.382709 -0.391522
Br6   Br    Br    0.869846 0.000510 0.617291 -0.391522
Br7   Br    Br    0.369846 0.499488 0.117290 -0.391521
Br8   Br    Br    0.630154 0.500512 0.882710 -0.391521

loop_
_geom_bond_atom_site_label_1
_geom_bond_atom_site_label_2
_ccdc_geom_bond_type
C34   C38   A    
C1    C21   S    
O5    V1    S    
C5    C16   S    
C3    C23   S    
O10   C10   A    
C6    C15   S    
C4    C24   S    
C5    O15   A    
C26   C30   A    
C20   C31   A    
O19   V1    S    
C27   Br7   S    
C17   C34   A    
C26   Br6   S    
C18   C29   A    
O12   V4    S    
C25   C29   A    
C20   C35   A    
O14   V2    S    
C12   C17   S    
C9    C20   S    
C6    O16   A    
O17   V3    S    
C36   H3    S    
C2    C22   S    
O6    V2    S    
O11   C11   A    
C1    C2    T    
C33   H2    S    
O5    C5    A    
C31   Br4   S    
O7    C7    A    
O8    C8    A    
C15   C23   T    
O1    C9    A    
C16   C24   T    
C29   Br2   S    
C18   C33   A    
O4    C12   A    
C10   C19   S    
O20   V4    S    
O12   C12   A    
C8    C13   S    
O17   V1    S    
C13   C21   T    
O19   V3    S    
C35   H4    S    
O6    C6    A    
C34   H1    S    
C32   Br3   S    
O2    C10   A    
O9    V1    S    
O11   V3    S    
C19   C36   A    
O4    V2    S    
C25   Br5   S    
C7    C14   S    
C8    O14   A    
C25   C38   A    
O18   V2    S    
C14   C22   T    
C27   C40   A    
C28   Br8   S    
C28   C39   A    
C3    C4    T    
C33   C37   A    
C35   C39   A    
C36   C40   A    
O9    C9    A    
O3    C11   A    
O10   V2    S    
C11   C18   S    
C30   Br1   S    
O15   V3    S    
O20   V2    S    
O16   V4    S    
C27   C31   A    
C37   C38   A    
C17   C30   A    
O1    V3    S    
C39   C40   A    
O2    V4    S    
C19   C32   A    
C7    O13   A    
O13   V1    S    
O3    V1    S    
C26   C37   A    
O7    V3    S    
O18   V4    S    
O8    V4    S    
C28   C32   A    
