data_mof_unit_54709.cif
_audit_creation_date              2012-12-11T16:08:58-0500
_audit_creation_method            fapswitch 2.2
_symmetry_space_group_name_H-M    P1
_symmetry_Int_Tables_number       1
_space_group_crystal_system       triclinic
_cell_length_a                    12.954519
_cell_length_b                    13.291757
_cell_length_c                    27.755874
_cell_angle_alpha                 94.827335
_cell_angle_beta                  89.979374
_cell_angle_gamma                 119.103117
_cell_volume                      4156.50579438

loop_
_atom_site_label
_atom_site_type_symbol
_atom_type_description
_atom_site_fract_x
_atom_site_fract_y
_atom_site_fract_z
_atom_type_partial_charge
C1    C     C_R   0.627258 0.897630 0.427093 0.541672
C2    C     C_R   0.201055 0.758891 0.296981 -0.019027
C3    C     C_3   0.353679 0.645082 0.171111 -0.305807
C4    C     C_R   0.187785 0.754002 0.196458 0.039110
C5    C     C_R   0.600733 0.221333 0.440282 0.543914
C6    C     C_R   0.213446 0.675457 0.217681 0.133640
C7    C     C_R   0.216217 0.676478 0.267877 -0.128003
C8    C     C_R   0.166833 0.744086 0.146665 -0.129506
C9    C     C_R   0.127911 0.813184 0.126363 -0.020133
C10   C     C_R   0.193909 0.936801 0.356620 -0.128118
C11   C     C_R   0.173695 0.929335 0.306303 0.043843
C12   C     C_R   0.183084 0.842579 0.276394 0.019660
C13   C     C_R   0.565340 0.262497 0.220577 0.017538
C14   C     C_R   0.149618 0.008957 0.284885 0.135130
C15   C     C_R   0.137313 0.002187 0.234323 -0.124441
C16   C     C_R   0.148466 0.917355 0.204888 -0.020672
C17   C     C_R   0.270159 0.876594 0.425302 0.543612
C18   C     C_R   0.174146 0.838704 0.225916 0.016919
C19   C     C_R   0.126272 0.904656 0.154931 -0.137428
C20   C     C_R   0.216227 0.855285 0.376535 -0.017074
C21   C     C_R   0.681588 0.968966 0.348640 -0.129971
C22   C     C_R   0.687703 0.952727 0.299237 -0.004264
C23   C     C_R   0.699928 0.919275 0.199525 0.010738
C24   C     C_R   0.557102 0.251760 0.270536 -0.100211
C25   C     C_R   0.727220 0.028709 0.221228 -0.135796
C26   C     C_R   0.721614 0.045508 0.271016 -0.141315
C27   C     C_R   0.710272 0.902880 0.150082 -0.140953
C28   C     C_R   0.685550 0.793998 0.129192 0.001273
C29   C     C_R   0.626741 0.899125 0.565192 0.545888
C30   C     C_R   0.613059 0.764962 0.356069 -0.144435
C31   C     C_R   0.622098 0.747631 0.306337 0.012946
C32   C     C_R   0.658385 0.841810 0.277840 0.057548
C33   C     C_R   0.595164 0.638254 0.284533 -0.132513
C34   C     C_R   0.604307 0.622214 0.234805 -0.141592
C35   C     C_R   0.658273 0.304963 0.301539 -0.003148
C36   C     C_R   0.638465 0.714969 0.206467 -0.008768
C37   C     C_R   0.665288 0.825264 0.227929 0.054055
C38   C     C_R   0.647095 0.699716 0.156956 -0.143693
C39   C     C_R   0.643958 0.875673 0.376874 0.008911
C40   C     C_R   0.736073 0.294077 0.652976 -0.133731
C41   C     C_R   0.601959 0.225707 0.578881 0.546109
C42   C     C_R   0.748045 0.313189 0.703460 0.016943
C43   C     C_R   0.767708 0.344379 0.805064 0.020804
C44   C     C_R   0.860984 0.346881 0.778566 -0.124972
C45   C     C_R   0.850569 0.329848 0.728078 -0.130439
C46   C     C_R   0.677841 0.328740 0.201613 0.049444
C47   C     C_R   0.779836 0.368959 0.855396 -0.130992
C48   C     C_R   0.687484 0.371688 0.880970 -0.002641
C49   C     C_R   0.546286 0.289211 0.655312 -0.129871
C50   C     C_R   0.551298 0.298244 0.705679 0.016105
C51   C     C_R   0.653873 0.311468 0.729881 0.036296
C52   C     C_R   0.455638 0.292097 0.732565 0.142477
C53   C     C_R   0.271885 0.879542 0.563448 0.546328
C54   C     C_R   0.464563 0.301070 0.782886 -0.097514
C55   C     C_R   0.567418 0.318345 0.806868 -0.023429
C56   C     C_R   0.662625 0.323654 0.780586 0.051955
C57   C     C_1   0.687979 0.356446 0.151808 -0.073412
C58   C     C_R   0.578797 0.337538 0.856915 -0.131577
C59   C     C_R   0.633348 0.278202 0.628968 -0.010138
C60   C     C_1   0.223222 0.862987 0.610342 -0.013002
C61   C     C_R   0.190002 0.759609 0.724824 -0.076575
C62   C     C_R   0.179626 0.752585 0.775106 0.163164
C63   C     C_R   0.134223 0.913002 0.780194 0.013416
C64   C     C_R   0.147343 0.918295 0.729863 -0.088488
C65   C     C_1   0.630755 0.264837 0.393726 -0.020902
C66   C     C_R   0.174098 0.841634 0.702519 -0.012904
C67   C     C_R   0.151634 0.830015 0.802715 0.042571
C68   C     C_1   0.646947 0.288091 0.352324 -0.069120
C69   C     C_1   0.129841 0.816456 0.853566 -0.061854
C70   C     C_1   0.195534 0.852475 0.651824 -0.061888
C71   C     C_1   0.103200 0.798370 0.894807 -0.020036
C72   C     C_1   0.641205 0.867009 0.611792 -0.015237
C73   C     C_R   0.734800 0.928159 0.735356 -0.105660
C74   C     C_R   0.736609 0.918102 0.785037 -0.106180
C75   C     C_R   0.577081 0.720057 0.772024 -0.105815
C76   C     C_R   0.575151 0.730196 0.722235 -0.108832
C77   C     C_R   0.769630 0.366621 0.282640 -0.113093
C78   C     C_R   0.654569 0.834137 0.703753 0.041544
C79   C     C_1   0.699822 0.388882 0.111834 -0.034013
C80   C     C_R   0.657602 0.814218 0.803568 0.041527
C81   C     C_1   0.667189 0.801774 0.854193 -0.060203
C82   C     C_1   0.648590 0.848330 0.653095 -0.059082
C83   C     C_1   0.683783 0.791065 0.895767 -0.016454
C84   C     C_R   0.065126 0.772896 0.079022 0.543977
C85   C     C_R   0.716508 0.440637 0.067087 0.542245
C86   C     C_R   0.720719 0.781181 0.080934 0.544517
C87   C     C_R   0.056725 0.766224 0.941304 0.545791
C88   C     C_R   0.710172 0.433089 0.929353 0.546402
C89   C     C_R   0.780811 0.378507 0.232778 0.018214
C90   C     C_R   0.210594 0.762124 0.346669 -0.127091
C91   C     C_R   0.716579 0.776236 0.942954 0.545909
C92   C     C_3   0.015597 0.052006 0.330365 -0.304487
C93   C     C_3   0.903213 0.443371 0.213461 -0.264350
C94   C     C_3   0.936475 0.359785 0.185687 -0.439288
C95   C     C_3   0.342599 0.377715 0.704356 -0.325590
C96   C     C_3   0.452885 0.200392 0.188730 -0.273437
C97   C     C_3   0.381789 0.264267 0.193034 -0.441026
C98   C     C_3   0.221133 0.586778 0.770751 -0.324744
C99   C     C_3   0.100750 0.992793 0.810784 -0.269883
C100  C     C_3   0.081653 0.078377 0.783660 -0.460206
Cr1   Cr    Cr6+3 0.416430 0.829200 0.492370 1.022885
Cr2   Cr    Cr6+3 0.674630 0.087020 0.504170 1.017519
Cr3   Cr    Cr6+3 0.408920 0.083740 0.503490 1.022126
Cr4   Cr    Cr6+3 0.914010 0.832750 0.013970 1.017772
Cr5   Cr    Cr6+3 0.922310 0.578600 0.003000 1.021140
Cr6   Cr    Cr6+3 0.656280 0.574630 0.003870 1.016139
H1    H     H_    0.847846 0.404276 0.306735 0.107848
H2    H     H_    0.567851 0.565573 0.305916 0.116923
H3    H     H_    0.582616 0.693598 0.378444 0.107101
H4    H     H_    0.863595 0.393906 0.874000 0.129276
H5    H     H_    0.803936 0.286618 0.632664 0.123689
H6    H     H_    0.942146 0.362716 0.796851 0.112721
H7    H     H_    0.923203 0.331073 0.708263 0.099724
H8    H     H_    0.506230 0.337004 0.876625 0.130535
H9    H     H_    0.391264 0.296624 0.803300 0.117063
H10   H     H_    0.470092 0.282119 0.636176 0.143945
H11   H     H_    0.212661 0.703025 0.702541 0.113565
H12   H     H_    0.116134 0.061744 0.218118 0.104081
H13   H     H_    0.137475 0.981746 0.711352 0.125145
H14   H     H_    0.795618 0.009438 0.721613 0.107850
H15   H     H_    0.800382 0.990958 0.808935 0.108796
H16   H     H_    0.516636 0.638772 0.785837 0.102071
H17   H     H_    0.511629 0.657436 0.698259 0.097228
H18   H     H_    0.471203 0.200836 0.285267 0.126139
H19   H     H_    0.169260 0.674723 0.124135 0.169184
H20   H     H_    0.225763 0.697335 0.361593 0.138886
H21   H     H_    0.233936 0.614781 0.284215 0.102503
H22   H     H_    0.097976 0.959588 0.139072 0.130995
H23   H     H_    0.197888 0.008241 0.379975 0.159491
H24   H     H_    0.164318 0.170607 0.298279 0.242654
H25   H     H_    0.951786 0.026945 0.298995 0.156476
H26   H     H_    0.011791 0.121288 0.354293 0.144424
H27   H     H_    0.989585 0.976199 0.351297 0.162359
H28   H     H_    0.947362 0.304737 0.210956 0.137422
H29   H     H_    0.867945 0.303334 0.157144 0.155114
H30   H     H_    0.020722 0.409075 0.167775 0.163122
H31   H     H_    0.907243 0.508169 0.189608 0.164114
H32   H     H_    0.970460 0.492197 0.243501 0.143687
H33   H     H_    0.315833 0.212944 0.680508 0.247711
H34   H     H_    0.741681 0.975153 0.128141 0.113891
H35   H     H_    0.253251 0.354678 0.689739 0.136799
H36   H     H_    0.409341 0.430164 0.678765 0.143274
H37   H     H_    0.358932 0.429750 0.739819 0.145321
H38   H     H_    0.433398 0.351475 0.180229 0.151159
H39   H     H_    0.298674 0.215074 0.170248 0.134488
H40   H     H_    0.358653 0.272879 0.231135 0.145847
H41   H     H_    0.471815 0.190490 0.150137 0.151653
H42   H     H_    0.398051 0.111365 0.199495 0.152045
H43   H     H_    0.235483 0.695082 0.832688 0.257170
H44   H     H_    0.224327 0.525735 0.794897 0.133772
H45   H     H_    0.701997 0.054061 0.365047 0.134838
H46   H     H_    0.308507 0.633421 0.754479 0.140099
H47   H     H_    0.150615 0.535158 0.742168 0.148339
H48   H     H_    0.164457 0.138868 0.767108 0.179229
H49   H     H_    0.009247 0.031618 0.755385 0.151211
H50   H     H_    0.056116 0.130038 0.809498 0.133592
H51   H     H_    0.017521 0.938687 0.828827 0.160265
H52   H     H_    0.171441 0.043250 0.839475 0.147275
H53   H     H_    0.214905 0.520602 0.205299 0.242197
H54   H     H_    0.365447 0.577444 0.149519 0.142635
H55   H     H_    0.419242 0.682100 0.202113 0.167449
H56   H     H_    0.753717 0.101180 0.199801 0.114869
H57   H     H_    0.369404 0.714462 0.147688 0.157177
H58   H     H_    0.743969 0.130865 0.287483 0.123469
H59   H     H_    0.630543 0.615908 0.140495 0.136191
H60   H     H_    0.584658 0.537502 0.218510 0.117940
N1    N     N_2   0.134286 0.093911 0.313823 -0.535080
N2    N     N_2   0.348040 0.273330 0.710224 -0.540395
N3    N     N_2   0.194693 0.667991 0.798571 -0.509740
N4    N     N_2   0.235814 0.594737 0.188977 -0.544365
O1    O     O_R   0.296680 0.802170 0.437540 -0.521184
O2    O     O_R   0.637200 0.461990 0.052510 -0.517367
O3    O     O_R   0.664790 0.681920 0.057970 -0.507856
O4    O     O_R   0.525380 0.838530 0.443500 -0.497225
O5    O     O_R   0.815840 0.852920 0.961840 -0.511370
O6    O     O_R   0.012100 0.822630 0.963670 -0.497936
O7    O     O_R   0.037010 0.668460 0.953040 -0.508519
O8    O     O_R   0.813390 0.478970 0.949660 -0.502245
O9    O     O_R   0.632250 0.456930 0.945520 -0.519652
O10   O     O_R   0.660200 0.677230 0.958780 -0.493821
O11   O     O_3   0.830870 0.661990 0.006950 -0.242641
O12   O     O_R   0.662610 0.183990 0.557860 -0.499665
O13   O     O_R   0.702130 0.995190 0.446810 -0.522907
O14   O     O_R   0.661770 0.181390 0.458760 -0.501981
O15   O     O_R   0.499820 0.198480 0.455280 -0.504838
O16   O     O_R   0.311660 0.976250 0.449080 -0.500856
O17   O     O_R   0.297580 0.804960 0.544440 -0.508415
O18   O     O_R   0.526220 0.841130 0.542590 -0.495360
O19   O     O_R   0.703030 0.997990 0.553710 -0.509904
O20   O     O_R   0.500730 0.201280 0.562180 -0.523386
O21   O     O_R   0.312500 0.978850 0.548170 -0.497023
O22   O     O_3   0.499990 0.999990 0.500010 -0.244731
O23   O     O_R   0.820790 0.857990 0.068830 -0.515216
O24   O     O_R   0.016700 0.827330 0.062850 -0.501920
O25   O     O_R   0.041970 0.673520 0.060040 -0.520830
O26   O     O_R   0.817980 0.483660 0.048840 -0.492291

loop_
_geom_bond_atom_site_label_1
_geom_bond_atom_site_label_2
_ccdc_geom_bond_type
Cr5   O26   S    
C55   C56   A    
C95   H37   S    
C93   C94   S    
H53   N4    S    
C38   H59   S    
C75   H16   S    
C73   C74   A    
C57   C79   T    
C2    C7    A    
Cr3   O15   S    
C5    O15   A    
Cr5   O8    S    
C4    C8    A    
Cr1   O22   S    
C2    C12   A    
C95   N2    S    
C17   C20   S    
C1    O13   A    
Cr4   O6    S    
C46   C89   A    
C98   H46   S    
C94   H29   S    
C44   C45   A    
C87   O6    A    
Cr3   O16   S    
C77   C89   A    
C64   H13   S    
C22   C32   A    
C41   O20   A    
H43   N3    S    
Cr2   O13   S    
C21   H45   S    
C36   C37   A    
C92   H26   S    
C76   C78   A    
C86   O23   A    
C6    N4    S    
C30   C31   A    
C11   C14   A    
C84   O25   A    
C15   C16   A    
C19   H22   S    
C24   H18   S    
Cr2   O19   S    
C2    C90   A    
C51   C56   A    
C97   H40   S    
C69   C71   T    
C63   C99   S    
C93   H32   S    
C98   N3    S    
H24   N1    S    
C9    C19   A    
C92   H27   S    
C84   O24   A    
C8    C9    A    
C50   C52   A    
C73   C78   A    
C31   C33   A    
C60   C70   T    
C40   H5    S    
Cr1   O18   S    
C75   C80   A    
C17   O16   A    
C5    O14   A    
C3    H57   S    
C42   C51   A    
C29   C72   S    
C4    C18   A    
C100  H50   S    
C40   C42   A    
Cr4   O11   S    
C98   H47   S    
C73   H14   S    
C74   C80   A    
C21   C22   A    
C54   H9    S    
Cr1   O4    S    
H33   N2    S    
C33   H2    S    
Cr6   O2    S    
C61   C66   A    
Cr6   O10   S    
C81   C83   T    
C53   C60   S    
C52   C54   A    
C33   C34   A    
Cr4   O5    S    
C96   H42   S    
C63   C67   A    
C1    O4    A    
C24   C35   A    
C30   H3    S    
C61   H11   S    
C85   O2    A    
C47   C48   A    
C77   H1    S    
C92   H25   S    
C41   C59   S    
C4    C6    A    
C10   C20   A    
C1    C39   S    
C13   C96   S    
C25   C26   A    
C23   C37   A    
C20   C90   A    
C35   C77   A    
C17   O1    A    
C13   C24   A    
C67   C69   S    
C42   C45   A    
Cr2   O12   S    
C75   C76   A    
C97   H38   S    
C87   O7    A    
C78   C82   S    
Cr2   O22   S    
C31   C32   A    
C21   C39   A    
C28   C38   A    
C25   H56   S    
Cr4   O23   S    
C65   C68   T    
C91   O10   A    
C49   H10   S    
C48   C88   S    
C50   C51   A    
C90   H20   S    
C91   O5    A    
C3    N4    S    
Cr3   O20   S    
C32   C37   A    
C88   O8    A    
C53   O21   A    
C71   C87   S    
C62   C67   A    
C100  H49   S    
C5    C65   S    
C95   H35   S    
C23   C27   A    
C99   H51   S    
C43   C44   A    
C28   C86   S    
C3    H54   S    
C29   O19   A    
C41   O12   A    
C55   C58   A    
Cr3   O21   S    
C44   H6    S    
Cr6   O9    S    
C79   C85   S    
C96   C97   S    
C88   O9    A    
C58   H8    S    
C43   C56   A    
C98   H44   S    
C100  H48   S    
Cr5   O25   S    
C62   N3    S    
Cr5   O11   S    
C54   C55   A    
C14   C15   A    
C76   H17   S    
C97   H39   S    
C27   H34   S    
Cr5   O7    S    
C80   C81   S    
C11   C12   A    
C96   H41   S    
C85   O26   A    
C48   C58   A    
C6    C7    A    
C47   H4    S    
C83   C91   S    
Cr6   O11   S    
C15   H12   S    
C49   C59   A    
C99   C100  S    
C86   O3    A    
Cr2   O14   S    
C36   C38   A    
C53   O17   A    
C10   H23   S    
C46   C57   S    
Cr1   O17   S    
C52   N2    S    
C92   N1    S    
C66   C70   S    
C35   C68   S    
C16   C19   A    
C26   H58   S    
C94   H28   S    
Cr6   O3    S    
C30   C39   A    
Cr1   O1    S    
C34   C36   A    
C23   C25   A    
C89   C93   S    
C61   C62   A    
C93   H31   S    
C10   C11   A    
C3    H55   S    
C9    C84   S    
C63   C64   A    
C45   H7    S    
C8    H19   S    
C74   H15   S    
C95   H36   S    
C16   C18   A    
C49   C50   A    
C22   C26   A    
C99   H52   S    
C12   C18   A    
C27   C28   A    
C40   C59   A    
C29   O18   A    
Cr4   O24   S    
C13   C46   A    
C94   H30   S    
Cr3   O22   S    
C7    H21   S    
C14   N1    S    
C34   H60   S    
C43   C47   A    
C72   C82   T    
C64   C66   A    
