data_mof_unit_28476.cif
_audit_creation_date              2012-12-10T16:57:10-0500
_audit_creation_method            fapswitch 2.2
_symmetry_space_group_name_H-M    P1
_symmetry_Int_Tables_number       1
_space_group_crystal_system       triclinic
_cell_length_a                    7.768762
_cell_length_b                    8.580805
_cell_length_c                    16.563373
_cell_angle_alpha                 91.722135
_cell_angle_beta                  80.791541
_cell_angle_gamma                 93.716282
_cell_volume                      1087.4128878

loop_
_atom_site_label
_atom_site_type_symbol
_atom_type_description
_atom_site_fract_x
_atom_site_fract_y
_atom_site_fract_z
_atom_type_partial_charge
C1    C     C_R   0.546186 0.794804 0.497971 0.975674
C2    C     C_R   0.374891 0.458751 0.223477 -0.213696
C3    C     C_R   0.549843 0.269501 0.834336 -0.163798
C4    C     C_R   0.373764 0.403138 0.144114 -0.147119
C5    C     C_R   0.400938 0.300133 0.890915 0.203750
C6    C     C_R   0.525472 0.344574 0.098669 0.208288
C7    C     C_R   0.273580 0.391460 0.868847 -0.172079
C8    C     C_R   0.679405 0.348406 0.132594 -0.184470
C9    C     C_R   0.300080 0.459871 0.792406 -0.196445
C10   C     C_R   0.680768 0.404682 0.211924 -0.194156
C11   C     C_2   0.392448 0.265498 0.977267 -0.242204
C12   C     C_R   0.453804 0.205198 0.502115 0.969411
C13   C     C_2   0.534629 0.299770 0.012254 -0.226151
C14   C     C_2   0.570520 0.958261 0.496870 -0.387313
C15   C     C_2   0.429451 0.041771 0.503398 -0.379615
C16   C     C_R   0.476087 0.493232 0.654440 0.852826
C17   C     C_R   0.521685 0.493640 0.345203 0.859393
C18   C     C_R   0.454532 0.437452 0.737816 -0.031385
C19   C     C_R   0.527667 0.458080 0.258251 -0.034872
C20   C     C_R   0.577690 0.339629 0.758782 -0.206557
H1    H     H_    0.694327 0.314827 0.716293 0.161523
H2    H     H_    0.296253 0.990691 0.509633 0.179331
H3    H     H_    0.022751 0.380363 0.439315 0.188264
H4    H     H_    0.977259 0.619673 0.560660 0.190537
H5    H     H_    0.158314 0.416452 0.912256 0.122086
H6    H     H_    0.798776 0.307895 0.097574 0.120378
H7    H     H_    0.255444 0.500194 0.257887 0.155173
H8    H     H_    0.800478 0.402562 0.237492 0.154203
H9    H     H_    0.201164 0.531235 0.776289 0.151246
H10   H     H_    0.661792 0.318800 0.974502 0.147572
H11   H     H_    0.264389 0.247176 0.014029 0.142958
H12   H     H_    0.255028 0.410255 0.118531 0.121078
H13   H     H_    0.647714 0.196169 0.849761 0.131453
H14   H     H_    0.703714 0.009350 0.490657 0.179376
N1    N     N_2   0.953500 0.457650 0.478520 -0.176285
N2    N     N_2   0.046500 0.542350 0.521480 -0.174389
O1    O     O_R   0.388470 0.738640 0.505270 -0.608474
O2    O     O_R   0.611530 0.261360 0.494730 -0.612952
O3    O     O_R   0.679650 0.711510 0.491500 -0.625032
O4    O     O_R   0.320350 0.288490 0.508500 -0.627636
O5    O     O_R   0.337210 0.515200 0.623500 -0.614642
O6    O     O_R   0.662790 0.484800 0.376500 -0.619122
O7    O     O_R   0.628380 0.488060 0.609730 -0.626534
O8    O     O_R   0.371620 0.511940 0.390270 -0.623877
Zn1   Zn    Zn3+2 0.305580 0.518120 0.509190 0.939392
Zn2   Zn    Zn3+2 0.694420 0.481880 0.490810 0.934893

loop_
_geom_bond_atom_site_label_1
_geom_bond_atom_site_label_2
_ccdc_geom_bond_type
C12   O4    A    
C2    C4    A    
C14   H14   S    
C2    H7    S    
C9    H9    S    
C8    H6    S    
C9    C18   A    
H3    N1    S    
N1    N2    D    
C7    H5    S    
C12   C15   S    
C1    O1    A    
C10   C19   A    
C17   O8    A    
C11   H11   S    
N2    Zn1   S    
C3    H13   S    
C4    H12   S    
C20   H1    S    
C6    C13   S    
C11   C13   D    
C16   O7    A    
H4    N2    S    
O3    Zn2   S    
C8    C10   A    
C17   C19   S    
C5    C11   S    
C18   C20   A    
C12   O2    A    
O4    Zn1   S    
O7    Zn2   S    
O2    Zn2   S    
C4    C6    A    
C1    O3    A    
O1    Zn1   S    
C7    C9    A    
C13   H10   S    
C3    C20   A    
O8    Zn1   S    
C16   C18   S    
O6    Zn2   S    
C10   H8    S    
C5    C7    A    
O5    Zn1   S    
C14   C15   D    
C6    C8    A    
C1    C14   S    
C2    C19   A    
C17   O6    A    
N1    Zn2   S    
C16   O5    A    
C15   H2    S    
C3    C5    A    
