data_mof_unit_15332.cif
_audit_creation_date              2013-03-05T16:04:36-0500
_audit_creation_method            fapswitch 2.2
_symmetry_space_group_name_H-M    P1
_symmetry_Int_Tables_number       1
_space_group_crystal_system       triclinic
_cell_length_a                    8.328837
_cell_length_b                    14.374784
_cell_length_c                    18.789284
_cell_angle_alpha                 96.851694
_cell_angle_beta                  91.613551
_cell_angle_gamma                 92.074553
_cell_volume                      2230.82585517

loop_
_atom_site_label
_atom_site_type_symbol
_atom_site_description
_atom_site_fract_x
_atom_site_fract_y
_atom_site_fract_z
_atom_type_partial_charge
P1    P     P_3+3 0.061800 0.409390 0.339760 0.507906
O1    O     O_2   0.887710 0.436190 0.327560 -0.373848
O2    O     O_3   0.135370 0.443490 0.416520 -0.346297
O3    O     O_3   0.634420 0.609440 0.364670 -0.331615
O4    O     O_2   0.750698 0.527593 0.244630 -0.374316
O5    O     O_3   0.062212 0.286685 0.317419 -0.609146
O6    O     O_3   0.684368 0.700108 0.237284 -0.547862
C1    C     C_3   0.545719 0.806359 0.169925 -0.724069
H1    H     H_    0.654606 0.848113 0.159951 0.310349
H2    H     H_    0.520169 0.750267 0.124813 0.215396
P2    P     P_3+3 0.622760 0.718740 0.547830 0.503134
P3    P     P_3+3 0.067177 0.781050 0.396400 0.530111
O7    O     O_2   0.795290 0.730930 0.525800 -0.368992
O8    O     O_3   0.044470 0.660110 0.398750 -0.388053
O9    O     O_2   0.931606 0.827907 0.440241 -0.346271
O10   O     O_3   0.628599 0.752451 0.640442 -0.538044
O11   O     O_3   0.032965 0.808939 0.308599 -0.452261
C2    C     C_3   0.076574 0.734123 0.258337 0.201261
H3    H     H_    0.980390 0.678500 0.254262 0.166538
H4    H     H_    0.186482 0.701485 0.277186 -0.028783
C3    C     C_3   0.110978 0.765484 0.183162 0.704849
C4    C     C_3   0.178649 0.752029 0.614861 0.412973
H5    H     H_    0.305194 0.737874 0.603120 0.082667
H6    H     H_    0.098785 0.723873 0.568338 0.113907
C5    C     C_3   0.159081 0.857448 0.628077 -0.908497
H7    H     H_    0.239210 0.888889 0.673434 0.302425
H8    H     H_    0.189530 0.890618 0.579717 0.195240
H9    H     H_    0.032630 0.872131 0.641118 0.268661
Ba1   Ba    Ba6+2 0.843240 0.541620 0.463500 1.644051
C6    C     C_3   0.947182 0.237313 0.352347 0.538249
H10   H     H_    0.840993 0.279316 0.364600 0.060034
C7    C     C_3   0.892309 0.146415 0.304135 0.070860
H11   H     H_    0.791946 0.111795 0.329914 0.111699
H12   H     H_    0.992510 0.097396 0.298394 0.146654
C8    C     C_3   0.697358 0.686906 0.680385 0.107060
H13   H     H_    0.829536 0.692848 0.676753 0.114411
H14   H     H_    0.653610 0.614151 0.660859 0.076883
C9    C     C_3   0.648633 0.710505 0.759145 0.466371
H15   H     H_    0.523948 0.682809 0.763427 0.033127
P4    P     P_3+3 0.127890 0.590690 0.660240 0.470737
O12   O     O_2   0.301980 0.563840 0.672490 -0.378871
O13   O     O_3   0.054330 0.556590 0.583490 -0.410029
O14   O     O_3   0.555270 0.390630 0.635330 -0.357416
O15   O     O_3   0.138760 0.713260 0.677120 -0.538184
P5    P     P_3+3 0.122962 0.219810 0.609643 0.558732
O16   O     O_3   0.637720 0.384870 0.467990 -0.388012
O17   O     O_3   0.145220 0.339960 0.601250 -0.329617
O18   O     O_2   0.257519 0.170804 0.566133 -0.334098
O19   O     O_3   0.170527 0.203312 0.698184 -0.514556
Ba2   Ba    Ba6+2 0.346570 0.458460 0.536510 1.628162
P6    P     P_3+3 0.620691 0.595949 0.270767 0.500085
C10   C     C_3   0.562424 0.765774 0.240819 1.079671
H16   H     H_    0.443693 0.735988 0.253443 -0.239698
H17   H     H_    0.447535 0.855699 0.172614 0.255419
O20   O     O_3   0.551980 0.615210 0.532020 -0.392253
C11   C     C_3   0.463166 0.286008 0.323533 0.407170
H18   H     H_    0.373063 0.323050 0.357512 0.114008
H19   H     H_    0.541736 0.340177 0.302999 0.092991
C12   C     C_3   0.372443 0.227302 0.261074 -0.702624
H20   H     H_    0.454956 0.185498 0.226215 0.304420
H21   H     H_    0.286330 0.177167 0.281915 0.256503
H22   H     H_    0.306414 0.273560 0.228152 0.200008
P7    P     P_3+3 0.573416 0.266037 0.451626 0.441039
O21   O     O_2   0.394410 0.269100 0.474240 -0.306362
O22   O     O_3   0.558460 0.226444 0.359729 -0.582914
H23   H     H_    0.233037 0.742443 0.170190 -0.076735
C13   C     C_3   0.076416 0.261399 0.744410 0.368611
H24   H     H_    0.145734 0.327931 0.762216 0.139239
H25   H     H_    0.959549 0.278056 0.719604 -0.015812
C14   C     C_3   0.038905 0.211806 0.809358 -0.783557
H26   H     H_    0.976509 0.259143 0.849634 0.220878
H27   H     H_    0.960853 0.148616 0.792234 0.272749
H28   H     H_    0.150658 0.189239 0.834232 0.304738
P8    P     P_3+3 0.576106 0.406531 0.728557 0.474794
C15   C     C_3   0.592235 0.236787 0.754513 0.097048
H29   H     H_    0.711052 0.258840 0.780365 0.033323
O23   O     O_2   0.468348 0.487143 0.754853 -0.385615
O24   O     O_3   0.485129 0.309946 0.761629 -0.477711
H30   H     H_    0.608154 0.213407 0.696546 0.081878
C16   C     C_3   0.525429 0.154383 0.790617 0.518261
H31   H     H_    0.405863 0.131351 0.765798 0.079169
C17   C     C_R   0.022365 0.435777 0.045902 0.055048
C18   C     C_R   0.934278 0.393370 0.097397 -0.093994
C19   C     C_R   0.801351 0.410573 0.953549 -0.110615
C20   C     C_R   0.961151 0.439223 0.974540 0.050674
C21   C     C_R   0.742802 0.413732 0.884023 -0.097202
C22   C     C_R   0.840147 0.444918 0.831523 0.001726
C23   C     C_R   0.995629 0.483141 0.852274 0.025973
C24   C     C_R   0.057124 0.479728 0.923972 0.037037
C25   C     C_R   0.783253 0.443995 0.759783 0.161964
C26   C     C_R   0.879373 0.482125 0.710036 -0.522310
C27   C     C_R   0.025097 0.529664 0.730499 0.277058
C28   C     C_R   0.084370 0.530635 0.802936 -0.008827
C29   C     C_R   0.175337 0.477670 0.067533 0.098591
C30   C     C_R   0.227779 0.485306 0.141525 0.052153
C31   C     C_R   0.128181 0.450506 0.193596 -0.090266
C32   C     C_R   0.985980 0.401628 0.169029 0.047852
H32   H     H_    0.834249 0.480841 0.655352 0.174393
H33   H     H_    0.618445 0.393161 0.872590 0.210717
H34   H     H_    0.910609 0.370973 0.205451 0.216602
C33   C     C_R   0.223747 0.582043 0.829217 0.031638
C34   C     C_R   0.288573 0.574983 0.897597 -0.128162
C35   C     C_R   0.210699 0.520892 0.945471 0.031606
C36   C     C_R   0.273208 0.515754 0.016528 0.091136
C37   C     C_R   0.429902 0.549308 0.039027 -0.161339
C38   C     C_R   0.379204 0.528224 0.163303 -0.030104
C39   C     C_R   0.481402 0.555226 0.110626 -0.180906
C40   C     C_R   0.424349 0.542150 0.237028 0.146229
C41   C     C_R   0.320759 0.512223 0.288137 -0.489431
C42   C     C_R   0.174440 0.464542 0.268211 0.216570
H35   H     H_    0.283926 0.629268 0.797449 0.160405
H36   H     H_    0.602157 0.582721 0.123983 0.219178
H37   H     H_    0.358387 0.521997 0.344197 0.172741
H38   H     H_    0.715611 0.387927 0.990401 0.148941
H39   H     H_    0.823200 0.353465 0.084245 0.161814
H40   H     H_    0.396128 0.617281 0.913140 0.179204
H41   H     H_    0.516315 0.571169 0.002012 0.170953
C43   C     C_R   0.689044 0.940310 0.545953 -0.029223
C44   C     C_R   0.505176 0.802491 0.503473 0.313390
C45   C     C_R   0.364708 0.767595 0.465427 -0.470855
C46   C     C_R   0.259660 0.827953 0.437245 0.217225
C47   C     C_R   0.298046 0.923687 0.443131 -0.158463
C48   C     C_R   0.443500 0.959846 0.476864 0.076113
C49   C     C_R   0.546267 0.900433 0.510291 -0.001833
H42   H     H_    0.333066 0.693368 0.460662 0.155158
C50   C     C_R   0.632026 0.093436 0.509015 -0.045059
C51   C     C_R   0.733092 0.035768 0.545185 0.085818
C52   C     C_R   0.677650 0.189029 0.508207 0.183865
C53   C     C_R   0.814593 0.226902 0.547289 -0.384837
C54   C     C_R   0.921787 0.169254 0.577705 0.274516
C55   C     C_R   0.879918 0.073819 0.577795 -0.202941
C56   C     C_R   0.488378 0.054207 0.475186 -0.050456
H43   H     H_    0.216492 0.969353 0.419538 0.192719
H44   H     H_    0.962363 0.029480 0.602216 0.147243
H45   H     H_    0.845598 0.300825 0.548337 0.171703
H46   H     H_    0.768513 0.897949 0.573662 0.164301
H47   H     H_    0.409624 0.096118 0.446659 0.192817
S1    S     S_3+6 0.616494 0.858770 0.308678 0.003197
O25   O     O_2   0.481786 0.924995 0.318023 -0.306343
O26   O     O_2   0.647462 0.815332 0.375657 -0.304427
O27   O     O_3   0.782381 0.918888 0.289508 -0.431637
H48   H     H_    0.826523 0.948869 0.336531 0.377335
N1    N     N_R   0.021169 0.214589 0.418822 0.170875
O28   O     O_R   0.079440 0.282904 0.464343 -0.338869
O29   O     O_R   0.049640 0.128672 0.429271 -0.500497
S2    S     S_3+6 0.827282 0.164391 0.215544 0.024106
O30   O     O_2   0.726271 0.080803 0.182531 -0.181676
O31   O     O_2   0.727824 0.249278 0.217722 -0.335891
O32   O     O_3   0.987674 0.178905 0.165024 -0.495513
H49   H     H_    0.051753 0.122860 0.168646 0.378111
S3    S     S_3+6 0.648860 0.834063 0.785764 0.118006
O33   O     O_2   0.501168 0.873123 0.754738 -0.227891
O34   O     O_2   0.648197 0.853821 0.866179 -0.172982
O35   O     O_3   0.814587 0.884132 0.754819 -0.457515
H50   H     H_    0.901089 0.878220 0.791051 0.388754
N2    N     N_R   0.754195 0.669569 0.809092 0.192079
O36   O     O_R   0.690392 0.625987 0.858792 -0.423080
O37   O     O_R   0.903566 0.699540 0.817562 -0.416248
N3    N     N_R   0.633159 0.076511 0.778076 0.223139
O38   O     O_R   0.720522 0.050318 0.830078 -0.248159
O39   O     O_R   0.653352 0.038572 0.712719 -0.407137
S4    S     S_3+6 0.498745 0.186796 0.885278 0.012298
O40   O     O_2   0.415027 0.106418 0.915300 -0.187239
O41   O     O_2   0.659600 0.207514 0.923234 -0.274871
O42   O     O_3   0.386507 0.281895 0.899070 -0.571632
H51   H     H_    0.386532 0.297850 0.951837 0.363419
S5    S     S_3+6 0.987404 0.705523 0.110668 -0.020276
O43   O     O_2   0.928395 0.611467 0.128214 -0.357939
O44   O     O_2   0.845482 0.760726 0.093443 -0.260721
O45   O     O_3   0.099684 0.692155 0.037628 -0.518036
H52   H     H_    0.021444 0.680039 0.996569 0.398659
S6    S     S_3+6 0.116006 0.890153 0.177768 0.046185
O46   O     O_2   0.197676 0.943122 0.243386 -0.261615
O47   O     O_2   0.208326 0.909527 0.113098 -0.255125
O48   O     O_3   0.930357 0.929539 0.168856 -0.435499
H53   H     H_    0.922330 0.947911 0.119758 0.404079

loop_
_geom_bond_atom_site_label_1
_geom_bond_atom_site_label_2
_geom_bond_distance
_ccdc_geom_bond_type
C22   C23   1.414157 A    
P7    O22   1.751894 S    
C50   C51   1.417868 A    
C17   C29   1.417039 A    
C3    H23   1.105287 S    
C2    C3    1.563900 S    
Ba2   O21   2.877829 S    
C39   H36   1.078916 S    
C9    S3    1.786767 S    
C30   C31   1.424095 A    
C9    N2    1.456966 S    
C55   H44   1.082603 S    
P2    C44   1.838995 S    
C52   C53   1.396084 A    
P2    O20   1.572168 S    
C48   C49   1.416730 A    
S5    O44   1.496431 D    
C44   C49   1.426639 A    
C40   C41   1.403570 A    
C5    H9    1.109994 S    
C37   C39   1.392338 A    
O42   H51   0.990609 S    
O1    Ba1   2.851024 S    
C38   C39   1.403556 A    
O7    Ba1   2.877519 S    
N2    O36   1.300132 A    
C8    H14   1.111063 S    
C19   C21   1.387906 A    
O6    C10   1.408973 S    
C2    H3    1.105675 S    
O10   C8    1.400906 S    
C9    H15   1.107173 S    
Ba1   O13   2.802473 S    
C7    S2    1.786860 S    
O45   H52   0.990739 S    
C11   O22   1.408302 S    
S4    O42   1.682693 S    
C11   H18   1.108650 S    
P1    O1    1.531718 D    
S3    O35   1.683588 S    
O2    Ba1   2.959951 S    
C53   H45   1.082180 S    
C4    O15   1.397654 S    
P3    C46   1.828300 S    
C8    H13   1.105773 S    
C1    H1    1.102200 S    
P8    O23   1.534946 D    
P3    O11   1.761558 S    
C10   S1    1.770007 S    
S3    O33   1.501990 D    
N3    O39   1.300843 A    
C14   H26   1.109351 S    
P5    O19   1.744891 S    
S5    O45   1.678447 S    
C15   C16   1.529118 S    
C1    C10   1.521494 S    
P4    O15   1.751184 S    
S2    O31   1.496664 D    
O3    Ba1   2.792206 S    
S6    O48   1.676559 S    
C41   H37   1.081825 S    
O14   P8    1.742172 S    
P4    O13   1.566864 S    
C29   C36   1.421079 A    
C12   H20   1.106232 S    
C24   C35   1.417206 A    
C37   H41   1.079082 S    
C34   C35   1.413377 A    
C36   C37   1.410423 A    
O2    Ba2   2.803025 S    
S6    O47   1.504365 D    
O17   Ba2   2.756103 S    
S4    O41   1.502936 D    
Ba1   Ba2   4.558052 S    
P5    O17   1.756603 S    
C12   H21   1.110334 S    
O3    P6    1.751875 S    
C13   H24   1.110284 S    
C33   C34   1.395907 A    
C18   H39   1.077450 S    
C8    C9    1.547165 S    
C19   C20   1.410173 A    
C1    H17   1.100047 S    
C26   C27   1.392436 A    
C20   C24   1.421890 A    
C45   H42   1.082345 S    
P6    C40   1.845872 S    
C16   N3    1.461286 S    
Ba1   O20   2.949244 S    
C5    H7    1.109137 S    
C31   C42   1.432166 A    
C4    C5    1.521509 S    
S4    O40   1.502906 D    
C6    N1    1.454326 S    
P1    O5    1.763879 S    
P1    O2    1.567059 S    
C7    H12   1.110921 S    
C15   H29   1.108717 S    
C47   H43   1.083307 S    
C30   C38   1.411751 A    
P1    C42   1.894055 S    
S2    O32   1.681560 S    
P2    O10   1.748582 S    
N3    O38   1.301342 A    
P3    O9    1.543460 D    
C50   C56   1.405786 A    
C19   H38   1.077110 S    
C31   C32   1.393214 A    
C14   H28   1.106135 S    
P1    Ba1   3.430248 S    
O11   C2    1.409147 S    
O35   H50   0.990124 S    
C43   C49   1.416271 A    
C10   H16   1.106476 S    
P4    C27   1.879047 S    
C21   H33   1.075409 S    
C16   S4    1.806077 S    
C46   C47   1.392155 A    
S1    O26   1.490325 D    
O13   Ba2   2.960729 S    
P4    O12   1.532079 D    
O5    C6    1.396276 S    
P3    O8    1.747861 S    
P8    O24   1.744746 S    
C4    H6    1.110734 S    
C33   H35   1.075753 S    
C43   C51   1.409358 A    
O8    Ba1   2.755514 S    
C28   C33   1.398590 A    
S1    O27   1.673713 S    
O12   Ba2   2.851517 S    
S5    O43   1.498527 D    
C32   H34   1.064286 S    
C43   H46   1.079513 S    
S6    O46   1.501275 D    
S2    O30   1.501963 D    
P5    O18   1.546588 D    
N1    O29   1.302516 A    
C23   C28   1.422949 A    
C12   H22   1.110279 S    
C50   C52   1.414338 A    
O19   C13   1.406651 S    
C21   C22   1.398431 A    
C4    H5    1.104013 S    
P7    C52   1.845978 S    
C16   H31   1.109923 S    
C48   C56   1.398124 A    
C44   C45   1.398660 A    
O14   Ba2   2.791523 S    
C5    H8    1.106733 S    
C17   C20   1.428086 A    
O16   Ba2   2.948468 S    
Ba2   O20   2.790261 S    
C3    S5    1.798417 S    
C11   C12   1.525754 S    
Ba1   O16   2.790797 S    
C13   C14   1.519183 S    
C7    H11   1.109598 S    
P8    C25   1.846950 S    
N2    O37   1.300913 A    
C54   C55   1.403394 A    
C53   C54   1.395793 A    
O6    P6    1.762071 S    
O48   H53   0.990551 S    
O32   H49   0.990303 S    
C6    C7    1.545246 S    
P2    O7    1.516412 D    
C25   C26   1.395577 A    
C6    H10   1.103061 S    
O16   P7    1.760258 S    
C38   C40   1.414004 A    
P4    Ba2   3.430699 S    
C27   C28   1.433005 A    
C11   H19   1.110150 S    
C2    H4    1.111756 S    
S3    O34   1.503932 D    
C26   H32   1.081906 S    
C29   C30   1.435811 A    
C15   O24   1.400244 S    
C51   C55   1.414023 A    
C34   H40   1.077455 S    
S1    O25   1.498127 D    
P7    O21   1.562451 D    
P5    C54   1.856580 S    
C23   C24   1.434685 A    
P2    Ba1   3.450364 S    
C1    H2    1.108257 S    
C17   C18   1.412225 A    
C18   C32   1.391591 A    
C22   C25   1.414555 A    
C41   C42   1.395601 A    
C35   C36   1.430450 A    
C45   C46   1.391826 A    
O4    P6    1.539803 D    
C14   H27   1.107681 S    
C56   H47   1.079977 S    
C13   H25   1.113540 S    
C47   C48   1.404317 A    
O27   H48   0.990405 S    
C15   H30   1.113907 S    
C3    S6    1.806027 S    
N1    O28   1.293519 A    
