data_mof_unit_42987.cif
_audit_creation_date              2012-12-10T18:54:28-0500
_audit_creation_method            fapswitch 2.2
_symmetry_space_group_name_H-M    P1
_symmetry_Int_Tables_number       1
_space_group_crystal_system       triclinic
_cell_length_a                    19.445948
_cell_length_b                    18.395054
_cell_length_c                    9.057236
_cell_angle_alpha                 89.998817
_cell_angle_beta                  94.028071
_cell_angle_gamma                 89.998514
_cell_volume                      3231.85397515

loop_
_atom_site_label
_atom_site_type_symbol
_atom_type_description
_atom_site_fract_x
_atom_site_fract_y
_atom_site_fract_z
_atom_type_partial_charge
C1    C     C_R   0.367785 0.500075 0.500672 0.761297
C2    C     C_R   0.632212 0.500072 0.499260 0.761281
C3    C     C_R   0.457441 0.722901 0.398934 0.335340
C4    C     C_R   0.532322 0.275739 0.617353 0.319653
C5    C     C_R   0.542556 0.722897 0.601072 0.335412
C6    C     C_R   0.467683 0.275737 0.382650 0.319626
C7    C     C_R   0.457207 0.799835 0.399856 -0.280824
C8    C     C_R   0.534264 0.198614 0.612571 -0.315252
C9    C     C_R   0.542781 0.799830 0.600170 -0.280783
C10   C     C_R   0.465713 0.198614 0.387480 -0.315343
C11   C     C_R   0.499992 0.839541 0.500018 0.032221
C12   C     C_R   0.499983 0.159340 0.500036 0.049139
C13   C     C_R   0.560751 0.961505 0.537771 -0.181034
C14   C     C_R   0.439326 0.037971 0.461580 -0.182893
C15   C     C_R   0.439223 0.961506 0.462292 -0.181113
C16   C     C_R   0.560643 0.037970 0.538496 -0.182923
C17   C     C_R   0.499983 0.077457 0.500041 0.138195
C18   C     C_R   0.499988 0.921727 0.500027 0.140668
C19   C     C_R   0.499824 0.500020 0.220816 0.843547
C20   C     C_R   0.500177 0.500019 0.779184 0.843534
C21   C     C_1   0.499936 0.500052 0.065608 -0.204974
C22   C     C_1   0.500064 0.500050 0.934392 -0.205023
C23   C     C_R   0.743978 0.435422 0.480666 -0.190382
C24   C     C_R   0.255754 0.566373 0.487789 -0.191434
C25   C     C_R   0.255912 0.435339 0.517623 -0.191099
C26   C     C_R   0.744251 0.566264 0.511629 -0.190777
C27   C     C_R   0.815582 0.435850 0.481085 -0.170864
C28   C     C_R   0.184152 0.566865 0.488129 -0.171696
C29   C     C_R   0.184261 0.435784 0.515853 -0.171954
C30   C     C_R   0.815808 0.566797 0.510266 -0.170679
C31   C     C_R   0.852209 0.501543 0.495846 0.109985
C32   C     C_R   0.148023 0.501526 0.501091 0.107338
C33   C     C_R   0.707723 0.500508 0.497416 -0.025523
C34   C     C_R   0.292255 0.500524 0.501925 -0.025135
C35   C     C_R   0.967392 0.548877 0.591365 -0.178876
C36   C     C_R   0.033628 0.454811 0.404674 -0.179232
C37   C     C_R   0.039030 0.549152 0.592012 -0.178647
C38   C     C_R   0.961963 0.455163 0.402515 -0.178634
C39   C     C_R   0.072507 0.501882 0.499204 0.096132
C40   C     C_R   0.928145 0.501953 0.496393 0.099595
Cu1   Cu    Cu3+1 0.500000 0.573360 0.500000 0.920073
Cu2   Cu    Cu3+1 0.500000 0.426640 0.500000 0.933476
H1    H     H_    0.717162 0.384105 0.466622 0.144627
H2    H     H_    0.282390 0.617515 0.475797 0.143859
H3    H     H_    0.282700 0.384044 0.532422 0.144997
H4    H     H_    0.717634 0.617413 0.523709 0.143762
H5    H     H_    0.842278 0.384603 0.471393 0.123293
H6    H     H_    0.156839 0.618079 0.475977 0.126552
H7    H     H_    0.157108 0.384954 0.528075 0.127075
H8    H     H_    0.842557 0.618404 0.519067 0.123318
H9    H     H_    0.942825 0.584587 0.666785 0.126457
H10   H     H_    0.058750 0.418552 0.331078 0.129745
H11   H     H_    0.068425 0.585325 0.666765 0.129938
H12   H     H_    0.933042 0.419409 0.326187 0.126549
H13   H     H_    0.423876 0.828723 0.318920 0.141446
H14   H     H_    0.560450 0.167907 0.701869 0.137524
H15   H     H_    0.576110 0.828714 0.681112 0.141449
H16   H     H_    0.439526 0.167907 0.298188 0.137525
H17   H     H_    0.609027 0.933653 0.564612 0.124480
H18   H     H_    0.391399 0.066326 0.433362 0.129294
H19   H     H_    0.390949 0.933654 0.435444 0.124431
H20   H     H_    0.608568 0.066324 0.566714 0.129327
N1    N     N_R   0.500000 0.683620 0.500000 -0.203050
N2    N     N_R   0.500000 0.316380 0.500000 -0.175727
O1    O     O_R   0.400190 0.561980 0.499980 -0.605939
O2    O     O_R   0.599810 0.438020 0.500020 -0.574735
O3    O     O_R   0.599810 0.561980 0.500020 -0.605835
O4    O     O_R   0.400190 0.438020 0.499980 -0.574609
O5    O     O_R   0.500000 0.561940 0.288400 -0.578469
O6    O     O_R   0.500000 0.438060 0.711600 -0.582346
O7    O     O_R   0.500000 0.561940 0.711600 -0.578512
O8    O     O_R   0.500000 0.438060 0.288400 -0.582410
C41   C     C_3   0.408993 0.688546 0.280550 -0.374594
C42   C     C_3   0.435119 0.699489 0.127182 -0.860691
H21   H     H_    0.488826 0.679318 0.126342 0.278116
H22   H     H_    0.402147 0.668733 0.043791 0.243106
H23   H     H_    0.433838 0.757833 0.095747 0.244535
H24   H     H_    0.400381 0.630565 0.295278 0.250518
H25   H     H_    0.357144 0.713818 0.283280 0.161533
C43   C     C_3   0.564080 0.306051 0.764215 -0.339422
C44   C     C_3   0.632744 0.345517 0.754119 -0.748285
H26   H     H_    0.658376 0.328157 0.654407 0.237853
H27   H     H_    0.625635 0.405130 0.755945 0.252789
H28   H     H_    0.668044 0.332355 0.852339 0.205702
H29   H     H_    0.526519 0.335213 0.827846 0.204628
H30   H     H_    0.576297 0.260763 0.843185 0.146718
C45   C     C_3   0.591013 0.688534 0.719441 -0.374670
C46   C     C_3   0.564905 0.699484 0.872821 -0.860520
H31   H     H_    0.511179 0.679369 0.873663 0.278008
H32   H     H_    0.597853 0.668683 0.956204 0.243270
H33   H     H_    0.566242 0.757825 0.904271 0.244553
H34   H     H_    0.599619 0.630551 0.704722 0.250495
H35   H     H_    0.642863 0.713799 0.716679 0.161452
C47   C     C_3   0.435988 0.306040 0.235722 -0.339010
C48   C     C_3   0.367313 0.345505 0.245670 -0.749219
H36   H     H_    0.341598 0.328057 0.345212 0.237598
H37   H     H_    0.374422 0.405118 0.244071 0.253019
H38   H     H_    0.332091 0.332420 0.147281 0.205742
H39   H     H_    0.473579 0.335194 0.172155 0.204594
H40   H     H_    0.423804 0.260746 0.156754 0.146750

loop_
_geom_bond_atom_site_label_1
_geom_bond_atom_site_label_2
_ccdc_geom_bond_type
C15   C18   A    
C45   C46   S    
C11   C18   S    
C25   H3    S    
C41   C42   S    
C48   H36   S    
C7    H13   S    
C4    C8    A    
C8    H14   S    
C44   H26   S    
C48   H38   S    
Cu1   O3    S    
C29   H7    S    
C7    C11   A    
C42   H22   S    
C13   C18   A    
C35   C37   A    
C4    C43   S    
C29   C32   A    
C3    C7    A    
C30   C31   A    
Cu2   O6    S    
C1    O4    A    
C23   H1    S    
C31   C40   S    
C5    N1    A    
C25   C29   A    
Cu1   Cu2   S    
C32   C39   S    
C6    N2    A    
C43   H30   S    
C16   C17   A    
C6    C47   S    
C42   H23   S    
C12   C17   S    
C1    O1    A    
C41   H24   S    
C20   O7    A    
C23   C27   A    
C36   H10   S    
C25   C34   A    
Cu1   O7    S    
C37   H11   S    
C30   H8    S    
C45   H34   S    
Cu2   O4    S    
C14   C17   A    
C20   O6    A    
C19   O8    A    
C16   H20   S    
C44   H27   S    
C1    C34   S    
C15   H19   S    
C42   H21   S    
C27   C31   A    
C28   C32   A    
C2    O3    A    
Cu1   O1    S    
C23   C33   A    
C24   C34   A    
C5    C9    A    
C43   H29   S    
C26   C33   A    
C38   H12   S    
C46   H33   S    
C47   H40   S    
C8    C12   A    
Cu2   O8    S    
C41   H25   S    
C9    C11   A    
C10   C12   A    
C2    C33   S    
C46   H32   S    
C26   C30   A    
C35   H9    S    
C24   H2    S    
C19   O5    A    
Cu1   N1    S    
Cu2   N2    S    
C44   H28   S    
Cu1   O5    S    
C27   H5    S    
C28   H6    S    
C10   H16   S    
C36   C39   A    
C24   C28   A    
C20   C22   S    
C43   C44   S    
C2    O2    A    
C6    C10   A    
C48   H37   S    
C13   H17   S    
C3    N1    A    
C14   H18   S    
C4    N2    A    
C36   C38   A    
C35   C40   A    
C37   C39   A    
C38   C40   A    
C47   H39   S    
C45   H35   S    
C9    H15   S    
C47   C48   S    
C3    C41   S    
C26   H4    S    
C5    C45   S    
C46   H31   S    
C13   C16   A    
Cu2   O2    S    
C14   C15   A    
C21   C22   T    
C19   C21   S    
