data_mof_unit_12359.cif
_audit_creation_date              2012-12-10T19:12:24-0500
_audit_creation_method            fapswitch 2.2
_symmetry_space_group_name_H-M    P1
_symmetry_Int_Tables_number       1
_space_group_crystal_system       triclinic
_cell_length_a                    15.720717
_cell_length_b                    10.626207
_cell_length_c                    9.702855
_cell_angle_alpha                 89.943895
_cell_angle_beta                  90.042518
_cell_angle_gamma                 89.931119
_cell_volume                      1620.87498857

loop_
_atom_site_label
_atom_site_type_symbol
_atom_type_description
_atom_site_fract_x
_atom_site_fract_y
_atom_site_fract_z
_atom_type_partial_charge
C1    C     C_R   0.499952 0.257515 0.500367 0.834804
C2    C     C_3   0.082697 0.499397 0.499810 0.176219
C3    C     C_3   0.971656 0.618104 0.512956 -0.151242
C4    C     C_3   0.917289 0.499088 0.500064 0.191761
C5    C     C_3   0.027869 0.569096 0.393510 -0.189290
C6    C     C_3   0.971588 0.450108 0.380213 -0.192492
C7    C     C_1   0.173594 0.499940 0.499749 -0.098699
C8    C     C_1   0.826449 0.499402 0.500199 -0.090113
C9    C     C_3   0.499356 0.071324 0.651974 -0.402317
C10   C     C_3   0.499133 0.928472 0.651853 -0.398596
C11   C     C_3   0.419519 0.072514 0.425819 -0.406186
C12   C     C_R   0.337795 0.500099 0.499909 0.915201
C13   C     C_3   0.580644 0.072160 0.427390 -0.406210
C14   C     C_3   0.499858 0.121239 0.501384 0.197692
C15   C     C_3   0.499817 0.878822 0.501149 0.196461
C16   C     C_3   0.419578 0.928059 0.425470 -0.405783
C17   C     C_3   0.580678 0.927732 0.427440 -0.406364
C18   C     C_3   0.472378 0.375162 0.082394 -0.230248
C19   C     C_3   0.472735 0.373399 0.919892 -0.238499
C20   C     C_3   0.438640 0.594449 0.079866 -0.239580
C21   C     C_3   0.583771 0.527885 0.081283 -0.229317
C22   C     C_3   0.439053 0.592677 0.917347 -0.231498
C23   C     C_R   0.499893 0.742505 0.500193 0.834429
C24   C     C_3   0.584161 0.526155 0.918999 -0.229610
C25   C     C_R   0.662215 0.500027 0.500088 0.916747
C26   C     C_3   0.971850 0.429305 0.606770 -0.192248
C27   C     C_3   0.027633 0.381736 0.487081 0.152787
C28   C     C_1   0.248887 0.500085 0.499767 -0.216606
C29   C     C_1   0.751141 0.499708 0.500214 -0.220243
C30   C     C_3   0.028136 0.548348 0.619245 -0.190099
H1    H     H_    0.441526 0.894320 0.707203 0.165275
H2    H     H_    0.361092 0.107701 0.477978 0.153154
H3    H     H_    0.361092 0.892687 0.477204 0.153944
H4    H     H_    0.582639 0.106813 0.319101 0.168076
H5    H     H_    0.638754 0.107323 0.480461 0.152619
H6    H     H_    0.638709 0.892359 0.480810 0.153132
H7    H     H_    0.582858 0.893162 0.319200 0.169538
H8    H     H_    0.418111 0.107411 0.317589 0.168042
H9    H     H_    0.418406 0.893744 0.317091 0.167925
H10   H     H_    0.407958 0.350186 0.121053 0.142606
H11   H     H_    0.946941 0.371937 0.693462 0.123327
H12   H     H_    0.516302 0.300938 0.120995 0.143129
H13   H     H_    0.516771 0.298471 0.883592 0.141141
H14   H     H_    0.408450 0.347885 0.880973 0.142956
H15   H     H_    0.373078 0.576295 0.117918 0.149622
H16   H     H_    0.373612 0.573947 0.879011 0.149773
H17   H     H_    0.605604 0.621334 0.118852 0.141999
H18   H     H_    0.630582 0.457723 0.120115 0.149415
H19   H     H_    0.631188 0.455347 0.882548 0.147671
H20   H     H_    0.606055 0.618882 0.879286 0.143192
H21   H     H_    0.456105 0.690024 0.116884 0.140962
H22   H     H_    0.946461 0.409624 0.282939 0.123693
H23   H     H_    0.456647 0.687542 0.878309 0.141905
H24   H     H_    0.052826 0.626474 0.306870 0.134040
H25   H     H_    0.946329 0.715156 0.523685 0.128121
H26   H     H_    0.053325 0.588771 0.716498 0.132517
H27   H     H_    0.442023 0.105973 0.707790 0.166264
H28   H     H_    0.556027 0.893739 0.708986 0.168006
N1    N     N_3   0.498170 0.499750 0.138610 -0.030668
N2    N     N_3   0.498850 0.496730 0.861320 -0.030265
O1    O     O_R   0.499980 0.314910 0.616040 -0.635682
O2    O     O_R   0.500040 0.314680 0.383960 -0.636865
O3    O     O_R   0.376750 0.500100 0.616020 -0.621886
O4    O     O_R   0.376810 0.499870 0.383940 -0.620743
O5    O     O_R   0.499960 0.685320 0.616040 -0.637675
O6    O     O_R   0.500020 0.685090 0.383960 -0.633853
O7    O     O_R   0.623190 0.500130 0.616060 -0.623114
O8    O     O_R   0.623250 0.499900 0.383980 -0.623505
Zn1   Zn    Zn3+2 0.499960 0.500150 0.654960 0.898728
Zn2   Zn    Zn3+2 0.500040 0.499850 0.345040 0.899498
C31   C     C_3   0.062678 0.248204 0.472597 -0.439947
C32   C     C_3   0.990705 0.151598 0.461980 -0.336736
C33   C     C_3   0.025855 0.018292 0.447961 -0.901586
H29   H     H_    0.065665 0.010398 0.353815 0.259711
H30   H     H_    0.064769 0.993361 0.539641 0.259842
H31   H     H_    0.972376 0.950542 0.439806 0.242631
H32   H     H_    0.950174 0.156354 0.555667 0.216532
H33   H     H_    0.950435 0.172966 0.370668 0.216930
H34   H     H_    0.103012 0.243785 0.378701 0.199967
H35   H     H_    0.103009 0.226837 0.563804 0.199657
H36   H     H_    0.556537 0.105301 0.708659 0.166123

loop_
_geom_bond_atom_site_label_1
_geom_bond_atom_site_label_2
_ccdc_geom_bond_type
C11   H8    S    
C33   H29   S    
C2    C7    S    
C25   O7    A    
C4    C8    S    
C1    O2    A    
C31   H34   S    
C26   C27   S    
C12   C28   S    
C8    C29   T    
C23   O6    A    
C10   H28   S    
C21   N1    S    
C20   H21   S    
C10   C15   S    
C18   H12   S    
C22   N2    S    
C5    C6    S    
C12   O4    A    
C11   C14   S    
C15   C16   S    
O2    Zn2   S    
C18   C19   S    
C18   H10   S    
C32   H33   S    
C3    H25   S    
C10   H1    S    
O3    Zn1   S    
C2    C27   S    
C17   H6    S    
O4    Zn2   S    
C9    C10   S    
C20   H15   S    
C21   H18   S    
C15   C23   S    
C13   C14   S    
C24   H20   S    
C33   H30   S    
C25   O8    A    
C31   H35   S    
C19   H13   S    
C22   H23   S    
C25   C29   S    
C5    H24   S    
C4    C6    S    
C12   O3    A    
C16   H9    S    
C30   H26   S    
C7    C28   T    
O7    Zn1   S    
C3    C30   S    
C9    C14   S    
C32   H32   S    
C16   H3    S    
C11   C16   S    
C6    C27   S    
C24   N2    S    
C17   H7    S    
C20   N1    S    
C22   H16   S    
C20   C22   S    
C11   H2    S    
C26   C30   S    
C33   H31   S    
C2    C5    S    
C3    C4    S    
C27   C31   S    
C19   H14   S    
O1    Zn1   S    
C24   H19   S    
C15   C17   S    
C32   C33   S    
C3    C5    S    
C1    O1    A    
C4    C26   S    
C13   H5    S    
C19   N2    S    
C13   C17   S    
C2    C30   S    
C23   O5    A    
C31   C32   S    
O6    Zn2   S    
N2    Zn1   S    
O5    Zn1   S    
C9    H27   S    
N1    Zn2   S    
C18   N1    S    
C13   H4    S    
O8    Zn2   S    
C21   C24   S    
C1    C14   S    
C6    H22   S    
C26   H11   S    
C9    H36   S    
C21   H17   S    
