data_mof_unit_20653.cif
_audit_creation_date              2013-03-05T15:44:50-0500
_audit_creation_method            fapswitch 2.2
_symmetry_space_group_name_H-M    P1
_symmetry_Int_Tables_number       1
_space_group_crystal_system       triclinic
_cell_length_a                    17.427687
_cell_length_b                    17.536413
_cell_length_c                    6.937546
_cell_angle_alpha                 91.101499
_cell_angle_beta                  90.526563
_cell_angle_gamma                 89.996641
_cell_volume                      2119.76534384

loop_
_atom_site_label
_atom_site_type_symbol
_atom_site_description
_atom_site_fract_x
_atom_site_fract_y
_atom_site_fract_z
_atom_type_partial_charge
O1    O     O_R   0.796490 0.328940 0.373020 -0.585142
O2    O     O_R   0.203510 0.671060 0.626980 -0.585101
O3    O     O_R   0.203510 0.828940 0.626980 -0.582863
O4    O     O_R   0.796490 0.171060 0.373020 -0.582848
O5    O     O_R   0.805560 0.173330 0.702970 -0.580365
O6    O     O_R   0.194440 0.826670 0.297030 -0.580404
O7    O     O_R   0.194440 0.673330 0.297030 -0.572967
O8    O     O_R   0.805560 0.326670 0.702970 -0.572978
O9    O     O_R   0.658440 0.172360 0.870170 -0.592062
O10   O     O_R   0.341560 0.827640 0.129830 -0.592063
O11   O     O_R   0.341560 0.672360 0.129830 -0.571569
O12   O     O_R   0.658440 0.327640 0.870170 -0.571549
C1    C     C_R   0.822558 0.144732 0.533046 1.037073
C2    C     C_R   0.177442 0.855267 0.466953 1.037134
C3    C     C_R   0.176710 0.645246 0.462205 1.034820
C4    C     C_R   0.823289 0.354753 0.537795 1.034898
O13   O     O_3   0.679200 0.250000 0.537050 -0.281302
O14   O     O_3   0.320800 0.750000 0.462950 -0.281300
V1    V     V_3+5 0.736420 0.250000 0.813120 1.277468
V2    V     V_3+5 0.263580 0.750000 0.186880 1.277453
O15   O     O_R   0.649370 0.327980 0.199650 -0.598078
O16   O     O_R   0.350630 0.672020 0.800350 -0.598079
O17   O     O_R   0.350630 0.827980 0.800350 -0.574356
O18   O     O_R   0.649370 0.172020 0.199650 -0.574368
C5    C     C_R   0.630523 0.354404 0.030966 1.010541
C6    C     C_R   0.369477 0.645596 0.969034 1.010584
C7    C     C_R   0.369399 0.854352 0.971097 1.019040
C8    C     C_R   0.630601 0.145648 0.028903 1.019105
H1    H     H_    0.955399 0.125754 0.723412 0.181854
H2    H     H_    0.044599 0.874238 0.276608 0.181851
H3    H     H_    0.057693 0.627738 0.696493 0.182381
H4    H     H_    0.942315 0.372247 0.303539 0.182371
V3    V     V_3+5 0.718510 0.250000 0.312740 1.265157
V4    V     V_3+5 0.281490 0.750000 0.687260 1.265160
O19   O     O_3   0.775740 0.250000 0.038930 -0.260817
O20   O     O_3   0.224260 0.750000 0.961070 -0.260817
C9    C     C_1   0.574225 0.083238 0.015324 -0.217846
C10   C     C_1   0.425775 0.916762 0.984676 -0.217807
C11   C     C_1   0.425946 0.583185 0.979894 -0.226865
C12   C     C_1   0.574054 0.416814 0.020106 -0.226825
C13   C     C_1   0.527499 0.030903 0.005503 0.118058
C14   C     C_1   0.472501 0.969097 0.994497 0.118060
C15   C     C_1   0.472577 0.530889 0.992156 0.111694
C16   C     C_1   0.527423 0.469111 0.007844 0.111694
C17   C     C_R   0.877448 0.080006 0.512355 -0.330778
C18   C     C_R   0.122554 0.919995 0.487638 -0.330786
C19   C     C_R   0.119977 0.581693 0.457865 -0.337230
C20   C     C_R   0.880020 0.418308 0.542128 -0.337206
C21   C     C_R   0.075762 0.029526 0.678601 0.262484
C22   C     C_R   0.924248 0.970487 0.321355 0.262400
C23   C     C_R   0.937470 0.530003 0.705704 0.284278
C24   C     C_R   0.062517 0.470010 0.294253 0.284219
C25   C     C_R   0.134519 0.976854 0.632923 0.258690
C26   C     C_R   0.865492 0.023158 0.367039 0.258731
C27   C     C_R   0.877770 0.475641 0.688523 0.272414
C28   C     C_R   0.122214 0.524374 0.311439 0.272435
C29   C     C_R   0.053397 0.919221 0.383510 -0.127989
C30   C     C_R   0.946604 0.080777 0.616492 -0.127962
C31   C     C_R   0.940789 0.417599 0.411395 -0.106800
C32   C     C_R   0.059212 0.582396 0.588610 -0.106724
C33   C     C_R   0.994621 0.972570 0.424516 -0.004823
C34   C     C_R   0.005383 0.027433 0.575469 -0.004856
C35   C     C_R   0.000558 0.471947 0.424962 -0.013371
C36   C     C_R   0.999438 0.528054 0.575021 -0.013448
N1    N     N_R   0.088339 0.085411 0.829496 0.253197
O21   O     O_R   0.047710 0.083738 0.985811 -0.356365
O22   O     O_R   0.144739 0.133677 0.818208 -0.287647
N2    N     N_R   0.911688 0.914633 0.170374 0.253184
O23   O     O_R   0.952372 0.916310 0.014151 -0.356452
O24   O     O_R   0.855237 0.866415 0.181451 -0.287609
N3    N     N_R   0.933783 0.588016 0.854255 0.250742
O25   O     O_R   0.985323 0.590607 0.991105 -0.373284
O26   O     O_R   0.875337 0.634109 0.862222 -0.291819
N4    N     N_R   0.066185 0.412027 0.145627 0.250730
O27   O     O_R   0.014583 0.409413 0.008938 -0.373413
O28   O     O_R   0.124679 0.366011 0.137375 -0.291792
N5    N     N_R   0.793821 0.019442 0.262917 0.253847
O29   O     O_R   0.729265 0.019024 0.355694 -0.383608
O30   O     O_R   0.792772 0.017651 0.075272 -0.345288
N6    N     N_R   0.206204 0.980589 0.736986 0.253819
O31   O     O_R   0.270749 0.980936 0.644157 -0.383645
O32   O     O_R   0.207277 0.982501 0.924629 -0.345207
N7    N     N_R   0.185043 0.521242 0.178751 0.255479
O33   O     O_R   0.255445 0.520622 0.242827 -0.392366
O34   O     O_R   0.172118 0.518116 0.993686 -0.333665
N8    N     N_R   0.814918 0.478801 0.821149 0.255432
O35   O     O_R   0.744523 0.479332 0.756991 -0.392427
O36   O     O_R   0.827811 0.482071 0.006235 -0.333544

loop_
_geom_bond_atom_site_label_1
_geom_bond_atom_site_label_2
_geom_bond_distance
_ccdc_geom_bond_type
O10   C7    1.302755 A    
C30   C34   1.414380 A    
C20   C27   1.416104 A    
C13   C14   1.447352 S    
C3    C19   1.489594 S    
C4    C20   1.489584 S    
O1    V3    1.976277 S    
C2    C18   1.490035 S    
N5    O29   1.301379 A    
C22   C26   1.413055 A    
O13   V3    1.706039 S    
C28   N7    1.437325 S    
C10   C14   1.227505 T    
C24   N4    1.435984 S    
C5    C12   1.474349 S    
N8    O36   1.301690 A    
C6    C11   1.474350 S    
O15   V3    1.990266 S    
C7    C10   1.471883 S    
H2    C29   1.082241 S    
C18   C25   1.418134 A    
O4    C1    1.289370 A    
O13   V1    2.151163 S    
C19   C32   1.400561 A    
C21   N1    1.435522 S    
O9    V1    1.971836 S    
O10   V2    1.971837 S    
N2    O23   1.301380 A    
N1    O22   1.301060 A    
O17   C7    1.302269 A    
C23   C27   1.413841 A    
C26   N5    1.437984 S    
O2    V4    1.976277 S    
O7    C3    1.295895 A    
O8    C4    1.295896 A    
C23   N3    1.436002 S    
N5    O30   1.301533 A    
O16   V4    1.990268 S    
C17   C30   1.399399 A    
O8    V1    1.974894 S    
N4    O27   1.301055 A    
C25   N6    1.438007 S    
N6    O32   1.301527 A    
N3    O26   1.301213 A    
N8    O35   1.301325 A    
C11   C15   1.228968 T    
O3    V4    1.987395 S    
O11   V2    1.961192 S    
H3    C32   1.081949 S    
C15   C16   1.449711 S    
O6    C2    1.308666 A    
N7    O33   1.301268 A    
O17   V4    1.969530 S    
O1    C4    1.303885 A    
O2    C3    1.303894 A    
O14   V4    1.706040 S    
O3    C2    1.289372 A    
N4    O28   1.301106 A    
N7    O34   1.301578 A    
C17   C26   1.418131 A    
O7    V2    1.974894 S    
C18   C29   1.399393 A    
C20   C31   1.400563 A    
O15   C5    1.306088 A    
O4    V3    1.987397 S    
C21   C34   1.414408 A    
O5    C1    1.308672 A    
C23   C36   1.416414 A    
O18   C8    1.302270 A    
N6    O31   1.301379 A    
C24   C35   1.416417 A    
C29   C33   1.414370 A    
O5    V1    1.954694 S    
O6    V2    1.954691 S    
C31   C35   1.413172 A    
O18   V3    1.969530 S    
O11   C6    1.300465 A    
O12   C5    1.300466 A    
C32   C36   1.413169 A    
C27   N8    1.437377 S    
N3    O25   1.301119 A    
V1    O19   1.704108 S    
C1    C17   1.490046 S    
C8    C9    1.471884 S    
C21   C25   1.413070 A    
O12   V1    1.961189 S    
V3    O19   2.153593 S    
V4    O20   2.153593 S    
O14   V2    2.151165 S    
C9    C13   1.227505 T    
C33   C34   1.419574 A    
C35   C36   1.418887 A    
V2    O20   1.704106 S    
C12   C16   1.228970 T    
H1    C30   1.082243 S    
N2    O24   1.301063 A    
N1    O21   1.301377 A    
O16   C6    1.306087 A    
C22   C33   1.414414 A    
H4    C31   1.081950 S    
C22   N2    1.435543 S    
C24   C28   1.413837 A    
O9    C8    1.302756 A    
C19   C28   1.416082 A    
