data_mof_unit_28813.cif
_audit_creation_date              2012-12-11T15:12:43-0500
_audit_creation_method            fapswitch 2.2
_symmetry_space_group_name_H-M    P1
_symmetry_Int_Tables_number       1
_space_group_crystal_system       triclinic
_cell_length_a                    22.361784
_cell_length_b                    6.940787
_cell_length_c                    19.39756
_cell_angle_alpha                 90.000947
_cell_angle_beta                  99.052661
_cell_angle_gamma                 90.000541
_cell_volume                      2973.1634592

loop_
_atom_site_label
_atom_site_type_symbol
_atom_type_description
_atom_site_fract_x
_atom_site_fract_y
_atom_site_fract_z
_atom_type_partial_charge
O1    O     O_R   0.448420 0.506120 0.415750 -0.532830
O2    O     O_R   0.551580 0.006120 0.584250 -0.532871
O3    O     O_R   0.436490 0.174470 0.555610 -0.538194
O4    O     O_R   0.563510 0.674470 0.444390 -0.538174
C1    C     C_R   0.421507 0.344570 0.576327 0.771009
C2    C     C_R   0.578491 0.844568 0.423671 0.771043
O5    O     O_R   0.441310 0.176330 0.414520 -0.542605
O6    O     O_R   0.558690 0.676330 0.585480 -0.542575
O7    O     O_R   0.556430 0.007110 0.442150 -0.533622
O8    O     O_R   0.443570 0.507110 0.557850 -0.533609
C3    C     C_R   0.426378 0.345178 0.388748 0.805611
C4    C     C_R   0.573621 0.845183 0.611252 0.805630
O9    O     O_3   0.537770 0.339560 0.509230 -0.370650
O10   O     O_3   0.462230 0.839560 0.490770 -0.370641
V1    V     V_3+5 0.492990 0.064280 0.498290 1.468220
V2    V     V_3+5 0.507010 0.564280 0.501710 1.468273
C5    C     C_R   0.871491 0.937426 0.695342 -0.127635
C6    C     C_R   0.128519 0.437771 0.304658 -0.127637
H1    H     H_    0.957859 0.964187 0.760465 0.115911
H2    H     H_    0.042153 0.464541 0.239535 0.115912
H3    H     H_    0.891197 0.950774 0.647959 0.128028
H4    H     H_    0.108819 0.451287 0.352039 0.128030
C7    C     C_R   0.885498 0.937992 0.821340 -0.054484
C8    C     C_R   0.114503 0.438024 0.178661 -0.054487
C9    C     C_R   0.592036 0.822400 0.738282 -0.292311
C10   C     C_R   0.407952 0.322172 0.261725 -0.292295
C11   C     C_R   0.628898 0.793068 0.801791 -0.089503
C12   C     C_R   0.371082 0.292738 0.198228 -0.089510
C13   C     C_R   0.691715 0.794257 0.806902 0.359821
C14   C     C_R   0.308266 0.294010 0.193124 0.359818
C15   C     C_R   0.719395 0.852612 0.748623 -0.083829
C16   C     C_R   0.280598 0.352561 0.251388 -0.083823
C17   C     C_R   0.681298 0.869469 0.681648 0.005235
C18   C     C_R   0.318702 0.369537 0.318354 0.005235
C19   C     C_R   0.783260 0.890381 0.754167 0.070842
C20   C     C_R   0.216738 0.390410 0.245839 0.070841
C21   C     C_R   0.808772 0.912401 0.692235 0.103042
C22   C     C_R   0.191234 0.412641 0.307766 0.103034
C23   C     C_R   0.771808 0.914015 0.627360 -0.271227
C24   C     C_R   0.228204 0.414370 0.372638 -0.271228
C25   C     C_R   0.708661 0.899743 0.621223 0.327948
C26   C     C_R   0.291348 0.400013 0.378773 0.327938
C27   C     C_R   0.822655 0.915558 0.818845 -0.217763
C28   C     C_R   0.177342 0.415476 0.181157 -0.217751
C29   C     C_R   0.909556 0.946780 0.759318 -0.158901
C30   C     C_R   0.090451 0.447031 0.240683 -0.158914
C31   C     C_R   0.616901 0.851501 0.677480 -0.075141
C32   C     C_R   0.383096 0.351470 0.322521 -0.075141
H5    H     H_    0.805616 0.924193 0.867781 0.152434
H6    H     H_    0.194377 0.423958 0.132216 0.152429
H7    H     H_    0.608296 0.754941 0.846862 0.138756
H8    H     H_    0.391676 0.254460 0.153166 0.138759
C33   C     C_3   0.793561 0.708572 0.242207 0.154710
C34   C     C_3   0.206434 0.208574 0.757784 0.154552
C35   C     C_3   0.802777 0.065565 0.266944 -0.250096
C36   C     C_3   0.197222 0.565563 0.733058 -0.250099
C37   C     C_3   0.754839 0.049421 0.317089 0.238894
C38   C     C_3   0.245193 0.549551 0.682950 0.238773
H9    H     H_    0.767171 0.654514 0.345756 0.205806
H10   H     H_    0.232744 0.154800 0.654176 0.205895
H11   H     H_    0.800891 0.212570 0.243823 0.117950
H12   H     H_    0.199063 0.712563 0.756180 0.117993
H13   H     H_    0.849287 0.048181 0.296586 0.198901
H14   H     H_    0.150727 0.548077 0.703386 0.198927
H15   H     H_    0.729590 0.188776 0.314923 0.062153
H16   H     H_    0.270468 0.688878 0.685206 0.062270
C39   C     C_1   0.624388 0.854780 0.378423 -0.198327
C40   C     C_1   0.375610 0.354784 0.621574 -0.198328
C41   C     C_3   0.791374 0.912250 0.207866 0.173943
C42   C     C_3   0.208624 0.412244 0.792131 0.173931
C43   C     C_3   0.745171 0.692171 0.291936 -0.340630
C44   C     C_3   0.254785 0.192235 0.708004 -0.340701
C45   C     C_3   0.709217 0.883165 0.293312 0.160767
C46   C     C_3   0.290780 0.383173 0.706684 0.160787
C47   C     C_3   0.678450 0.927338 0.217525 -0.466642
C48   C     C_3   0.321553 0.427161 0.782486 -0.466577
C49   C     C_3   0.726270 0.942742 0.167062 0.148142
C50   C     C_3   0.273727 0.442727 0.832936 0.148121
C51   C     C_1   0.662562 0.866362 0.340303 -0.062432
C52   C     C_1   0.337435 0.366369 0.659693 -0.062340
C53   C     C_1   0.837528 0.928284 0.160104 0.029261
C54   C     C_1   0.162470 0.428278 0.839894 0.029292
C55   C     C_1   0.875349 0.939573 0.121508 -0.168197
C56   C     C_1   0.124650 0.439570 0.878492 -0.168202
H17   H     H_    0.717060 0.827545 0.126600 0.094235
H18   H     H_    0.282922 0.327605 0.873425 0.094228
H19   H     H_    0.645463 0.811406 0.198828 0.144394
H20   H     H_    0.354485 0.311064 0.801168 0.144371
H21   H     H_    0.783243 0.598928 0.199869 0.086446
H22   H     H_    0.216791 0.098942 0.800116 0.086534
H23   H     H_    0.713440 0.572416 0.273840 0.109510
H24   H     H_    0.286492 0.072355 0.726020 0.109538
H25   H     H_    0.652169 0.063756 0.216878 0.173725
H26   H     H_    0.347899 0.563466 0.783169 0.173695
O11   O     O_R   0.056480 0.288780 0.942210 -0.534766
O12   O     O_R   0.943520 0.788780 0.057790 -0.534773
O13   O     O_R   0.058700 0.616820 0.085490 -0.538499
O14   O     O_R   0.941300 0.116820 0.914510 -0.538497
C57   C     C_R   0.073237 0.448133 0.111536 0.697056
C58   C     C_R   0.926763 0.948127 0.888464 0.697066
O15   O     O_R   0.063520 0.618570 0.944410 -0.536476
O16   O     O_R   0.936480 0.118570 0.055590 -0.536475
O17   O     O_R   0.948420 0.787670 0.915740 -0.536462
O18   O     O_R   0.051580 0.287670 0.084260 -0.536462
C59   C     C_R   0.078962 0.449776 0.924030 0.723394
C60   C     C_R   0.921038 0.949776 0.075969 0.723391
O19   O     O_3   0.962260 0.453430 0.990800 -0.366927
O20   O     O_3   0.037740 0.953430 0.009200 -0.366925
V3    V     V_3+5 0.007000 0.728750 0.001710 1.451101
V4    V     V_3+5 0.993000 0.228750 0.998290 1.451109
O21   O     O_3   0.851715 0.672683 0.279352 -0.626993
H27   H     H_    0.854083 0.532157 0.288966 0.292979
O22   O     O_3   0.148267 0.172616 0.720687 -0.627081
H28   H     H_    0.145912 0.032105 0.711068 0.293013
O23   O     O_3   0.784626 0.017769 0.385609 -0.632790
H29   H     H_    0.757619 0.066682 0.417689 0.281673
O24   O     O_3   0.215438 0.518174 0.614394 -0.632884
H30   H     H_    0.242470 0.567205 0.582363 0.281679
O25   O     O_3   0.722060 0.123374 0.133808 -0.641869
H31   H     H_    0.684471 0.121180 0.098918 0.296855
O26   O     O_3   0.277950 0.623422 0.866146 -0.641889
H32   H     H_    0.315532 0.621251 0.901044 0.296842
H33   H     H_    0.792291 0.933133 0.580711 0.132693
H34   H     H_    0.207727 0.433648 0.419284 0.132715
H35   H     H_    0.543408 0.810263 0.735835 0.119012
H36   H     H_    0.456578 0.309952 0.264171 0.119015
O27   O     O_3   0.723501 0.717423 0.867158 -0.655592
H37   H     H_    0.756158 0.636030 0.853488 0.287776
O28   O     O_3   0.276467 0.217063 0.132895 -0.655595
H38   H     H_    0.243803 0.135757 0.146593 0.287784
O29   O     O_3   0.673470 0.914468 0.556217 -0.659680
H39   H     H_    0.699636 0.936852 0.520195 0.276751
O30   O     O_3   0.326546 0.414861 0.443771 -0.659663
H40   H     H_    0.300387 0.437390 0.479789 0.276775

loop_
_geom_bond_atom_site_label_1
_geom_bond_atom_site_label_2
_ccdc_geom_bond_type
C40   C52   T    
O18   V4    S    
C7    C29   A    
C11   C13   A    
C8    C57   S    
C45   C47   S    
C41   C49   S    
O21   H27   S    
O1    C3    A    
O2    C4    A    
C2    O7    A    
C7    C27   A    
C23   C25   A    
O5    C3    A    
C47   H25   S    
C46   C48   S    
C26   O30   S    
O14   V4    S    
C16   C20   A    
C37   O23   S    
C5    C29   A    
C34   H22   S    
C1    C40   S    
C44   H24   S    
C42   C50   S    
H10   C44   S    
O15   V3    S    
O23   H29   S    
C34   O22   S    
C23   H33   S    
O20   V3    S    
C10   H36   S    
C37   C45   S    
C50   O26   S    
C9    H35   S    
O12   C60   A    
O11   C59   A    
O13   C57   A    
C38   H16   S    
C13   O27   S    
C36   C38   S    
C18   C26   A    
C35   H13   S    
C36   H14   S    
O16   C60   A    
C19   C27   A    
C9    C31   A    
C10   C32   A    
C48   H26   S    
C50   H18   S    
C24   C26   A    
C57   O18   A    
C49   H17   S    
O6    V2    S    
C22   C24   A    
C46   C52   S    
O19   V3    S    
C3    C32   S    
C4    C31   S    
C6    C30   A    
C53   C55   T    
C11   H7    S    
O15   C59   A    
C24   H34   S    
C48   C50   S    
C39   C51   T    
C44   C46   S    
C25   O29   S    
O28   H38   S    
C27   H5    S    
O5    V1    S    
O3    C1    A    
C33   C41   S    
C38   O24   S    
C5    H3    S    
C16   C18   A    
O4    V2    S    
O13   V3    S    
C34   C42   S    
O6    C4    A    
C15   C17   A    
C56   C59   S    
C45   C51   S    
C43   H23   S    
O1    V2    S    
C5    C21   A    
O2    V1    S    
C47   C49   S    
O26   H32   S    
C35   C41   S    
C41   C53   S    
C47   H19   S    
C2    C39   S    
C54   C56   T    
O9    V1    S    
C33   H21   S    
O30   H40   S    
C17   C31   A    
O19   V4    S    
C36   H12   S    
C20   C28   A    
O4    C2    A    
C18   C32   A    
O27   H37   S    
C33   C43   S    
O3    V1    S    
C38   C46   S    
C43   C45   S    
O22   H28   S    
C28   H6    S    
C48   H20   S    
C19   C21   A    
C6    H4    S    
C10   C12   A    
C37   H15   S    
C49   O25   S    
O11   V4    S    
O25   H31   S    
H1    C29   S    
C9    C11   A    
C14   O28   S    
O12   V3    S    
C36   C42   S    
C55   C60   S    
O17   V3    S    
C8    C30   A    
C35   C37   S    
O7    V1    S    
C17   C25   A    
C1    O8    A    
C21   C23   A    
O8    V2    S    
O24   H30   S    
C20   C22   A    
C14   C16   A    
C12   H8    S    
C33   O21   S    
C8    C28   A    
C35   H11   S    
C15   C19   A    
C12   C14   A    
O20   V4    S    
C7    C58   S    
O10   V2    S    
C58   O17   A    
C6    C22   A    
C42   C54   S    
O14   C58   A    
O16   V4    S    
C34   C44   S    
C13   C15   A    
O9    V2    S    
O10   V1    S    
H2    C30   S    
O29   H39   S    
H9    C43   S    
