data_mof_unit_29497.cif
_audit_creation_date              2012-12-11T14:15:20-0500
_audit_creation_method            fapswitch 2.2
_symmetry_space_group_name_H-M    P1
_symmetry_Int_Tables_number       1
_space_group_crystal_system       triclinic
_cell_length_a                    11.131775
_cell_length_b                    12.70693
_cell_length_c                    23.568703
_cell_angle_alpha                 90.018774
_cell_angle_beta                  96.488118
_cell_angle_gamma                 68.770818
_cell_volume                      3084.70573524

loop_
_atom_site_label
_atom_site_type_symbol
_atom_type_description
_atom_site_fract_x
_atom_site_fract_y
_atom_site_fract_z
_atom_type_partial_charge
C1    C     C_R   0.149457 0.617258 0.428993 0.545885
C2    C     C_R   0.633123 0.574127 0.311816 0.204900
C3    C     C_R   0.697702 0.737705 0.318531 0.241013
C4    C     C_R   0.701684 0.740795 0.258580 -0.002714
C5    C     C_R   0.676731 0.654428 0.226438 -0.059953
C6    C     C_R   0.690032 0.651261 0.167971 0.206942
C7    C     C_R   0.710619 0.833726 0.168876 0.216216
C8    C     C_R   0.732550 0.824060 0.229030 0.315539
C9    C     C_1   0.238662 0.159357 0.123345 0.056768
C10   C     C_2   0.201441 0.221439 0.229356 -0.010957
C11   C     C_2   0.143211 0.171036 0.262213 -0.016462
C12   C     C_R   0.746771 0.605721 0.404166 0.580904
C13   C     C_1   0.127358 0.200887 0.320926 0.005231
C14   C     C_1   0.219972 0.190810 0.170957 0.004562
C15   C     C_1   0.115011 0.232415 0.368941 0.055526
C16   C     C_1   0.167126 0.747858 0.123105 0.061697
C17   C     C_2   0.150793 0.677024 0.226778 0.264389
C18   C     C_2   0.223952 0.695789 0.272635 0.261307
C19   C     C_1   0.212620 0.662300 0.329825 0.130231
C20   C     C_1   0.157223 0.715328 0.169841 0.098622
C21   C     C_1   0.192923 0.638408 0.376575 0.079616
C22   C     C_1   0.611973 0.766556 0.861832 0.024250
C23   C     C_R   0.101224 0.281990 0.423662 0.554092
C24   C     C_2   0.637524 0.757569 0.751774 0.240142
C25   C     C_2   0.646801 0.662448 0.725005 -0.070561
C26   C     C_1   0.665119 0.649723 0.665578 0.113920
C27   C     C_1   0.628597 0.761539 0.812180 -0.003534
C28   C     C_1   0.693605 0.632582 0.617764 0.130808
C29   C     C_R   0.201486 0.183087 0.852232 -0.009798
C30   C     C_R   0.105372 0.212821 0.637739 -0.037343
C31   C     C_R   0.978041 0.213948 0.715511 0.233526
C32   C     C_R   0.989639 0.212764 0.656949 -0.065681
C33   C     C_R   0.216317 0.188154 0.676477 0.211858
C34   C     C_R   0.145107 0.614312 0.592484 0.597538
C35   C     C_R   0.203966 0.201850 0.734856 -0.048314
C36   C     C_R   0.087815 0.203192 0.755679 -0.001276
C37   C     C_R   0.090612 0.186026 0.815401 0.238420
C38   C     C_R   0.292621 0.222218 0.830952 -0.071895
C39   C     C_R   0.299832 0.223221 0.772347 -0.031829
C40   C     C_R   0.118110 0.742342 0.856035 0.001144
C41   C     C_R   0.175830 0.632258 0.652961 0.019021
C42   C     C_R   0.313709 0.579918 0.743719 -0.014921
C43   C     C_R   0.298573 0.575370 0.683749 0.157033
C44   C     C_R   0.073561 0.703179 0.681661 0.180848
C45   C     C_R   0.747690 0.602394 0.565183 0.565901
C46   C     C_R   0.096726 0.725875 0.738429 -0.026088
C47   C     C_R   0.208499 0.650718 0.771791 -0.044921
C48   C     C_R   0.210302 0.652256 0.831570 0.206850
C49   C     C_R   0.005750 0.814058 0.822356 -0.070077
C50   C     C_R   0.002303 0.813852 0.763571 -0.010782
C51   C     C_R   0.265800 0.109993 0.069288 0.554496
C52   C     C_R   0.602583 0.773852 0.080924 0.578359
C53   C     C_R   0.189388 0.787435 0.069635 0.544943
C54   C     C_R   0.241029 0.116303 0.907245 0.560585
C55   C     C_R   0.573220 0.777381 0.918010 0.550765
C56   C     C_R   0.099949 0.274869 0.584091 0.558042
C57   C     C_R   0.161100 0.784486 0.909134 0.557642
C58   C     C_R   0.678460 0.750460 0.138343 0.003523
C59   C     C_R   0.683752 0.644019 0.345171 0.032022
C60   C     C_R   0.629945 0.578956 0.252504 0.030105
Cr1   Cr    Cr6+3 0.189770 0.415650 0.511620 1.163839
Cr2   Cr    Cr6+3 0.930400 0.667320 0.496770 1.169655
Cr3   Cr    Cr6+3 0.879870 0.417010 0.491650 1.124325
Cr4   Cr    Cr6+3 0.149500 0.973980 0.985330 1.141297
Cr5   Cr    Cr6+3 0.457000 0.976510 0.994660 1.134153
Cr6   Cr    Cr6+3 0.411170 0.724270 0.995270 1.154335
H1    H     H_    0.653114 0.587920 0.749316 0.141425
O1    O     O_R   0.196340 0.303200 0.448500 -0.479979
O2    O     O_R   0.811960 0.658090 0.547150 -0.443131
O3    O     O_R   0.757930 0.506140 0.547110 -0.492687
O4    O     O_R   0.988670 0.321620 0.556040 -0.517703
O5    O     O_3   0.000020 0.499990 0.500010 -0.313288
O6    O     O_R   0.113660 0.883270 0.047820 -0.478204
O7    O     O_R   0.186930 0.068530 0.043990 -0.489493
O8    O     O_R   0.377770 0.089040 0.054220 -0.467236
O9    O     O_R   0.562800 0.872960 0.056970 -0.459745
O10   O     O_R   0.555390 0.700940 0.062700 -0.455034
O11   O     O_R   0.295020 0.731920 0.049950 -0.490120
O12   O     O_R   0.199310 0.519670 0.454880 -0.482893
O13   O     O_R   0.094290 0.884230 0.921550 -0.489829
O14   O     O_R   0.168980 0.069410 0.926940 -0.437516
O15   O     O_R   0.358400 0.089990 0.927950 -0.512473
O16   O     O_R   0.544850 0.873850 0.939920 -0.486971
O17   O     O_R   0.536020 0.701900 0.936430 -0.467191
O18   O     O_R   0.277070 0.732810 0.932890 -0.446687
O19   O     O_3   0.339220 0.891590 0.991750 -0.306484
O20   O     O_R   0.045660 0.691380 0.441680 -0.474731
O21   O     O_R   0.811930 0.659460 0.430950 -0.459496
O22   O     O_R   0.757900 0.507620 0.421760 -0.451156
O23   O     O_R   0.988630 0.322990 0.439840 -0.486627
O24   O     O_R   0.196380 0.301720 0.573850 -0.430971
O25   O     O_R   0.199350 0.518300 0.571080 -0.451526
O26   O     O_R   0.045700 0.689900 0.567030 -0.455997
Cl1   Cl    Cl    0.738288 0.521524 0.132745 -0.485611
Cl2   Cl    Cl    0.042796 0.606171 0.233743 -0.589808
Cl3   Cl    Cl    0.622807 0.882478 0.714641 -0.440553
Cl4   Cl    Cl    0.967352 0.151913 0.843767 -0.456009
C61   C     C_1   0.387564 0.250767 0.869112 0.304704
N1    N     N_1   0.464092 0.272113 0.899445 -0.141091
Cl5   Cl    Cl    0.817223 0.257026 0.734071 -0.428097
C62   C     C_1   0.403153 0.251091 0.751520 0.317087
N2    N     N_1   0.486340 0.272201 0.735157 -0.080653
C63   C     C_1   0.881199 0.211818 0.616740 0.332188
N3    N     N_1   0.794650 0.210913 0.584775 -0.161224
Cl6   Cl    Cl    0.369235 0.124957 0.650784 -0.425787
Cl7   Cl    Cl    0.308872 0.534042 0.876689 -0.557779
Cl8   Cl    Cl    0.732393 0.945952 0.132338 -0.446014
C64   C     C_1   0.894231 0.889220 0.847631 0.296557
N4    N     N_1   0.805197 0.948937 0.867591 -0.188474
C65   C     C_1   0.440561 0.519647 0.774589 0.322553
N5    N     N_1   0.541887 0.471005 0.799305 -0.156209
C66   C     C_1   0.915882 0.914483 0.730240 0.347986
N6    N     N_1   0.847601 0.994723 0.703741 -0.102435
Cl9   Cl    Cl    0.432589 0.497250 0.647806 -0.525256
Cl10  Cl    Cl    0.908000 0.737335 0.654065 -0.548616
C67   C     C_1   0.565816 0.514387 0.218910 0.374178
N7    N     N_1   0.513939 0.463130 0.192343 -0.172658
Cl11  Cl    Cl    0.808986 0.910744 0.263961 -0.379148
Cl12  Cl    Cl    0.565549 0.484647 0.343448 -0.504384
Cl13  Cl    Cl    0.683592 0.856692 0.360279 -0.426503
C68   C     C_1   0.092558 0.087331 0.239815 0.290347
N8    N     N_1   0.051997 0.020456 0.221851 -0.148198
C69   C     C_1   0.255178 0.302872 0.252289 0.293388
N9    N     N_1   0.298695 0.367563 0.270716 -0.178115
Cl14  Cl    Cl    0.325662 0.772859 0.265858 -0.616303

loop_
_geom_bond_atom_site_label_1
_geom_bond_atom_site_label_2
_ccdc_geom_bond_type
C1    O20   A    
C1    C21   S    
C62   N2    T    
C41   C43   A    
C6    C58   A    
C35   C36   A    
C9    C51   S    
C24   C27   S    
C4    C8    A    
Cr6   O18   S    
C37   Cl4   S    
C8    Cl11  S    
C7    C8    A    
C64   N4    T    
Cr5   O9    S    
C36   C37   A    
C19   C21   T    
C51   O8    A    
C24   Cl3   S    
C18   Cl14  S    
C38   C39   A    
C2    C60   A    
Cr5   O16   S    
C29   C54   S    
C40   C49   A    
C17   C20   S    
C67   N7    T    
C18   C19   S    
C16   C53   S    
C65   N5    T    
C12   C59   S    
C56   O24   A    
C48   Cl7   S    
C31   C32   A    
C44   Cl10  S    
C6    Cl1   S    
C25   H1    S    
C29   C38   A    
Cr4   O6    S    
C51   O7    A    
C17   Cl2   S    
C7    C58   A    
C5    C60   A    
Cr1   O25   S    
C38   C61   S    
C69   N9    T    
C15   C23   S    
Cr4   O13   S    
C57   O13   A    
C11   C68   S    
C34   C41   S    
Cr4   O19   S    
C66   N6    T    
C44   C46   A    
C39   C62   S    
C49   C64   S    
Cr6   O11   S    
C28   C45   S    
C23   O23   A    
C12   O21   A    
C45   O2    A    
C12   O22   A    
Cr5   O19   S    
C33   Cl6   S    
C24   C25   D    
C10   C69   S    
C10   C14   S    
C2    C59   A    
C25   C26   S    
C30   C56   S    
Cr2   O2    S    
C23   O1    A    
C35   C39   A    
C9    C14   T    
C47   C48   A    
Cr3   O3    S    
C16   C20   T    
C56   O4    A    
Cr3   O22   S    
C50   C66   S    
C17   C18   D    
C32   C63   S    
Cr2   O5    S    
C31   Cl5   S    
C68   N8    T    
C52   C58   S    
Cr1   O5    S    
Cr3   O4    S    
C49   C50   A    
C22   C27   T    
C13   C15   T    
C1    O12   A    
C41   C44   A    
C7    Cl8   S    
C60   C67   S    
C42   C43   A    
C55   O16   A    
C3    C4    A    
C54   O15   A    
C40   C48   A    
Cr6   O10   S    
C46   C47   A    
C40   C57   S    
C30   C33   A    
C45   O3    A    
C53   O6    A    
C4    C5    A    
C52   O9    A    
Cr6   O19   S    
C2    Cl12  S    
C22   C55   S    
Cr2   O20   S    
C46   C50   A    
C26   C28   T    
Cr5   O8    S    
C10   C11   D    
C53   O11   A    
C42   C65   S    
C43   Cl9   S    
C30   C32   A    
C11   C13   S    
Cr1   O1    S    
Cr5   O15   S    
C5    C6    A    
Cr2   O21   S    
Cr1   O12   S    
Cr3   O23   S    
C33   C35   A    
C57   O18   A    
C42   C47   A    
C34   O26   A    
C34   O25   A    
Cr4   O14   S    
C3    Cl13  S    
Cr6   O17   S    
Cr1   O24   S    
Cr3   O5    S    
C61   N1    T    
Cr2   O26   S    
C29   C37   A    
C63   N3    T    
Cr4   O7    S    
C31   C36   A    
C55   O17   A    
C54   O14   A    
C52   O10   A    
C3    C59   A    
