data_mof_unit_50640.cif
_audit_creation_date              2012-12-10T18:47:07-0500
_audit_creation_method            fapswitch 2.2
_symmetry_space_group_name_H-M    P1
_symmetry_Int_Tables_number       1
_space_group_crystal_system       triclinic
_cell_length_a                    10.828251
_cell_length_b                    9.926304
_cell_length_c                    14.860224
_cell_angle_alpha                 90.055799
_cell_angle_beta                  92.671332
_cell_angle_gamma                 88.540603
_cell_volume                      1594.99063942

loop_
_atom_site_label
_atom_site_type_symbol
_atom_type_description
_atom_site_fract_x
_atom_site_fract_y
_atom_site_fract_z
_atom_type_partial_charge
C1    C     C_R   0.260153 0.502171 0.506727 0.930758
C2    C     C_R   0.125798 0.506708 0.512116 -0.185366
C3    C     C_R   0.561145 0.070702 0.567971 -0.031521
C4    C     C_R   0.438998 0.929689 0.432007 -0.034028
C5    C     C_R   0.437941 0.073766 0.432858 -0.038401
C6    C     C_R   0.560591 0.926365 0.567970 0.012499
C7    C     C_R   0.496255 0.499953 0.327116 0.931931
C8    C     C_R   0.504356 0.499526 0.672964 0.931561
C9    C     C_R   0.621200 0.517836 0.819154 -0.044633
C10   C     C_R   0.386931 0.470908 0.180219 -0.092222
C11   C     C_R   0.510804 0.494566 0.769109 -0.113674
C12   C     C_R   0.739012 0.498197 0.490995 0.940622
C13   C     C_R   0.495597 0.497026 0.231368 -0.115553
C14   C     C_R   0.407742 0.446398 0.808615 -0.159635
C15   C     C_R   0.609225 0.504517 0.193022 -0.202597
C16   C     C_R   0.405593 0.432079 0.901428 0.039718
C17   C     C_R   0.618161 0.489731 0.100585 0.043325
C18   C     C_R   0.513361 0.462028 0.954088 0.067644
C19   C     C_R   0.509736 0.461586 0.047767 0.092145
C20   C     C_R   0.624953 0.491909 0.912860 0.025079
C21   C     C_R   0.396594 0.437346 0.088621 -0.003364
C22   C     C_R   0.301121 0.381004 0.942122 -0.083687
C23   C     C_R   0.298035 0.379361 0.036792 -0.116032
C24   C     C_R   0.733427 0.496879 0.060375 -0.244073
C25   C     C_2   0.728129 0.576036 0.774469 0.914870
C26   C     C_2   0.264531 0.500876 0.218539 0.918895
C27   C     C_2   0.199910 0.320756 0.886085 0.989176
C28   C     C_2   0.850375 0.506342 0.116705 1.038681
C29   C     C_2   0.200099 0.304429 0.081422 1.011709
C30   C     C_2   0.852233 0.441483 0.924690 0.973939
C31   C     C_2   0.130026 0.268810 0.573497 1.032170
C32   C     C_2   0.861714 0.735868 0.425913 1.021272
C33   C     C_2   0.886560 0.241729 0.478850 1.002909
C34   C     C_R   0.737001 0.488544 0.966015 -0.074198
C35   C     C_2   0.112369 0.761786 0.487302 0.973853
C36   C     C_2   0.631623 0.144560 0.639139 0.543958
C37   C     C_2   0.373012 0.857160 0.357997 0.490513
C38   C     C_2   0.366485 0.149571 0.362301 0.637686
C39   C     C_2   0.630458 0.849511 0.638817 0.561141
C40   C     C_R   0.065391 0.384013 0.525503 -0.076912
C41   C     C_R   0.931452 0.617161 0.464970 -0.103538
C42   C     C_R   0.941141 0.375054 0.498064 -0.093843
C43   C     C_R   0.057277 0.625914 0.486996 -0.104574
C44   C     C_R   0.872116 0.494892 0.479254 -0.159571
H1    H     H_    0.328828 0.422602 0.764908 0.204642
H2    H     H_    0.789972 0.921097 0.446941 0.331392
H3    H     H_    0.788752 0.129436 0.388555 0.335774
H4    H     H_    0.136707 0.934633 0.419752 0.382880
H5    H     H_    0.689005 0.226899 0.621712 0.122277
H6    H     H_    0.323919 0.766850 0.371728 0.130865
H7    H     H_    0.409977 0.177279 0.300945 0.105683
H8    H     H_    0.709416 0.786877 0.622193 0.096232
H9    H     H_    0.689944 0.524041 0.236500 0.180973
H10   H     H_    0.860650 0.715379 0.777939 0.372652
H11   H     H_    0.149014 0.474376 0.318866 0.363280
H12   H     H_    0.108572 0.152892 0.850217 0.367680
H13   H     H_    0.829504 0.326590 0.176854 0.327046
H14   H     H_    0.159007 0.172765 0.178280 0.392966
H15   H     H_    0.928468 0.305957 0.840329 0.380937
H16   H     H_    0.187051 0.074219 0.572136 0.371399
N1    N     N_R   0.500000 0.857200 0.500000 -0.168581
N2    N     N_R   0.500000 0.142800 0.500000 -0.173880
O1    O     O_R   0.316770 0.614620 0.499990 -0.638801
O2    O     O_R   0.789169 0.685177 0.814062 -0.716538
O3    O     O_2   0.188031 0.571206 0.175987 -0.509284
O4    O     O_R   0.236399 0.449376 0.302250 -0.783124
O5    O     O_2   0.137378 0.391287 0.833234 -0.576953
O6    O     O_R   0.177665 0.183171 0.893338 -0.741951
O7    O     O_2   0.914659 0.604668 0.109707 -0.435881
O8    O     O_R   0.887389 0.405267 0.178411 -0.731073
O9    O     O_2   0.091605 0.318385 0.055925 -0.551488
O10   O     O_R   0.233093 0.217385 0.152956 -0.766415
O11   O     O_2   0.948585 0.501377 0.937795 -0.499894
O12   O     O_R   0.683230 0.385380 0.500010 -0.647822
O13   O     O_R   0.847463 0.328412 0.868480 -0.758426
O14   O     O_2   0.180748 0.287246 0.647526 -0.616491
O15   O     O_R   0.137014 0.141744 0.533409 -0.733137
O16   O     O_2   0.809994 0.727791 0.351234 -0.592186
O17   O     O_R   0.850114 0.853482 0.476766 -0.774823
O18   O     O_2   0.888805 0.153680 0.536387 -0.614514
O19   O     O_R   0.828560 0.220267 0.394154 -0.762642
O20   O     O_2   0.163373 0.804763 0.556271 -0.577694
O21   O     O_R   0.100471 0.842414 0.410104 -0.774142
O22   O     O_2   0.622919 0.117951 0.718688 -0.481218
O23   O     O_R   0.683230 0.614620 0.500010 -0.642582
O24   O     O_2   0.374122 0.896306 0.280177 -0.542842
O25   O     O_2   0.256842 0.175263 0.370263 -0.509769
O26   O     O_2   0.597855 0.852811 0.716320 -0.479285
O27   O     O_R   0.316770 0.385380 0.499990 -0.572979
O28   O     O_R   0.499980 0.614680 0.367850 -0.632951
O29   O     O_R   0.500020 0.385320 0.632150 -0.625146
O30   O     O_R   0.500020 0.614680 0.632150 -0.601266
O31   O     O_R   0.499980 0.385320 0.367850 -0.631518
O32   O     O_2   0.763568 0.527830 0.704152 -0.651826
Zn1   Zn    Zn3+2 0.500000 0.653120 0.500000 0.999419
Zn2   Zn    Zn3+2 0.500000 0.346880 0.500000 1.002394

loop_
_geom_bond_atom_site_label_1
_geom_bond_atom_site_label_2
_ccdc_geom_bond_type
C37   H6    S    
C12   O12   A    
C28   O7    D    
C3    C6    A    
C9    C25   S    
O28   Zn1   S    
C12   O23   A    
C33   C42   S    
C23   C29   S    
C6    N1    A    
C19   C21   A    
C18   C19   A    
N2    Zn2   S    
H2    O17   S    
C11   C14   A    
C15   H9    S    
O1    Zn1   S    
C31   C40   S    
C1    C2    S    
C27   O6    S    
O29   Zn2   S    
C16   C22   A    
C32   C41   S    
C8    O30   A    
H13   O8    S    
C35   C43   S    
C29   O10   S    
C20   C34   A    
C10   C26   S    
C40   C42   A    
C39   H8    S    
C25   O32   D    
C5    C38   S    
C41   C43   A    
C42   C44   A    
C39   O26   D    
C1    O1    A    
C35   O20   D    
C31   O15   S    
C14   H1    S    
C10   C21   A    
C7    O31   A    
H16   O15   S    
C17   C24   A    
C30   C34   S    
C26   O4    S    
O12   Zn2   S    
C37   O24   D    
C30   O11   D    
C35   O21   S    
C38   H7    S    
H12   O6    S    
C7    O28   A    
C4    N1    A    
O30   Zn1   S    
C24   C34   A    
C25   O2    S    
C9    C20   A    
C2    C43   A    
C8    O29   A    
C9    C11   A    
O31   Zn2   S    
C22   C27   S    
C13   C15   A    
C41   C44   A    
C14   C16   A    
H15   O13   S    
H11   O4    S    
C3    N2    A    
C15   C17   A    
C1    O27   A    
C6    C39   S    
C26   O3    D    
C28   O8    S    
C24   C28   S    
C4    C5    A    
C10   C13   A    
N1    Zn1   S    
C33   O18   D    
H4    O21   S    
C38   O25   D    
O27   Zn2   S    
C21   C23   A    
C12   C44   S    
C32   O17   S    
C30   O13   S    
O23   Zn1   S    
H14   O10   S    
C31   O14   D    
H10   O2    S    
C3    C36   S    
C36   O22   D    
C8    C11   S    
C17   C19   A    
C5    N2    A    
C18   C20   A    
H3    O19   S    
C27   O5    D    
C32   O16   D    
C2    C40   A    
C7    C13   S    
C4    C37   S    
C16   C18   A    
C22   C23   A    
C33   O19   S    
C36   H5    S    
C29   O9    D    
