data_mof_unit_38055.cif
_audit_creation_date              2012-10-26T19:52:46-0400
_audit_creation_method            fapswitch 2.2
_symmetry_space_group_name_H-M    P1
_symmetry_Int_Tables_number       1
_space_group_crystal_system       triclinic
_cell_length_a                    15.05329
_cell_length_b                    10.828493
_cell_length_c                    9.545367
_cell_angle_alpha                 90.387934
_cell_angle_beta                  90.040135
_cell_angle_gamma                 90.764133
_cell_volume                      1555.76273443

loop_
_atom_site_label
_atom_site_type_symbol
_atom_type_description
_atom_site_fract_x
_atom_site_fract_y
_atom_site_fract_z
_atom_type_partial_charge
Br1   Br    Br    0.495675 0.860883 0.907489 -0.468825
Br2   Br    Br    0.103914 0.284953 0.136608 -0.556345
C1    C     C_R   0.497819 0.262516 0.499582 0.538690
C2    C     C_R   0.186211 0.441565 0.393542 -0.155686
C3    C     C_R   0.232203 0.504952 0.499677 -0.014477
C4    C     C_R   0.328846 0.501510 0.500017 0.547993
C5    C     C_R   0.186152 0.570446 0.604191 0.260452
C6    C     C_R   0.492687 0.065254 0.624366 0.012960
C7    C     C_R   0.487475 0.129824 0.499371 -0.078753
C8    C     C_R   0.467165 0.064566 0.375744 -0.143965
C9    C     C_R   0.464270 0.935212 0.375748 0.229074
C10   C     C_R   0.486177 0.871059 0.500107 -0.006889
C11   C     C_R   0.492308 0.938627 0.625347 -0.002890
C12   C     C_R   0.906628 0.560564 0.604968 0.007928
C13   C     C_3   0.555648 0.934900 0.746676 0.427896
C14   C     C_3   0.557199 0.077093 0.742237 0.202791
C15   C     C_R   0.559745 0.571341 0.074342 0.210841
C16   C     C_R   0.497333 0.737830 0.500176 0.581843
C17   C     C_R   0.436465 0.437698 0.073859 -0.007768
C18   C     C_R   0.436436 0.437750 0.924996 0.037920
C19   C     C_R   0.559970 0.570758 0.926993 0.226421
C20   C     C_3   0.658500 0.561402 0.921521 -0.287835
C21   C     C_3   0.658358 0.561686 0.079920 -0.280624
C22   C     C_R   0.671124 0.498069 0.500030 0.564752
C23   C     C_R   0.953804 0.366642 0.290548 -0.083367
C24   C     C_R   0.814314 0.559903 0.603270 -0.177829
C25   C     C_R   0.767683 0.493405 0.500489 0.001209
C26   C     C_R   0.813306 0.422849 0.399718 0.249359
C27   C     C_R   0.906578 0.428148 0.395966 -0.005161
C28   C     C_R   0.953294 0.496235 0.499836 0.012478
C29   C     C_3   0.356244 0.857792 0.234400 -0.054019
C30   C     C_3   0.703025 0.900330 0.807926 -0.130012
C31   C     C_3   0.581781 0.172398 0.955688 -0.091456
C32   C     C_3   0.747761 0.235622 0.361465 -0.118426
C33   C     C_3   0.252906 0.753313 0.661510 -0.097726
C34   C     C_R   0.046344 0.371379 0.287259 0.151478
C35   C     C_R   0.093507 0.437539 0.391937 0.013481
C36   C     C_R   0.046679 0.500150 0.498819 -0.006778
C37   C     C_R   0.092960 0.566628 0.605102 0.034110
C38   C     C_R   0.045162 0.628278 0.710198 -0.096052
C39   C     C_R   0.952796 0.625974 0.709426 -0.128707
Cu1   Cu    Cu3+1 0.500000 0.499980 0.640670 1.016578
Cu2   Cu    Cu3+1 0.500000 0.500020 0.359330 0.978110
H1    H     H_    0.778554 0.613376 0.680433 0.126823
H2    H     H_    0.223796 0.392818 0.314515 0.180577
H3    H     H_    0.078897 0.679177 0.793025 0.162618
H4    H     H_    0.917386 0.675265 0.790821 0.107099
H5    H     H_    0.456682 0.112794 0.278141 0.162702
H6    H     H_    0.327046 0.802685 0.321378 0.088608
H7    H     H_    0.343444 0.805843 0.135723 0.184611
H8    H     H_    0.322586 0.948364 0.225988 0.124671
H9    H     H_    0.681676 0.873067 0.914856 0.150051
H10   H     H_    0.725618 0.998300 0.807532 0.096970
H11   H     H_    0.761395 0.843642 0.780420 0.128585
H12   H     H_    0.620309 0.121711 0.705938 0.073097
H13   H     H_    0.624354 0.246859 0.910616 0.101884
H14   H     H_    0.622972 0.093952 0.990868 0.125173
H15   H     H_    0.548502 0.210892 0.049641 0.152264
H16   H     H_    0.710174 0.179176 0.283540 0.139594
H17   H     H_    0.705404 0.243878 0.456502 0.113622
H18   H     H_    0.809805 0.185626 0.386842 0.120003
H19   H     H_    0.191853 0.805521 0.635984 0.102968
H20   H     H_    0.297931 0.750863 0.569347 0.100661
H21   H     H_    0.288326 0.804205 0.746440 0.180580
H22   H     H_    0.386410 0.384617 0.129156 0.136416
H23   H     H_    0.386343 0.384744 0.868794 0.160619
H24   H     H_    0.681372 0.472646 0.875838 0.140125
H25   H     H_    0.689988 0.645461 0.877190 0.143536
H26   H     H_    0.680357 0.472462 0.123367 0.201178
H27   H     H_    0.690426 0.645373 0.126652 0.144423
H28   H     H_    0.918996 0.314980 0.209394 0.183730
N1    N     N_R   0.500570 0.500930 0.147930 -0.247454
N2    N     N_R   0.500570 0.500890 0.852020 -0.237247
O1    O     O_R   0.500000 0.319640 0.618810 -0.482402
O2    O     O_3   0.636197 0.878298 0.706642 -0.579771
O3    O     O_3   0.516165 0.133228 0.859191 -0.530851
O4    O     O_3   0.766815 0.352041 0.302338 -0.592211
O5    O     O_3   0.232096 0.633289 0.709062 -0.549705
O6    O     O_R   0.500010 0.319680 0.381230 -0.521144
O7    O     O_R   0.370250 0.499950 0.618800 -0.458850
O8    O     O_R   0.370260 0.499990 0.381220 -0.530584
O9    O     O_R   0.499990 0.680320 0.618770 -0.458543
O10   O     O_R   0.500000 0.680360 0.381190 -0.452321
O11   O     O_R   0.629740 0.500010 0.618780 -0.525032
O12   O     O_R   0.629750 0.500050 0.381200 -0.473572
O13   O     O_3   0.448782 0.873469 0.250859 -0.506277

loop_
_geom_bond_atom_site_label_1
_geom_bond_atom_site_label_2
_ccdc_geom_bond_type
C13   O2    S    
Cu1   O7    S    
C31   H15   S    
Cu2   O10   S    
C21   H26   S    
C17   C18   A    
Cu1   O9    S    
C22   C25   S    
C1    O6    A    
C30   O2    S    
C24   H1    S    
C38   H3    S    
C24   C25   A    
C27   C28   A    
C18   H23   S    
C26   C27   A    
C29   H6    S    
C32   O4    S    
C3    C4    S    
C9    O13   S    
Cu2   O6    S    
C13   C14   S    
C19   N2    A    
C28   C36   A    
C1    O1    A    
C30   H9    S    
C6    C7    A    
C33   H21   S    
C23   H28   S    
C7    C8    A    
C31   H13   S    
C6    C14   S    
C4    O8    A    
C19   C20   S    
C32   H17   S    
C21   H27   S    
C17   N1    A    
C12   C28   A    
C30   H11   S    
C2    C35   A    
C2    H2    S    
C23   C27   A    
Cu1   O1    S    
Cu2   O12   S    
Cu1   O11   S    
C37   C38   A    
C3    C5    A    
C32   H18   S    
C15   C19   A    
C35   C36   A    
C1    C7    S    
C31   O3    S    
C4    O7    A    
C16   O10   A    
C39   H4    S    
C15   C21   S    
C12   C24   A    
C26   O4    S    
C20   H25   S    
C5    O5    S    
Br1   C13   S    
C38   C39   A    
C11   C13   S    
C8    H5    S    
C32   H16   S    
Cu2   O8    S    
Cu1   Cu2   S    
C29   H7    S    
C30   H10   S    
C22   O12   A    
Br2   C34   S    
Cu2   N1    S    
C34   C35   A    
Cu1   N2    S    
C31   H14   S    
C14   O3    S    
C29   H8    S    
C2    C3    A    
C9    C10   A    
C33   O5    S    
C22   O11   A    
C14   H12   S    
C36   C37   A    
C12   C39   A    
C16   O9    A    
C18   N2    A    
C17   H22   S    
C33   H19   S    
C20   H24   S    
C8    C9    A    
C23   C34   A    
C6    C11   A    
C10   C11   A    
C15   N1    A    
C10   C16   S    
C25   C26   A    
C29   O13   S    
C5    C37   A    
C20   C21   S    
C33   H20   S    
