data_mof_unit_56036.cif
_audit_creation_date              2012-12-11T14:56:32-0500
_audit_creation_method            fapswitch 2.2
_symmetry_space_group_name_H-M    P1
_symmetry_Int_Tables_number       1
_space_group_crystal_system       triclinic
_cell_length_a                    10.514657
_cell_length_b                    10.737685
_cell_length_c                    17.205507
_cell_angle_alpha                 80.071523
_cell_angle_beta                  90.011386
_cell_angle_gamma                 119.357058
_cell_volume                      1659.67353361

loop_
_atom_site_label
_atom_site_type_symbol
_atom_type_description
_atom_site_fract_x
_atom_site_fract_y
_atom_site_fract_z
_atom_type_partial_charge
C1    C     C_R   0.225190 0.855939 0.129232 0.549276
C2    C     C_R   0.776779 0.337447 0.280597 0.142440
C3    C     C_R   0.749284 0.262252 0.219754 -0.008952
C4    C     C_R   0.617849 0.225683 0.183606 -0.031849
C5    C     C_1   0.668936 0.847243 0.205396 -0.035566
C6    C     C_1   0.680414 0.837711 0.274639 -0.026118
C7    C     C_1   0.184104 0.828518 0.211751 0.003894
C8    C     C_1   0.154032 0.822399 0.280075 0.011824
C9    C     C_1   0.644727 0.324434 0.778216 -0.026723
C10   C     C_1   0.652771 0.346888 0.707830 -0.022701
C11   C     C_R   0.606472 0.710373 0.806454 -0.106826
C12   C     C_R   0.609553 0.203809 0.101856 0.563594
C13   C     C_R   0.584037 0.696183 0.729207 0.144155
C14   C     C_R   0.670381 0.817114 0.667837 0.024015
C15   C     C_R   0.776296 0.949542 0.686607 -0.137878
C16   C     C_R   0.790593 0.966494 0.765129 -0.032526
C17   C     C_R   0.695279 0.847372 0.825247 0.004760
C18   C     C_R   0.252436 0.969427 0.759489 -0.107395
C19   C     C_R   0.240200 0.959708 0.680480 -0.029995
C20   C     C_R   0.162911 0.819897 0.661208 0.045076
C21   C     C_R   0.114995 0.694173 0.720814 -0.120582
C22   C     C_R   0.131322 0.706306 0.799656 -0.129302
C23   C     C_R   0.640755 0.858225 0.125367 0.543757
C24   C     C_R   0.193856 0.843857 0.819056 0.019980
C25   C     C_R   0.686645 0.809251 0.356947 0.549754
C26   C     C_R   0.689578 0.395532 0.394481 0.578022
C27   C     C_R   0.104113 0.810789 0.359264 0.566721
C28   C     C_R   0.678848 0.796188 0.587489 0.557320
C29   C     C_R   0.679638 0.383869 0.624872 0.537697
C30   C     C_R   0.101084 0.802770 0.585665 0.543719
C31   C     C_R   0.224682 0.864302 0.898985 0.545193
C32   C     C_R   0.637552 0.284996 0.860869 0.560246
C33   C     C_R   0.648741 0.866738 0.899838 0.551148
C34   C     C_R   0.501388 0.225858 0.223309 -0.129027
C35   C     C_R   0.518908 0.274262 0.294710 0.109609
C36   C     C_R   0.658602 0.334733 0.322816 0.024096
Cr1   Cr    Cr6+3 0.402240 0.783890 0.019450 1.056663
Cr2   Cr    Cr6+3 0.382360 0.097900 0.991800 1.037431
Cr3   Cr    Cr6+3 0.715380 0.118170 0.988700 1.002895
Cr4   Cr    Cr6+3 0.936650 0.882420 0.465510 1.072397
Cr5   Cr    Cr6+3 0.605770 0.565620 0.493360 1.105003
Cr6   Cr    Cr6+3 0.921340 0.550490 0.496380 1.079854
H1    H     H_    0.397400 0.190392 0.198306 0.172080
H2    H     H_    0.056299 0.586055 0.707257 0.151198
H3    H     H_    0.092078 0.609048 0.845369 0.138358
H4    H     H_    0.538895 0.615904 0.852422 0.172637
H5    H     H_    0.848054 0.040166 0.639737 0.143236
H6    H     H_    0.310001 0.076491 0.774613 0.153898
O1    O     O_R   0.521780 0.757110 0.108900 -0.481711
O2    O     O_R   0.513330 0.228330 0.898660 -0.483789
O3    O     O_R   0.739230 0.266130 0.888050 -0.526610
O4    O     O_R   0.712580 0.991850 0.918770 -0.504958
O5    O     O_3   0.499990 0.999980 0.999980 -0.286167
O6    O     O_R   0.083770 0.911170 0.376030 -0.476362
O7    O     O_R   0.808770 0.880340 0.383890 -0.496574
O8    O     O_R   0.584340 0.689460 0.394160 -0.478549
O9    O     O_R   0.614320 0.443940 0.423590 -0.464777
O10   O     O_R   0.805020 0.410040 0.421340 -0.474482
O11   O     O_R   0.049240 0.685450 0.403290 -0.461592
O12   O     O_R   0.275160 0.783810 0.101120 -0.477158
O13   O     O_R   0.077520 0.903010 0.551800 -0.512738
O14   O     O_R   0.802980 0.872780 0.546830 -0.513687
O15   O     O_R   0.578090 0.681300 0.569920 -0.458013
O16   O     O_R   0.608530 0.436370 0.586530 -0.477923
O17   O     O_R   0.798770 0.401880 0.597100 -0.522653
O18   O     O_R   0.043450 0.677890 0.566230 -0.506440
O19   O     O_3   0.821250 0.666180 0.485090 -0.284459
O20   O     O_R   0.237900 0.972600 0.090980 -0.529559
O21   O     O_R   0.511190 0.220540 0.061620 -0.494072
O22   O     O_R   0.736920 0.257720 0.063840 -0.510765
O23   O     O_R   0.710450 0.984050 0.081720 -0.541876
O24   O     O_R   0.524090 0.765520 0.933110 -0.514542
O25   O     O_R   0.277300 0.791600 0.938160 -0.492245
O26   O     O_R   0.240210 0.981010 0.915190 -0.519820
C37   C     C_3   0.306248 0.099775 0.619340 -0.343034
H7    H     H_    0.367079 0.092813 0.569023 0.152739
H8    H     H_    0.220224 0.124830 0.597976 0.180924
H9    H     H_    0.383549 0.193090 0.645310 0.145690
Br1   Br    Br    0.351026 0.262049 0.347471 -0.456470
Br2   Br    Br    0.984832 0.457222 0.294324 -0.481789
C38   C     C_3   0.867104 0.231623 0.193382 -0.319204
H10   H     H_    0.822867 0.138282 0.164851 0.155499
H11   H     H_    0.955132 0.328643 0.152771 0.186422
H12   H     H_    0.915096 0.199884 0.245392 0.170616
Br3   Br    Br    0.427150 0.508107 0.716460 -0.535231
C39   C     C_3   0.905738 0.111028 0.781985 -0.352184
H13   H     H_    0.854601 0.175877 0.793392 0.175840
H14   H     H_    0.962548 0.093770 0.833670 0.156790
H15   H     H_    0.990611 0.175617 0.730835 0.138402

loop_
_geom_bond_atom_site_label_1
_geom_bond_atom_site_label_2
_ccdc_geom_bond_type
Cr3   O3    S    
C12   O21   A    
C19   C20   A    
C25   O8    A    
C15   H5    S    
Cr6   O10   S    
C38   H10   S    
C27   O6    A    
C7    C8    T    
Cr5   O8    S    
C20   C30   S    
C33   O4    A    
C18   C24   A    
C18   C19   A    
C5    C6    T    
C39   H14   S    
C23   O1    A    
C6    C25   S    
C15   C16   A    
C1    O20   A    
Cr4   O14   S    
C34   C35   A    
Cr1   O25   S    
C9    C32   S    
C26   O10   A    
C35   C36   A    
C16   C17   A    
Cr4   O19   S    
C3    C38   S    
Cr6   O17   S    
C4    C12   S    
C9    C10   T    
C33   O24   A    
Cr1   O5    S    
Cr3   O4    S    
C29   O16   A    
C13   C14   A    
C16   C39   S    
C17   C33   S    
C38   H11   S    
C4    C34   A    
C23   O23   A    
Cr5   O19   S    
C1    O12   A    
C39   H13   S    
C31   O26   A    
Cr4   O13   S    
C26   O9    A    
C37   H7    S    
C32   O3    A    
C21   H2    S    
Cr1   O1    S    
C5    C23   S    
Cr4   O7    S    
C37   H8    S    
C32   O2    A    
C30   O18   A    
C29   O17   A    
C26   C36   S    
C31   O25   A    
Cr2   O20   S    
Cr4   O6    S    
Cr6   O19   S    
C22   C24   A    
C30   O13   A    
Cr5   O15   S    
C3    C4    A    
C38   H12   S    
Cr2   O26   S    
C2    C36   A    
C12   O22   A    
C11   C17   A    
C1    C7    S    
C34   H1    S    
C25   O7    A    
C39   H15   S    
C18   H6    S    
Cr6   O11   S    
Cr2   O2    S    
C19   C37   S    
C2    C3    A    
C24   C31   S    
Cr5   O9    S    
C27   O11   A    
C11   C13   A    
C10   C29   S    
Cr3   O5    S    
Cr2   O5    S    
C35   Br1   S    
Cr3   O22   S    
C37   H9    S    
Cr2   O21   S    
Cr1   O12   S    
C2    Br2   S    
C28   O15   A    
C22   H3    S    
C20   C21   A    
Cr1   O24   S    
C13   Br3   S    
Cr6   O18   S    
C8    C27   S    
Cr3   O23   S    
C14   C15   A    
C11   H4    S    
Cr5   O16   S    
C14   C28   S    
C21   C22   A    
C28   O14   A    
