data_mof_unit_27229.cif
_audit_creation_date              2012-12-11T15:14:48-0500
_audit_creation_method            fapswitch 2.2
_symmetry_space_group_name_H-M    P1
_symmetry_Int_Tables_number       1
_space_group_crystal_system       triclinic
_cell_length_a                    22.29119
_cell_length_b                    7.221213
_cell_length_c                    19.388021
_cell_angle_alpha                 89.982459
_cell_angle_beta                  98.982323
_cell_angle_gamma                 89.987313
_cell_volume                      3082.60573184

loop_
_atom_site_label
_atom_site_type_symbol
_atom_type_description
_atom_site_fract_x
_atom_site_fract_y
_atom_site_fract_z
_atom_type_partial_charge
O1    O     O_R   0.448470 0.506130 0.415700 -0.530415
O2    O     O_R   0.551530 0.006130 0.584300 -0.539667
O3    O     O_R   0.436320 0.174490 0.555800 -0.526011
O4    O     O_R   0.563680 0.674490 0.444200 -0.531185
C1    C     C_R   0.422286 0.344101 0.576393 0.731899
C2    C     C_R   0.577549 0.844058 0.423385 0.698278
O5    O     O_R   0.441350 0.176340 0.414480 -0.535244
O6    O     O_R   0.558650 0.676340 0.585520 -0.541384
O7    O     O_R   0.556600 0.007100 0.441970 -0.544176
O8    O     O_R   0.443400 0.507100 0.558030 -0.536543
C3    C     C_R   0.426631 0.345289 0.389487 0.801167
C4    C     C_R   0.574129 0.845386 0.609806 0.699837
O9    O     O_3   0.537810 0.339550 0.509190 -0.380107
O10   O     O_3   0.462190 0.839550 0.490810 -0.370993
V1    V     V_3+5 0.492990 0.064280 0.498300 1.430131
V2    V     V_3+5 0.507010 0.564280 0.501700 1.431400
C5    C     C_R   0.873813 0.998398 0.695840 0.414589
C6    C     C_R   0.127803 0.492065 0.304613 0.416570
C7    C     C_R   0.887177 0.943459 0.820821 -0.312269
C8    C     C_R   0.113714 0.442908 0.179113 -0.314025
C9    C     C_R   0.592998 0.852556 0.738245 0.108771
C10   C     C_R   0.408557 0.352518 0.259688 0.157721
C11   C     C_R   0.628156 0.902826 0.801603 0.179830
C12   C     C_R   0.373162 0.407468 0.197022 0.167639
C13   C     C_R   0.689911 0.945089 0.804820 0.240251
C14   C     C_R   0.311163 0.450024 0.194344 0.183597
C15   C     C_R   0.719550 0.915475 0.745888 0.047759
C16   C     C_R   0.281829 0.415983 0.253114 0.054073
C17   C     C_R   0.682523 0.891490 0.679012 -0.113290
C18   C     C_R   0.319224 0.390407 0.319522 -0.064336
C19   C     C_R   0.784675 0.925124 0.750966 -0.024812
C20   C     C_R   0.216727 0.424405 0.248501 -0.024501
C21   C     C_R   0.810354 0.963942 0.689995 -0.210488
C22   C     C_R   0.191379 0.459015 0.310034 -0.185346
C23   C     C_R   0.772420 0.968017 0.624601 0.436029
C24   C     C_R   0.229676 0.460878 0.375516 0.368308
C25   C     C_R   0.711401 0.910832 0.618648 0.095085
C26   C     C_R   0.291541 0.408549 0.380460 0.099089
C27   C     C_R   0.825014 0.890295 0.814493 0.351431
C28   C     C_R   0.176117 0.391979 0.184796 0.355688
C29   C     C_R   0.910859 0.000455 0.760774 0.300445
C30   C     C_R   0.090363 0.496128 0.239829 0.293960
C31   C     C_R   0.618224 0.857215 0.675847 -0.132542
C32   C     C_R   0.383490 0.356714 0.322518 -0.156753
C33   C     C_3   0.775549 0.836104 0.311221 0.368288
C34   C     C_3   0.224447 0.336359 0.688760 0.358596
C35   C     C_3   0.793668 0.019492 0.277475 -0.250715
C36   C     C_3   0.206364 0.519690 0.722553 -0.249589
H1    H     H_    0.828894 0.118930 0.301254 0.180359
H2    H     H_    0.171159 0.619309 0.698797 0.179934
C37   C     C_1   0.875364 0.940427 0.120640 -0.155925
C38   C     C_1   0.124640 0.440424 0.879360 -0.156991
C39   C     C_1   0.623172 0.853668 0.377786 -0.140143
C40   C     C_1   0.376759 0.353673 0.622122 -0.190184
C41   C     C_3   0.774296 0.733440 0.241528 0.138386
C42   C     C_3   0.225675 0.233460 0.758425 0.141089
C43   C     C_3   0.791635 0.914224 0.206617 -0.047276
C44   C     C_3   0.208372 0.414184 0.793384 -0.046245
C45   C     C_3   0.706466 0.779487 0.222004 0.094717
C46   C     C_3   0.293515 0.279239 0.777964 0.100016
C47   C     C_3   0.707182 0.881267 0.292270 -0.029048
C48   C     C_3   0.292822 0.381254 0.707726 -0.022842
C49   C     C_3   0.723336 0.959931 0.187223 0.335690
C50   C     C_3   0.276681 0.459622 0.812793 0.331935
C51   C     C_3   0.724785 0.061563 0.257182 0.103515
C52   C     C_3   0.275255 0.561489 0.742859 0.106877
C53   C     C_1   0.837478 0.929616 0.159180 0.055070
C54   C     C_1   0.162527 0.429593 0.840822 0.052882
C55   C     C_1   0.661128 0.864950 0.339390 0.059716
C56   C     C_1   0.338849 0.364943 0.660575 0.047761
O11   O     O_R   0.056650 0.288730 0.942060 -0.538631
O12   O     O_R   0.943350 0.788730 0.057940 -0.538629
O13   O     O_R   0.058660 0.616870 0.085540 -0.527579
O14   O     O_R   0.941340 0.116870 0.914460 -0.527420
C57   C     C_R   0.073212 0.448533 0.110563 0.691057
C58   C     C_R   0.927002 0.948634 0.889460 0.691876
O15   O     O_R   0.063700 0.618520 0.944220 -0.533175
O16   O     O_R   0.936300 0.118520 0.055780 -0.532836
O17   O     O_R   0.948460 0.787610 0.915680 -0.538871
O18   O     O_R   0.051540 0.287610 0.084320 -0.538349
C59   C     C_R   0.078861 0.450030 0.924799 0.716003
C60   C     C_R   0.921140 0.950028 0.075200 0.716100
O19   O     O_3   0.962230 0.453430 0.990860 -0.374732
O20   O     O_3   0.037770 0.953430 0.009140 -0.375332
V3    V     V_3+5 0.007010 0.728750 0.001700 1.460260
V4    V     V_3+5 0.992990 0.228750 0.998300 1.461633
O21   O     O_3   0.971205 0.048205 0.761655 -0.607462
H3    H     H_    0.995572 0.021989 0.807685 0.285513
O22   O     O_3   0.029986 0.542326 0.239748 -0.607534
H4    H     H_    0.005566 0.520722 0.193399 0.286029
O23   O     O_3   0.802777 0.767980 0.376102 -0.601739
H5    H     H_    0.846632 0.758076 0.373052 0.311865
O24   O     O_3   0.197216 0.268539 0.623854 -0.609471
H6    H     H_    0.153355 0.258782 0.626886 0.312570
N1    N     N_3   0.697607 0.242581 0.264155 -0.560734
H7    H     H_    0.705159 0.276811 0.317164 0.255034
H8    H     H_    0.650690 0.228340 0.249583 0.230685
N2    N     N_3   0.302467 0.742450 0.735931 -0.563037
H9    H     H_    0.294927 0.776862 0.682929 0.252686
H10   H     H_    0.349381 0.728034 0.750505 0.229157
O25   O     O_3   0.695698 0.026427 0.122243 -0.621103
H11   H     H_    0.652246 0.042511 0.126373 0.292760
O26   O     O_3   0.304328 0.525814 0.877795 -0.627908
H12   H     H_    0.347791 0.541682 0.873689 0.288576
N3    N     N_3   0.660168 0.648574 0.191478 -0.597346
H13   H     H_    0.670716 0.609123 0.142924 0.256281
H14   H     H_    0.618984 0.720261 0.181926 0.222899
N4    N     N_3   0.339788 0.148090 0.808454 -0.605273
H15   H     H_    0.329255 0.108592 0.857017 0.252842
H16   H     H_    0.380995 0.219593 0.817986 0.216842
N5    N     N_3   0.800831 0.551482 0.234434 -0.584836
H17   H     H_    0.793567 0.518124 0.181344 0.246619
H18   H     H_    0.847746 0.564045 0.249476 0.230859
N6    N     N_3   0.199101 0.051558 0.765469 -0.585649
H19   H     H_    0.206380 0.017968 0.818547 0.245377
H20   H     H_    0.152186 0.064332 0.750458 0.231501
O27   O     O_3   0.796172 0.024241 0.566087 -0.607071
H21   H     H_    0.763164 0.059212 0.528023 0.335159
O28   O     O_3   0.205048 0.507123 0.434541 -0.613428
H22   H     H_    0.237115 0.541232 0.473510 0.308395
O29   O     O_3   0.901859 0.028468 0.638449 -0.566153
H23   H     H_    0.895541 0.914118 0.609889 0.337044
O30   O     O_3   0.100068 0.520100 0.362339 -0.564531
H24   H     H_    0.104965 0.402623 0.389186 0.336625
O31   O     O_3   0.803373 0.790638 0.866478 -0.630290
H25   H     H_    0.835776 0.769585 0.906613 0.292808
O32   O     O_3   0.197829 0.296688 0.131827 -0.630277
H26   H     H_    0.165254 0.276346 0.091807 0.290382
N7    N     N_3   0.529915 0.810209 0.737661 -0.675965
H27   H     H_    0.520982 0.679073 0.715600 0.232955
H28   H     H_    0.503383 0.907877 0.706861 0.230641
N8    N     N_3   0.471497 0.307815 0.258104 -0.619959
H29   H     H_    0.472361 0.189293 0.227299 0.242390
H30   H     H_    0.495410 0.273015 0.306937 0.204776
N9    N     N_3   0.720249 0.042368 0.864976 -0.611432
H31   H     H_    0.716537 0.964890 0.909709 0.286766
H32   H     H_    0.697804 0.168240 0.868822 0.238351
N10   N     N_3   0.280264 0.552043 0.135638 -0.622637
H33   H     H_    0.283501 0.479878 0.089634 0.261792
H34   H     H_    0.301791 0.680052 0.133520 0.224097
N11   N     N_3   0.600629 0.920391 0.863418 -0.658628
H35   H     H_    0.565491 0.017444 0.853806 0.252101
H36   H     H_    0.581814 0.792500 0.873557 0.261103
N12   N     N_3   0.401883 0.425131 0.136025 -0.632389
H37   H     H_    0.379419 0.339118 0.096941 0.233095
H38   H     H_    0.398183 0.562221 0.118604 0.234090
N13   N     N_3   0.680921 0.874431 0.549677 -0.679250
H39   H     H_    0.648899 0.978161 0.535709 0.232764
H40   H     H_    0.662613 0.741104 0.547006 0.246741
N14   N     N_3   0.325939 0.373534 0.447893 -0.681280
H41   H     H_    0.302100 0.281125 0.475126 0.250513
H42   H     H_    0.332864 0.498676 0.475000 0.217996

loop_
_geom_bond_atom_site_label_1
_geom_bond_atom_site_label_2
_ccdc_geom_bond_type
C50   O26   S    
O21   H3    S    
C49   C51   S    
O25   H11   S    
C27   O31   S    
C41   C45   S    
C15   C17   A    
N1    H7    S    
O1    C3    A    
C58   O17   A    
C49   O25   S    
C39   C55   T    
C2    O7    A    
O12   V3    S    
O30   H24   S    
C35   H1    S    
O5    C3    A    
N3    H14   S    
C18   C26   A    
O24   H6    S    
O14   C58   A    
C34   C48   S    
C7    C58   S    
N13   H40   S    
C12   C14   A    
C4    C31   S    
N11   H36   S    
C8    C28   A    
N4    H15   S    
C48   C56   S    
C46   C48   S    
C24   O28   S    
O18   V4    S    
C9    C31   A    
C10   C32   A    
N13   H39   S    
N4    H16   S    
N8    H29   S    
C19   C21   A    
C43   C49   S    
O15   C59   A    
C42   C44   S    
C57   O18   A    
C22   C24   A    
C46   N4    S    
C6    O30   S    
C41   N5    S    
O16   V4    S    
C36   H2    S    
O2    C4    A    
O6    V2    S    
C17   C31   A    
O13   C57   A    
C18   C32   A    
C5    C21   A    
C43   C53   S    
C13   N9    S    
C26   N14   S    
N6    H19   S    
C33   C35   S    
C9    C11   A    
C44   C50   S    
C29   O21   S    
C34   C36   S    
C45   C47   S    
C48   C52   S    
C51   N1    S    
C15   C19   A    
C1    C40   S    
N9    H31   S    
O20   V3    S    
N12   H38   S    
O23   H5    S    
C37   C53   T    
O5    V1    S    
C14   N10   S    
C28   O32   S    
O14   V4    S    
C42   C46   S    
C8    C57   S    
C20   C22   A    
O4    V2    S    
C35   C43   S    
O11   V4    S    
O16   C60   A    
C8    C30   A    
C40   C56   T    
C16   C20   A    
O6    C4    A    
C9    N7    S    
O19   V4    S    
C3    C32   S    
N5    H18   S    
O1    V2    S    
C45   N3    S    
C25   N13   S    
O2    V1    S    
C6    C22   A    
C37   C60   S    
O13   V3    S    
O29   H23   S    
C7    C27   A    
C5    O29   S    
N2    H10   S    
C41   C43   S    
O31   H25   S    
N14   H42   S    
C23   O27   S    
O4    C2    A    
C2    C39   S    
C17   C25   A    
O32   H26   S    
O17   V3    S    
O3    V1    S    
C23   C25   A    
N7    H27   S    
C47   C55   S    
N9    H32   S    
N5    H17   S    
C10   N8    S    
N14   H41   S    
C45   C49   S    
N12   H37   S    
O3    C1    A    
C38   C54   T    
N6    H20   S    
O28   H22   S    
N1    H8    S    
C36   C44   S    
N10   H34   S    
O11   C59   A    
C13   C15   A    
N3    H13   S    
C14   C16   A    
C46   C50   S    
C30   O22   S    
C52   N2    S    
C6    C30   A    
O7    V1    S    
C16   C18   A    
O8    V2    S    
O27   H21   S    
C24   C26   A    
C44   C54   S    
C34   O24   S    
C12   N12   S    
C33   C47   S    
C21   C23   A    
C19   C27   A    
C10   C12   A    
C20   C28   A    
C38   C59   S    
C33   O23   S    
C5    C29   A    
N10   H33   S    
O15   V3    S    
C47   C51   S    
C1    O8    A    
C11   C13   A    
C33   C41   S    
N8    H30   S    
N2    H9    S    
O9    V2    S    
C34   C42   S    
O26   H12   S    
C42   N6    S    
O10   V1    S    
C11   N11   S    
C36   C52   S    
O22   H4    S    
N11   H35   S    
C35   C51   S    
O12   C60   A    
C7    C29   A    
C50   C52   S    
N7    H28   S    
