data_mof_unit_13073.cif
_audit_creation_date              2012-12-10T17:49:35-0500
_audit_creation_method            fapswitch 2.2
_symmetry_space_group_name_H-M    P1
_symmetry_Int_Tables_number       1
_space_group_crystal_system       triclinic
_cell_length_a                    14.706853
_cell_length_b                    14.72498
_cell_length_c                    15.862755
_cell_angle_alpha                 76.673903
_cell_angle_beta                  102.993693
_cell_angle_gamma                 114.9282
_cell_volume                      2999.38656213

loop_
_atom_site_label
_atom_site_type_symbol
_atom_type_description
_atom_site_fract_x
_atom_site_fract_y
_atom_site_fract_z
_atom_type_partial_charge
C1    C     C_R   0.880242 0.312259 0.513817 0.792927
C2    C     C_3   0.086957 0.467602 0.074623 0.350469
C3    C     C_3   0.003434 0.502270 0.083177 0.191173
C4    C     C_3   0.023625 0.610025 0.030502 -0.377253
C5    C     C_3   0.023394 0.610196 0.932670 0.480229
C6    C     C_1   0.002037 0.501784 0.175180 -0.043585
C7    C     C_1   0.002567 0.502042 0.825227 -0.025862
C8    C     C_1   0.001135 0.501373 0.749454 -0.175220
C9    C     C_R   0.812423 0.204866 0.516464 -0.053037
C10   C     C_R   0.187856 0.795477 0.474289 -0.154991
C11   C     C_R   0.783549 0.028239 0.528659 -0.195018
C12   C     C_R   0.000196 0.500353 0.659733 0.815153
C13   C     C_R   0.850206 0.128898 0.530779 -0.198959
C14   C     C_R   0.707714 0.179149 0.500314 -0.252494
C15   C     C_R   0.639250 0.079106 0.494056 0.087954
C16   C     C_R   0.678544 0.002718 0.510757 0.164648
C17   C     C_R   0.532898 0.052838 0.473087 0.051817
C18   C     C_R   0.466929 0.948936 0.482013 0.066392
C19   C     C_R   0.508645 0.875340 0.494078 -0.168904
C20   C     C_R   0.612703 0.901972 0.508151 -0.267444
C21   C     C_R   0.490430 0.126558 0.440119 -0.218827
C22   C     C_R   0.386291 0.098674 0.419086 -0.198740
C23   C     C_R   0.119822 0.687757 0.486177 0.812369
C24   C     C_R   0.320910 0.997438 0.435490 0.103833
C25   C     C_R   0.360709 0.922235 0.472806 -0.008912
C26   C     C_R   0.215952 0.970542 0.415207 -0.202294
C27   C     C_R   0.150030 0.869584 0.431326 -0.261183
C28   C     C_R   0.292840 0.823999 0.502705 0.377373
C29   C     C_R   0.716543 0.670250 0.356617 -0.323267
C30   C     C_R   0.797767 0.640089 0.379167 0.079528
C31   C     C_R   0.714047 0.508144 0.487303 0.007288
C32   C     C_R   0.628309 0.534676 0.467203 -0.023355
C33   C     C_R   0.631940 0.618356 0.400654 0.162320
C34   C     C_R   0.000282 0.500267 0.340297 0.825434
C35   C     C_R   0.540523 0.482580 0.510925 0.075669
C36   C     C_R   0.458661 0.516627 0.487905 0.080557
C37   C     C_R   0.467216 0.601307 0.421809 -0.234993
C38   C     C_R   0.551797 0.650450 0.378942 -0.213397
C39   C     C_R   0.531755 0.397592 0.576702 -0.235355
C40   C     C_R   0.447268 0.348494 0.619658 -0.194214
C41   C     C_R   0.367453 0.380982 0.598411 0.160532
C42   C     C_R   0.371075 0.464719 0.531916 -0.032110
C43   C     C_R   0.283227 0.329421 0.642934 -0.319217
C44   C     C_R   0.202315 0.359962 0.620929 0.070882
C45   C     C_3   0.087382 0.469089 0.976204 -0.390467
C46   C     C_R   0.285558 0.491487 0.512244 0.036852
C47   C     C_3   0.899860 0.428083 0.945787 -0.515041
C48   C     C_3   0.899384 0.428583 0.043148 -0.498483
C49   C     C_1   0.001135 0.501077 0.250687 -0.189173
C50   C     C_3   0.003628 0.502543 0.917605 0.173710
Cu1   Cu    Cu3+1 0.081750 0.475690 0.522550 0.942841
Cu2   Cu    Cu3+1 0.918250 0.524310 0.477450 0.935253
H1    H     H_    0.066093 0.387662 0.108955 0.053546
H2    H     H_    0.162766 0.521154 0.956857 0.223938
H3    H     H_    0.964105 0.635375 0.036118 0.113756
H4    H     H_    0.641703 0.843231 0.517447 0.157126
H5    H     H_    0.069500 0.849683 0.410689 0.171761
H6    H     H_    0.356744 0.157015 0.391114 0.144608
H7    H     H_    0.814085 0.970350 0.540439 0.136610
H8    H     H_    0.931015 0.147222 0.543251 0.154579
H9    H     H_    0.680900 0.238322 0.494568 0.148592
H10   H     H_    0.074609 0.392056 0.966035 0.114791
H11   H     H_    0.461960 0.796905 0.488411 0.199831
H12   H     H_    0.535909 0.206236 0.425036 0.144884
H13   H     H_    0.185000 0.027288 0.384691 0.144161
H14   H     H_    0.554727 0.714926 0.328431 0.146995
H15   H     H_    0.280391 0.552281 0.461327 0.131281
H16   H     H_    0.136757 0.319612 0.654589 0.126426
H17   H     H_    0.444219 0.283822 0.669979 0.141824
H18   H     H_    0.720192 0.734309 0.305490 0.137119
H19   H     H_    0.863545 0.680698 0.345806 0.123367
H20   H     H_    0.719096 0.447292 0.538193 0.122526
H21   H     H_    0.838110 0.449879 0.904390 0.182609
H22   H     H_    0.409565 0.631931 0.401344 0.135995
H23   H     H_    0.589060 0.366498 0.596711 0.131117
H24   H     H_    0.279647 0.265354 0.694035 0.139667
H25   H     H_    0.884109 0.350005 0.936162 0.198551
H26   H     H_    0.882054 0.350497 0.080032 0.183258
H27   H     H_    0.838219 0.451849 0.048336 0.197113
H28   H     H_    0.962800 0.634387 0.892092 0.073196
H29   H     H_    0.097493 0.665198 0.058126 0.233213
N1    N     N_R   0.795410 0.560790 0.443550 -0.175884
N2    N     N_R   0.204590 0.439170 0.556520 -0.179459
O1    O     O_R   0.977910 0.338120 0.529720 -0.590883
O2    O     O_R   0.839850 0.379180 0.491640 -0.590635
O3    O     O_R   0.069060 0.479460 0.639610 -0.582479
O4    O     O_R   0.931000 0.520530 0.601530 -0.575570
O5    O     O_R   0.160150 0.620820 0.508360 -0.545070
O6    O     O_R   0.022090 0.661880 0.470280 -0.594061
O7    O     O_R   0.069000 0.479470 0.398470 -0.584694
O8    O     O_R   0.930940 0.520540 0.360390 -0.576010
O9    O     O_3   0.183029 0.533742 0.111815 -0.593557
C51   C     C_3   0.246863 0.481441 0.153198 0.047895
H30   H     H_    0.326359 0.535521 0.148391 0.174117
H31   H     H_    0.234157 0.417002 0.120184 0.116338
C52   C     C_3   0.234955 0.445566 0.250343 -0.338824
H32   H     H_    0.251594 0.511764 0.282218 0.229176
H33   H     H_    0.155727 0.391841 0.256918 0.210705
C53   C     C_3   0.306416 0.392957 0.297483 -0.918028
H34   H     H_    0.290390 0.325791 0.267309 0.247408
H35   H     H_    0.295324 0.367216 0.367305 0.262021
H36   H     H_    0.386522 0.446036 0.294234 0.266619
O10   O     O_3   0.328755 0.756911 0.561843 -0.625877
C54   C     C_3   0.312494 0.753496 0.647427 0.101601
H37   H     H_    0.303964 0.676996 0.684099 0.178745
H38   H     H_    0.241315 0.762614 0.648981 0.122980
C55   C     C_3   0.403684 0.832772 0.694342 -0.392392
H39   H     H_    0.473957 0.822799 0.692319 0.236385
H40   H     H_    0.411104 0.910043 0.660588 0.218911
C56   C     C_3   0.391910 0.823038 0.789548 -0.856045
H41   H     H_    0.322706 0.834103 0.792993 0.280265
H42   H     H_    0.458757 0.881661 0.821633 0.250024
H43   H     H_    0.386622 0.747112 0.825517 0.258883
F1    F     F_    0.115305 0.679632 0.907276 -0.668448

loop_
_geom_bond_atom_site_label_1
_geom_bond_atom_site_label_2
_ccdc_geom_bond_type
C10   C27   A    
C37   H22   S    
C51   H30   S    
C5    F1    S    
C41   C43   A    
C41   C42   A    
C45   H10   S    
C36   C42   A    
C19   C20   A    
C9    C14   A    
C3    C6    S    
C54   H38   S    
C30   H19   S    
C7    C8    T    
C13   H8    S    
C1    O1    A    
C26   C27   A    
C37   C38   A    
C31   N1    A    
C48   H27   S    
C36   C37   A    
C24   C26   A    
Cu1   O7    S    
C15   C16   A    
C52   C53   S    
C29   C33   A    
C3    C48   S    
C18   C19   A    
C42   C46   A    
C48   H26   S    
C9    C13   A    
C34   O8    A    
C21   H12   S    
C56   H41   S    
C4    H29   S    
C38   H14   S    
C19   H11   S    
C52   H33   S    
C55   H39   S    
C23   O6    A    
C39   H23   S    
C8    C12   S    
C44   N2    A    
C51   H31   S    
C21   C22   A    
C55   H40   S    
Cu2   O6    S    
C18   C25   A    
C11   H7    S    
Cu1   O3    S    
C54   H37   S    
C47   C50   S    
Cu2   O4    S    
C2    C45   S    
C1    O2    A    
C2    O9    S    
C40   H17   S    
Cu1   Cu2   S    
C32   C35   A    
C1    C9    S    
C24   C25   A    
C47   H21   S    
C27   H5    S    
C39   C40   A    
C14   H9    S    
C17   C21   A    
C25   C28   A    
C35   C36   A    
C30   N1    A    
C35   C39   A    
C43   C44   A    
C34   O7    A    
C29   C30   A    
C11   C16   A    
C47   C48   S    
C16   C20   A    
C52   H32   S    
C17   C18   A    
C5    H28   S    
Cu2   N1    S    
C56   H43   S    
C31   H20   S    
C53   H35   S    
Cu2   O2    S    
C45   H2    S    
C51   C52   S    
C23   O5    A    
C4    H3    S    
C55   C56   S    
C22   C24   A    
C5    C50   S    
C44   H16   S    
C47   H25   S    
C3    C4    S    
Cu1   N2    S    
C29   H18   S    
C10   C28   A    
C43   H24   S    
C15   C17   A    
C40   C41   A    
C34   C49   S    
C12   O4    A    
C26   H13   S    
C31   C32   A    
C7    C50   S    
C4    C5    S    
C2    H1    S    
Cu1   O5    S    
C22   H6    S    
C10   C23   S    
C33   C38   A    
C53   H34   S    
C12   O3    A    
C32   C33   A    
C2    C3    S    
C46   H15   S    
C11   C13   A    
C28   O10   S    
C45   C50   S    
O9    C51   S    
C20   H4    S    
C6    C49   T    
C56   H42   S    
C46   N2    A    
C53   H36   S    
O10   C54   S    
C14   C15   A    
Cu2   O8    S    
Cu1   O1    S    
C54   C55   S    
