data_mof_unit_30444.cif
_audit_creation_date              2012-10-26T18:54:54-0400
_audit_creation_method            fapswitch 2.2
_symmetry_space_group_name_H-M    P1
_symmetry_Int_Tables_number       1
_space_group_crystal_system       triclinic
_cell_length_a                    10.959094
_cell_length_b                    9.628009
_cell_length_c                    11.055991
_cell_angle_alpha                 90.034354
_cell_angle_beta                  93.192099
_cell_angle_gamma                 90.13283
_cell_volume                      1164.75124013

loop_
_atom_site_label
_atom_site_type_symbol
_atom_type_description
_atom_site_fract_x
_atom_site_fract_y
_atom_site_fract_z
_atom_type_partial_charge
C1    C     C_R   0.263010 0.499476 0.508292 0.558529
C2    C     C_R   0.506126 0.616357 0.940113 -0.055394
C3    C     C_R   0.495288 0.495867 0.129443 -0.022849
C4    C     C_R   0.499236 0.495700 0.870348 -0.022908
C5    C     C_R   0.504730 0.368487 0.063890 0.022568
C6    C     C_R   0.488904 0.368556 0.935490 0.022760
C7    C     C_3   0.521414 0.770644 0.934239 -0.044756
C8    C     C_3   0.478997 0.772409 0.066418 -0.044606
C9    C     C_R   0.062932 0.371027 0.509937 -0.038627
C10   C     C_R   0.936304 0.371442 0.487385 -0.039203
C11   C     C_R   0.871494 0.498232 0.484433 -0.024315
C12   C     C_R   0.737002 0.499749 0.491650 0.559059
C13   C     C_R   0.128552 0.497636 0.515419 -0.023948
C14   C     C_R   0.937918 0.623540 0.486346 -0.039122
C15   C     C_R   0.062973 0.623118 0.515820 -0.039414
C16   C     C_2   0.543592 0.237882 0.125122 0.632035
C17   C     C_2   0.450657 0.238256 0.873229 0.634881
C18   C     C_1   0.650219 0.813246 0.927308 0.249168
C19   C     C_1   0.354585 0.828938 0.073678 0.257422
C20   C     C_1   0.440146 0.835062 0.839876 0.275632
C21   C     C_1   0.565150 0.830340 0.160348 0.268096
C22   C     C_1   0.121550 0.240025 0.539769 0.278167
C23   C     C_R   0.417834 0.074149 0.427087 0.094185
C24   C     C_1   0.876604 0.241445 0.454891 0.278219
C25   C     C_1   0.883625 0.751089 0.441200 0.273918
C26   C     C_1   0.118480 0.749787 0.562639 0.272695
C27   C     C_1   0.332736 0.147484 0.345876 0.305499
C28   C     C_1   0.667502 0.148525 0.653905 0.304543
C29   C     C_1   0.317643 0.852905 0.364611 0.271144
C30   C     C_1   0.682994 0.854384 0.634359 0.270461
C31   C     C_R   0.582269 0.074700 0.572756 0.096131
C32   C     C_R   0.414904 0.925810 0.430642 0.095356
C33   C     C_R   0.585217 0.926428 0.569114 0.096325
C34   C     C_R   0.498965 0.499609 0.262687 0.562643
C35   C     C_R   0.500299 0.499594 0.737288 0.562022
C36   C     C_R   0.480696 0.616375 0.059680 -0.052581
Cu1   Cu    Cu3+1 0.500000 0.640660 0.500000 1.039991
Cu2   Cu    Cu3+1 0.500000 0.359340 0.500000 1.054317
H1    H     H_    0.675126 0.139238 0.226241 0.368533
H2    H     H_    0.320003 0.140695 0.769157 0.369825
N1    N     N_R   0.500000 0.852070 0.500000 -0.264773
N2    N     N_1   0.161969 0.850555 0.602008 -0.212998
N3    N     N_1   0.264134 0.205223 0.280376 -0.234476
N4    N     N_1   0.736170 0.206634 0.719391 -0.235998
N5    N     N_1   0.237686 0.794767 0.313841 -0.258178
N6    N     N_1   0.763628 0.797118 0.684264 -0.256257
N7    N     N_R   0.500000 0.147940 0.500000 -0.277926
N8    N     N_1   0.751408 0.847934 0.927317 -0.196442
N9    N     N_1   0.257143 0.874907 0.074693 -0.191944
N10   N     N_1   0.376080 0.884510 0.765430 -0.246839
N11   N     N_1   0.632824 0.875389 0.234168 -0.245499
N12   N     N_1   0.167922 0.135610 0.564855 -0.249946
N13   N     N_1   0.829009 0.138085 0.427703 -0.247062
N14   N     N_1   0.841373 0.852825 0.403208 -0.212265
O1    O     O_R   0.319640 0.618740 0.499990 -0.497736
O2    O     O_R   0.658451 0.232325 0.186413 -0.655605
O3    O     O_2   0.517982 0.137232 0.876282 -0.500453
O4    O     O_R   0.336416 0.232953 0.810582 -0.656243
O5    O     O_R   0.680360 0.618740 0.500010 -0.497060
O6    O     O_R   0.319620 0.381170 0.499990 -0.500184
O7    O     O_R   0.680380 0.381170 0.500010 -0.500137
O8    O     O_R   0.499990 0.618810 0.319660 -0.507597
O9    O     O_R   0.500010 0.618810 0.680340 -0.507728
O10   O     O_R   0.499960 0.381240 0.319650 -0.485415
O11   O     O_R   0.500040 0.381240 0.680350 -0.485548
O12   O     O_2   0.476549 0.136258 0.121494 -0.502089

loop_
_geom_bond_atom_site_label_1
_geom_bond_atom_site_label_2
_ccdc_geom_bond_type
C2    C4    A    
C32   N1    A    
C31   C33   A    
Cu1   Cu2   S    
C23   C27   S    
H2    O4    S    
C9    C10   A    
C19   N9    T    
C2    C7    S    
C3    C34   S    
Cu2   O11   S    
C21   N11   T    
C17   O4    S    
C11   C12   S    
C7    C18   S    
C33   N1    A    
C23   C32   A    
Cu2   O7    S    
C23   N7    A    
C34   O10   A    
Cu1   O8    S    
C1    O1    A    
C4    C35   S    
C7    C8    S    
C31   N7    A    
C12   O7    A    
Cu2   N7    S    
Cu1   O5    S    
C3    C36   A    
C20   N10   T    
Cu2   O6    S    
C4    C6    A    
Cu1   O9    S    
C30   N6    T    
C8    C21   S    
C29   C32   S    
Cu2   O10   S    
C13   C15   A    
C14   C25   S    
Cu1   N1    S    
C5    C6    A    
C11   C14   A    
C9    C22   S    
C8    C19   S    
C1    C13   S    
C10   C11   A    
C35   O11   A    
Cu1   O1    S    
C27   N3    T    
C16   O2    S    
C34   O8    A    
C16   O12   D    
C25   N14   T    
C26   N2    T    
C22   N12   T    
C7    C20   S    
C8    C36   S    
C1    O6    A    
C2    C36   A    
C6    C17   S    
C9    C13   A    
C14   C15   A    
C5    C16   S    
C35   O9    A    
C3    C5    A    
C30   C33   S    
C10   C24   S    
C24   N13   T    
C12   O5    A    
C28   N4    T    
C28   C31   S    
C29   N5    T    
H1    O2    S    
C17   O3    D    
C15   C26   S    
C18   N8    T    
