data_mof_unit_63128.cif
_audit_creation_date              2012-12-10T18:49:50-0500
_audit_creation_method            fapswitch 2.2
_symmetry_space_group_name_H-M    P1
_symmetry_Int_Tables_number       1
_space_group_crystal_system       triclinic
_cell_length_a                    25.528117
_cell_length_b                    25.514754
_cell_length_c                    43.094705
_cell_angle_alpha                 90.000057
_cell_angle_beta                  89.999826
_cell_angle_gamma                 89.999983
_cell_volume                      28069.4613874

loop_
_atom_site_label
_atom_site_type_symbol
_atom_type_description
_atom_site_fract_x
_atom_site_fract_y
_atom_site_fract_z
_atom_type_partial_charge
C1    C     C_R   1.000000 0.500000 0.334410 0.892423
C2    C     C_R   1.000000 0.500000 0.665591 0.892554
C3    C     C_R   0.500000 0.000000 0.834409 0.892548
C4    C     C_R   0.500000 1.000000 0.165591 0.892490
C5    C     C_R   0.047386 0.500148 0.114940 -0.193807
C6    C     C_R   0.952614 0.499833 0.885060 -0.194168
C7    C     C_R   0.952615 0.499852 0.114940 -0.193820
C8    C     C_R   0.047386 0.500168 0.885060 -0.194012
C9    C     C_R   0.547386 0.000174 0.614940 -0.194167
C10   C     C_R   0.452614 0.999828 0.385060 -0.193799
C11   C     C_R   0.452615 0.999825 0.614940 -0.194010
C12   C     C_R   0.547385 0.000171 0.385060 -0.193811
C13   C     C_R   0.047768 0.500165 0.082485 -0.003451
C14   C     C_R   0.952233 0.499816 0.917515 -0.003167
C15   C     C_R   0.952233 0.499836 0.082485 -0.003437
C16   C     C_R   0.047767 0.500184 0.917515 -0.003267
C17   C     C_R   0.547767 0.000191 0.582485 -0.003185
C18   C     C_R   0.452233 0.999811 0.417515 -0.003436
C19   C     C_R   0.452233 0.999808 0.582485 -0.003286
C20   C     C_R   0.547767 0.000188 0.417515 -0.003422
C21   C     C_R   0.000000 0.500000 0.065822 -0.008956
C22   C     C_R   0.000000 0.500000 0.934178 -0.008842
C23   C     C_R   0.500000 1.000000 0.565822 -0.008833
C24   C     C_R   0.500000 1.000000 0.434178 -0.008964
C25   C     C_R   0.000000 0.500000 0.131393 -0.042734
C26   C     C_R   1.000000 0.500000 0.868607 -0.042468
C27   C     C_R   0.500000 1.000000 0.631393 -0.042465
C28   C     C_R   0.500000 1.000000 0.368607 -0.042740
C29   C     C_R   0.500000 1.000000 0.468534 0.282979
C30   C     C_R   0.500000 1.000000 0.531466 0.283086
C31   C     C_R   0.000000 0.500000 0.968534 0.283061
C32   C     C_R   0.000000 0.500000 0.031466 0.283006
C33   C     C_R   0.976624 0.541691 0.385614 0.355029
C34   C     C_R   0.976561 0.458345 0.614390 0.355055
C35   C     C_R   0.023374 0.458309 0.385614 0.355027
C36   C     C_R   0.023436 0.541655 0.614390 0.355031
C37   C     C_R   0.476564 0.041656 0.885611 0.355028
C38   C     C_R   0.476603 0.958322 0.114387 0.355058
C39   C     C_R   0.523437 0.958344 0.885610 0.355049
C40   C     C_R   0.523397 0.041678 0.114387 0.355060
C41   C     C_R   0.977437 0.541605 0.418013 -0.174990
C42   C     C_R   0.977372 0.458429 0.581991 -0.174974
C43   C     C_R   0.022560 0.458395 0.418013 -0.174990
C44   C     C_R   0.022624 0.541570 0.581990 -0.174968
C45   C     C_R   0.477376 0.041571 0.918010 -0.174986
C46   C     C_R   0.477417 0.958407 0.081988 -0.174977
C47   C     C_R   0.522626 0.958429 0.918010 -0.174977
C48   C     C_R   0.522585 0.041593 0.081988 -0.174978
C49   C     C_R   0.999998 0.500000 0.434389 -0.060870
C50   C     C_R   0.999998 0.500000 0.565615 -0.060793
C51   C     C_R   0.500001 1.000000 0.934386 -0.060822
C52   C     C_R   0.500001 1.000000 0.065612 -0.060812
C53   C     C_R   1.000000 0.500000 0.368825 -0.217038
C54   C     C_R   0.999999 0.500000 0.631177 -0.216843
C55   C     C_R   0.500000 0.000000 0.868823 -0.216861
C56   C     C_R   0.500000 1.000000 0.131175 -0.216943
C57   C     C_R   0.500001 1.000000 0.031459 0.341791
C58   C     C_R   0.500001 1.000000 0.968539 0.341794
C59   C     C_R   0.999998 0.500000 0.531462 0.341807
C60   C     C_R   0.999998 0.500000 0.468542 0.341802
C61   C     C_R   1.000000 0.500000 0.165663 0.821134
C62   C     C_R   1.000000 0.500000 0.834337 0.821422
C63   C     C_R   0.500000 0.000000 0.665663 0.821422
C64   C     C_R   0.500000 0.000000 0.334337 0.821138
C65   C     C_R   0.099852 0.400208 0.250023 0.833044
C66   C     C_R   0.900154 0.599800 0.749985 0.826558
C67   C     C_R   0.900148 0.599792 0.250023 0.833062
C68   C     C_R   0.099846 0.400200 0.749985 0.826535
C69   C     C_R   0.099851 0.599792 0.749977 0.833428
C70   C     C_R   0.900154 0.400200 0.250015 0.826133
C71   C     C_R   0.900149 0.400208 0.749977 0.833532
C72   C     C_R   0.099846 0.599800 0.250015 0.826145
C73   C     C_R   0.599851 0.900208 0.750023 0.833561
C74   C     C_R   0.400153 0.099799 0.249984 0.826080
C75   C     C_R   0.400149 0.099792 0.750023 0.833534
C76   C     C_R   0.599846 0.900200 0.249984 0.826098
C77   C     C_R   0.599851 0.099792 0.249977 0.833121
C78   C     C_R   0.400154 0.900200 0.750015 0.826432
C79   C     C_R   0.400148 0.900208 0.249977 0.833134
C80   C     C_R   0.599846 0.099800 0.750015 0.826529
C81   C     C_3   0.227862 0.797016 0.243264 -0.287195
C82   C     C_3   0.772300 0.202837 0.755852 -0.290561
C83   C     C_3   0.772129 0.202993 0.243232 -0.287196
C84   C     C_3   0.227847 0.797014 0.756435 -0.290600
C85   C     C_3   0.227703 0.202823 0.756130 -0.287109
C86   C     C_3   0.771665 0.796524 0.241943 -0.290851
C87   C     C_3   0.772360 0.797240 0.755872 -0.287146
C88   C     C_3   0.228364 0.203506 0.241856 -0.290857
C89   C     C_3   0.727656 0.297224 0.744061 -0.287112
C90   C     C_3   0.272095 0.703044 0.256650 -0.290760
C91   C     C_3   0.272196 0.702925 0.743479 -0.287060
C92   C     C_3   0.727914 0.296947 0.256682 -0.290767
C93   C     C_3   0.728292 0.703417 0.258142 -0.287072
C94   C     C_3   0.272253 0.297116 0.743957 -0.290587
C95   C     C_3   0.271678 0.296553 0.258228 -0.287065
C96   C     C_3   0.727684 0.702821 0.744215 -0.290582
C97   C     C_3   0.227419 0.747887 0.222066 0.436888
C98   C     C_3   0.773446 0.251260 0.777602 0.434803
C99   C     C_3   0.772544 0.252150 0.222056 0.436889
C100  C     C_3   0.227217 0.748075 0.777784 0.434834
C101  C     C_3   0.226724 0.251418 0.777750 0.436863
C102  C     C_3   0.770897 0.746188 0.221766 0.434905
C103  C     C_3   0.773569 0.748875 0.777668 0.436824
C104  C     C_3   0.229206 0.253915 0.221745 0.434909
C105  C     C_3   0.726508 0.248800 0.722311 0.436824
C106  C     C_3   0.272536 0.752171 0.277848 0.434814
C107  C     C_3   0.272829 0.751865 0.722130 0.436899
C108  C     C_3   0.727501 0.247791 0.277858 0.434813
C109  C     C_3   0.729059 0.753754 0.278318 0.437079
C110  C     C_3   0.273230 0.248522 0.722337 0.434830
C111  C     C_3   0.270838 0.246143 0.278340 0.437088
C112  C     C_3   0.726477 0.751185 0.722420 0.434810
C113  C     C_1   0.139509 0.639371 0.250020 -0.094004
C114  C     C_1   0.860466 0.360662 0.749945 -0.086205
C115  C     C_1   0.860491 0.360630 0.250021 -0.094010
C116  C     C_1   0.139534 0.639338 0.749944 -0.086152
C117  C     C_1   0.139508 0.360629 0.749980 -0.093820
C118  C     C_1   0.860465 0.639338 0.250058 -0.086086
C119  C     C_1   0.860492 0.639371 0.749981 -0.093877
C120  C     C_1   0.139535 0.360662 0.250058 -0.086083
C121  C     C_1   0.639508 0.139371 0.750019 -0.093939
C122  C     C_1   0.360466 0.860662 0.249944 -0.086265
C123  C     C_1   0.360491 0.860629 0.750020 -0.093898
C124  C     C_1   0.639534 0.139338 0.249944 -0.086272
C125  C     C_1   0.639509 0.860630 0.249977 -0.093852
C126  C     C_1   0.360466 0.139338 0.750056 -0.086085
C127  C     C_1   0.360490 0.139369 0.249977 -0.093851
C128  C     C_1   0.639534 0.860662 0.750055 -0.086149
C129  C     C_3   0.214055 0.761510 0.271224 -0.103307
C130  C     C_3   0.785194 0.239257 0.728152 -0.105833
C131  C     C_3   0.785973 0.238462 0.271202 -0.103302
C132  C     C_3   0.214289 0.761260 0.728543 -0.105762
C133  C     C_3   0.214591 0.239025 0.728366 -0.103443
C134  C     C_3   0.787114 0.762661 0.270314 -0.105501
C135  C     C_3   0.785178 0.760745 0.728195 -0.103410
C136  C     C_3   0.212812 0.237266 0.270250 -0.105489
C137  C     C_3   0.714762 0.260805 0.771761 -0.103353
C138  C     C_3   0.285901 0.738551 0.228690 -0.105626
C139  C     C_3   0.285755 0.738679 0.771371 -0.103392
C140  C     C_3   0.714071 0.261477 0.228712 -0.105616
C141  C     C_3   0.712843 0.737279 0.229771 -0.103447
C142  C     C_3   0.285364 0.260913 0.771721 -0.105884
C143  C     C_3   0.287231 0.262794 0.229835 -0.103451
C144  C     C_3   0.714866 0.739318 0.771893 -0.105898
C145  C     C_3   0.213368 0.713140 0.250018 -0.010670
C146  C     C_3   0.786585 0.286921 0.749899 -0.010460
C147  C     C_3   0.786631 0.286860 0.250019 -0.010668
C148  C     C_3   0.213414 0.713080 0.749897 -0.010504
C149  C     C_3   0.213369 0.286861 0.749984 -0.010780
C150  C     C_3   0.786589 0.713084 0.250108 -0.010562
C151  C     C_3   0.786630 0.713139 0.749985 -0.010737
C152  C     C_3   0.213411 0.286916 0.250108 -0.010567
C153  C     C_3   0.713369 0.213139 0.750015 -0.010717
C154  C     C_3   0.286586 0.786919 0.249896 -0.010392
C155  C     C_3   0.286631 0.786860 0.750017 -0.010777
C156  C     C_3   0.713414 0.213081 0.249896 -0.010389
C157  C     C_3   0.713367 0.786859 0.249976 -0.010875
C158  C     C_3   0.286585 0.213080 0.750102 -0.010519
C159  C     C_3   0.286633 0.213141 0.249975 -0.010883
C160  C     C_3   0.713416 0.786921 0.750101 -0.010482
C161  C     C_1   0.172861 0.672643 0.250019 0.053150
C162  C     C_1   0.827100 0.327406 0.749919 0.057211
C163  C     C_1   0.827139 0.327357 0.250020 0.053144
C164  C     C_1   0.172899 0.672594 0.749918 0.057273
C165  C     C_1   0.172861 0.327357 0.749982 0.053311
C166  C     C_1   0.827101 0.672595 0.250086 0.057358
C167  C     C_1   0.827139 0.672643 0.749983 0.053275
C168  C     C_1   0.172899 0.327405 0.250086 0.057365
C169  C     C_1   0.672860 0.172643 0.750017 0.053254
C170  C     C_1   0.327101 0.827405 0.249917 0.057152
C171  C     C_1   0.327139 0.827357 0.750019 0.053279
C172  C     C_1   0.672899 0.172595 0.249917 0.057148
C173  C     C_1   0.672861 0.827357 0.249976 0.053269
C174  C     C_1   0.327101 0.172594 0.750081 0.057279
C175  C     C_1   0.327139 0.172643 0.249976 0.053270
C176  C     C_1   0.672900 0.827406 0.750081 0.057226
H1    H     H_    0.209868 0.835535 0.237789 0.195796
H2    H     H_    0.790465 0.164150 0.760674 0.195491
H3    H     H_    0.790116 0.164481 0.237730 0.195796
H4    H     H_    0.209803 0.835580 0.761733 0.195504
H5    H     H_    0.209579 0.164174 0.761109 0.195898
H6    H     H_    0.789310 0.834688 0.235319 0.195438
H7    H     H_    0.790536 0.835941 0.760640 0.195870
H8    H     H_    0.210743 0.165366 0.235161 0.195439
H9    H     H_    0.709494 0.335912 0.739238 0.195875
H10   H     H_    0.290091 0.664526 0.262124 0.195369
H11   H     H_    0.290238 0.664358 0.738180 0.195921
H12   H     H_    0.709924 0.335457 0.262183 0.195367
H13   H     H_    0.710650 0.665253 0.264767 0.195953
H14   H     H_    0.290379 0.335764 0.738978 0.195504
H15   H     H_    0.289297 0.334693 0.264924 0.195961
H16   H     H_    0.709506 0.664121 0.739448 0.195491
H17   H     H_    0.084308 0.500536 0.127380 0.178050
H18   H     H_    0.915692 0.499429 0.872620 0.177666
H19   H     H_    0.915693 0.499464 0.127380 0.178043
H20   H     H_    0.084307 0.500571 0.872620 0.177764
H21   H     H_    0.584307 0.000583 0.627380 0.177669
H22   H     H_    0.415692 0.999422 0.372620 0.178051
H23   H     H_    0.415693 0.999416 0.627380 0.177766
H24   H     H_    0.584307 0.000578 0.372619 0.178043
H25   H     H_    0.959207 0.573687 0.430456 0.202031
H26   H     H_    0.959091 0.426376 0.569549 0.201957
H27   H     H_    0.040790 0.426313 0.430456 0.202033
H28   H     H_    0.040905 0.573624 0.569548 0.201971
H29   H     H_    0.459096 0.073625 0.930453 0.201989
H30   H     H_    0.459169 0.926335 0.069545 0.201975
H31   H     H_    0.540906 0.926375 0.930452 0.201985
H32   H     H_    0.540833 0.073665 0.069545 0.201972
N1    N     N_R   0.968880 0.533585 0.015443 -0.138686
N2    N     N_R   0.031120 0.466415 0.984556 -0.138633
N3    N     N_R   0.031120 0.466415 0.015443 -0.138681
N4    N     N_R   0.968880 0.533585 0.984556 -0.138628
N5    N     N_R   0.468867 0.033572 0.515444 -0.138672
N6    N     N_R   0.531133 0.966427 0.484556 -0.138640
N7    N     N_R   0.531133 0.966427 0.515443 -0.138664
N8    N     N_R   0.468867 0.033572 0.484557 -0.138636
N9    N     N_R   0.000087 0.454192 0.484560 -0.146613
N10   N     N_R   0.000172 0.545807 0.515443 -0.146623
N11   N     N_R   0.999909 0.545807 0.484560 -0.146607
N12   N     N_R   0.999823 0.454193 0.515443 -0.146631
N13   N     N_R   0.500156 0.954193 0.984557 -0.146628
N14   N     N_R   0.500110 0.045807 0.015440 -0.146612
N15   N     N_R   0.499846 0.045807 0.984558 -0.146634
N16   N     N_R   0.499893 0.954192 0.015440 -0.146611
O1    O     O_3   1.000000 0.500000 0.250010 -0.512352
O2    O     O_3   0.000000 0.500000 0.749990 -0.512247
O3    O     O_3   0.500000 0.000000 0.750010 -0.512245
O4    O     O_3   0.500000 0.000000 0.249990 -0.512350
O5    O     O_R   0.000000 0.543070 0.319340 -0.593299
O6    O     O_R   0.000000 0.456930 0.680660 -0.593398
O7    O     O_R   0.000000 0.456930 0.319340 -0.593296
O8    O     O_R   0.000000 0.543070 0.680660 -0.593390
O9    O     O_R   0.500000 0.043070 0.819340 -0.593403
O10   O     O_R   0.500000 0.956930 0.180660 -0.593300
O11   O     O_R   0.500000 0.956930 0.819340 -0.593393
O12   O     O_R   0.500000 0.043070 0.180660 -0.593295
O13   O     O_R   0.043090 0.500000 0.180680 -0.638469
O14   O     O_R   0.956910 0.500000 0.819320 -0.638634
O15   O     O_R   0.956910 0.500000 0.180680 -0.638474
O16   O     O_R   0.043090 0.500000 0.819320 -0.638556
O17   O     O_R   0.543090 0.000000 0.680680 -0.638634
O18   O     O_R   0.456910 0.000000 0.319320 -0.638467
O19   O     O_R   0.456910 0.000000 0.680680 -0.638555
O20   O     O_R   0.543090 0.000000 0.319320 -0.638472
O21   O     O_R   0.060700 0.396230 0.268160 -0.610649
O22   O     O_R   0.939300 0.603770 0.731840 -0.626224
O23   O     O_R   0.939300 0.603770 0.268160 -0.610640
O24   O     O_R   0.060700 0.396230 0.731840 -0.626252
O25   O     O_R   0.060700 0.603770 0.731840 -0.610388
O26   O     O_R   0.939300 0.396230 0.268160 -0.626394
O27   O     O_R   0.939300 0.396230 0.731840 -0.610320
O28   O     O_R   0.060700 0.603770 0.268160 -0.626389
O29   O     O_R   0.560700 0.896230 0.768160 -0.610356
O30   O     O_R   0.439300 0.103770 0.231840 -0.626536
O31   O     O_R   0.439300 0.103770 0.768160 -0.610378
O32   O     O_R   0.560700 0.896230 0.231840 -0.626525
O33   O     O_R   0.560700 0.103770 0.231840 -0.610534
O34   O     O_R   0.439300 0.896230 0.768160 -0.626271
O35   O     O_R   0.439300 0.896230 0.231840 -0.610529
O36   O     O_R   0.560700 0.103770 0.768160 -0.626195
O37   O     O_R   0.896260 0.560630 0.231870 -0.632309
O38   O     O_R   0.103740 0.439370 0.768130 -0.629306
O39   O     O_R   0.103740 0.439370 0.231870 -0.632286
O40   O     O_R   0.896260 0.560630 0.768130 -0.629412
O41   O     O_R   0.896260 0.439370 0.768130 -0.633135
O42   O     O_R   0.103740 0.560630 0.231870 -0.629128
O43   O     O_R   0.103740 0.560630 0.768130 -0.632954
O44   O     O_R   0.896260 0.439370 0.231870 -0.629125
O45   O     O_R   0.396260 0.060630 0.731870 -0.632931
O46   O     O_R   0.603740 0.939370 0.268130 -0.628678
O47   O     O_R   0.603740 0.939370 0.731870 -0.633035
O48   O     O_R   0.396260 0.060630 0.268130 -0.628654
O49   O     O_R   0.396260 0.939370 0.268130 -0.632751
O50   O     O_R   0.603740 0.060630 0.731870 -0.629510
O51   O     O_R   0.603740 0.060630 0.268130 -0.632747
O52   O     O_R   0.396260 0.939370 0.731870 -0.629326
Zn1   Zn    Zn3+2 0.061600 0.500000 0.224030 1.009174
Zn2   Zn    Zn3+2 0.938400 0.500000 0.775970 1.008692
Zn3   Zn    Zn3+2 0.938400 0.500000 0.224030 1.009156
Zn4   Zn    Zn3+2 0.061600 0.500000 0.775970 1.008906
Zn5   Zn    Zn3+2 0.561600 0.000000 0.724030 1.008694
Zn6   Zn    Zn3+2 0.438400 1.000000 0.275970 1.009184
Zn7   Zn    Zn3+2 0.438400 0.000000 0.724030 1.008908
Zn8   Zn    Zn3+2 0.561600 1.000000 0.275970 1.009166
Zn9   Zn    Zn3+2 1.000000 0.438400 0.275970 1.050557
Zn10  Zn    Zn3+2 0.000000 0.561600 0.724030 1.050892
Zn11  Zn    Zn3+2 0.000000 0.561600 0.275970 1.050569
Zn12  Zn    Zn3+2 0.000000 0.438400 0.724030 1.050920
Zn13  Zn    Zn3+2 0.500000 0.938400 0.775970 1.050877
Zn14  Zn    Zn3+2 0.500000 0.061600 0.224030 1.050547
Zn15  Zn    Zn3+2 0.500000 0.061600 0.775970 1.050915
Zn16  Zn    Zn3+2 0.500000 0.938400 0.224030 1.050559
Cl1   Cl    Cl    0.197233 0.744684 0.184844 -0.538977
Cl2   Cl    Cl    0.804850 0.253247 0.814498 -0.544357
Cl3   Cl    Cl    0.802681 0.255403 0.184822 -0.538997
Cl4   Cl    Cl    0.196698 0.745201 0.814920 -0.544281
Cl5   Cl    Cl    0.195611 0.253694 0.814727 -0.537967
Cl6   Cl    Cl    0.798898 0.740793 0.184037 -0.543948
Cl7   Cl    Cl    0.805072 0.746990 0.814536 -0.538169
Cl8   Cl    Cl    0.201343 0.259446 0.183987 -0.543937
Cl9   Cl    Cl    0.695106 0.246814 0.685414 -0.538628
Cl10  Cl    Cl    0.302724 0.755375 0.315069 -0.544856
Cl11  Cl    Cl    0.303345 0.754739 0.684993 -0.538416
Cl12  Cl    Cl    0.697362 0.244537 0.315092 -0.544886
Cl13  Cl    Cl    0.701061 0.759148 0.316048 -0.537739
Cl14  Cl    Cl    0.304345 0.246245 0.685361 -0.543725
Cl15  Cl    Cl    0.298699 0.240613 0.316098 -0.537711
Cl16  Cl    Cl    0.694971 0.753071 0.685552 -0.543863
C177  C     C_1   0.325540 0.726181 0.205155 0.299759
N17   N     N_1   0.356809 0.716450 0.186594 -0.127544
C178  C     C_1   0.675908 0.272419 0.795883 0.291585
N18   N     N_1   0.645259 0.281557 0.814907 -0.137847
C179  C     C_1   0.674401 0.273878 0.205202 0.299743
N19   N     N_1   0.643108 0.283633 0.186659 -0.127578
C180  C     C_1   0.325181 0.726495 0.795064 0.291644
N20   N     N_1   0.356281 0.716907 0.813750 -0.137905
C181  C     C_1   0.324410 0.272691 0.795706 0.300036
N21   N     N_1   0.355211 0.281953 0.814623 -0.127058
C182  C     C_1   0.671865 0.723545 0.207332 0.291710
N22   N     N_1   0.639541 0.712736 0.189635 -0.137987
C183  C     C_1   0.676075 0.727796 0.796065 0.300002
N23   N     N_1   0.645476 0.718735 0.815130 -0.126846
C184  C     C_1   0.328290 0.276609 0.207465 0.291715
N24   N     N_1   0.360678 0.287482 0.189823 -0.137999
C185  C     C_1   0.824052 0.227667 0.704027 0.299922
N25   N     N_1   0.854704 0.218553 0.685001 -0.127029
C186  C     C_1   0.174420 0.773903 0.294756 0.291535
N26   N     N_1   0.143154 0.783656 0.313315 -0.137729
C187  C     C_1   0.174859 0.773420 0.704847 0.299912
N27   N     N_1   0.143757 0.782986 0.686158 -0.127514
C188  C     C_1   0.825639 0.226038 0.294710 0.291525
N28   N     N_1   0.856929 0.216261 0.313249 -0.137741
C189  C     C_1   0.828095 0.776374 0.292756 0.299730
N29   N     N_1   0.860421 0.787163 0.310455 -0.128774
C190  C     C_1   0.175549 0.227224 0.704383 0.291728
N30   N     N_1   0.144752 0.217937 0.685469 -0.137721
C191  C     C_1   0.171750 0.223472 0.292622 0.299719
N31   N     N_1   0.139359 0.212618 0.310267 -0.128848
C192  C     C_1   0.823965 0.772291 0.704024 0.291664
N32   N     N_1   0.854562 0.781375 0.684962 -0.137695
C193  C     C_1   0.097852 0.502147 0.066902 0.221582
N33   N     N_1   0.137978 0.503757 0.054439 -0.132908
C194  C     C_1   0.902150 0.497813 0.933099 0.220945
N34   N     N_1   0.862025 0.496186 0.945563 -0.133488
C195  C     C_1   0.902148 0.497853 0.066902 0.221555
N35   N     N_1   0.862022 0.496243 0.054439 -0.132961
C196  C     C_1   0.097850 0.502188 0.933099 0.221145
N36   N     N_1   0.137975 0.503815 0.945562 -0.133300
C197  C     C_1   0.597850 0.002203 0.566901 0.220962
N37   N     N_1   0.637976 0.003836 0.554438 -0.133449
C198  C     C_1   0.402149 0.997803 0.433098 0.221584
N38   N     N_1   0.362024 0.996172 0.445561 -0.132914
C199  C     C_1   0.402150 0.997796 0.566902 0.221164
N39   N     N_1   0.362024 0.996162 0.554439 -0.133258
C200  C     C_1   0.597850 0.002196 0.433098 0.221557
N40   N     N_1   0.637976 0.003827 0.445561 -0.132970
Cl17  Cl    Cl    0.943352 0.594002 0.367497 -0.531280
Cl18  Cl    Cl    0.943211 0.406087 0.632512 -0.531838
Cl19  Cl    Cl    0.056647 0.405998 0.367497 -0.531259
Cl20  Cl    Cl    0.056787 0.593913 0.632510 -0.531728
Cl21  Cl    Cl    0.443215 0.093915 0.867490 -0.531759
Cl22  Cl    Cl    0.443302 0.906029 0.132505 -0.531633
Cl23  Cl    Cl    0.556786 0.906085 0.867489 -0.531772
Cl24  Cl    Cl    0.556698 0.093970 0.132506 -0.531627

loop_
_geom_bond_atom_site_label_1
_geom_bond_atom_site_label_2
_ccdc_geom_bond_type
C69   C116  S    
C37   Cl21  S    
C35   C53   A    
C8    C26   A    
C34   C42   A    
C191  N31   T    
C129  C186  S    
C189  N29   T    
C49   C60   S    
C50   C59   S    
O1    Zn11  S    
C15   C195  S    
C10   C28   A    
C63   O17   A    
C154  C170  S    
C40   C48   A    
O2    Zn2   S    
C84   H4    S    
C108  C131  S    
C3    O11   A    
C30   N7    A    
C86   C134  S    
C122  C170  T    
C16   C22   A    
C102  C141  S    
C144  C160  S    
C5    C13   A    
C126  C174  T    
C69   O25   A    
C138  C154  S    
C7    C15   A    
C8    C16   A    
C4    C56   S    
C92   C147  S    
C33   C53   A    
C76   C125  S    
C82   C98   S    
C93   C150  S    
C97   C145  S    
C142  C158  S    
C71   O27   A    
C136  C152  S    
C80   C121  S    
O48   Zn6   S    
O20   Zn8   S    
O21   Zn9   S    
C184  N24   T    
C61   O15   A    
C91   C107  S    
C73   O47   A    
C60   N11   A    
C74   O48   A    
C90   H10   S    
C72   C113  S    
C148  C164  S    
C19   C23   A    
C94   H14   S    
C101  Cl5   S    
C133  C190  S    
C130  C185  S    
C131  C188  S    
C1    O7    A    
C81   C129  S    
C200  N40   T    
C124  C172  T    
C11   C27   A    
C112  Cl16  S    
C48   H32   S    
C72   O42   A    
C137  C153  S    
C105  Cl9   S    
C74   O30   A    
C107  Cl11  S    
C140  C156  S    
C87   C103  S    
C108  Cl12  S    
O34   Zn13  S    
C141  C157  S    
C34   C54   A    
C36   C44   A    
C85   C158  S    
C37   C45   A    
C136  C191  S    
C119  C167  T    
C6    H18   S    
C120  C168  T    
C39   C47   A    
C66   O22   A    
C44   C50   A    
C138  C177  S    
C99   C147  S    
C112  C160  S    
C4    O10   A    
C62   O14   A    
C69   O43   A    
C58   N15   A    
C70   O44   A    
C70   C115  S    
C90   C145  S    
C73   C128  S    
C75   O45   A    
C40   Cl24  S    
C75   C126  S    
C79   O35   A    
C104  C152  S    
C77   C124  S    
C3    O9    A    
C30   N5    A    
C32   N1    A    
C132  C187  S    
C145  C161  S    
C10   C18   A    
C151  C167  S    
C140  C179  S    
C65   C120  S    
C84   C132  S    
C115  C163  T    
C67   C118  S    
O47   Zn5   S    
C113  C161  T    
C190  N30   T    
C48   C52   A    
C183  N23   T    
O45   Zn7   S    
C95   C152  S    
O46   Zn8   S    
O30   Zn14  S    
N14   N15   A    
O18   Zn6   S    
C107  C155  S    
C105  C153  S    
C197  N37   T    
C77   O51   A    
C198  N38   T    
C78   O52   A    
C109  C157  S    
C68   O38   A    
C29   N6    A    
C68   O24   A    
C111  Cl15  S    
O44   Zn3   S    
C17   C23   A    
O3    Zn15  S    
O49   Zn6   S    
O2    Zn12  S    
C75   O31   A    
C87   H7    S    
O41   Zn2   S    
C88   H8    S    
C150  C166  S    
C109  Cl13  S    
O43   Zn4   S    
C1    C53   S    
O31   Zn15  S    
C144  C183  S    
C3    C55   S    
C92   C108  S    
C135  C192  S    
C131  C147  S    
C35   C43   A    
C2    O8    A    
C36   Cl20  S    
C77   O33   A    
C4    O12   A    
C88   C104  S    
C58   N13   A    
C9    H21   S    
C94   C142  S    
C149  C165  S    
C85   C133  S    
C32   N3    A    
C40   C56   A    
C156  C172  S    
O15   Zn3   S    
C100  C139  S    
C6    C14   A    
C101  C142  S    
C74   C127  S    
C139  C155  S    
C104  Cl8   S    
O16   Zn4   S    
C12   H24   S    
C104  C143  S    
C39   Cl23  S    
C78   C123  S    
C34   Cl18  S    
C42   C50   A    
C139  C180  S    
C14   C194  S    
C66   C119  S    
C42   H26   S    
O6    Zn12  S    
C86   C102  S    
C46   H30   S    
C91   H11   S    
C85   H5    S    
O3    Zn13  S    
C89   H9    S    
O2    Zn10  S    
O8    Zn10  S    
C107  C132  S    
O14   Zn2   S    
O3    Zn7   S    
C102  Cl6   S    
C92   H12   S    
C105  C130  S    
C93   H13   S    
C83   H3    S    
O25   Zn10  S    
C143  C184  S    
C14   C22   A    
C106  Cl10  S    
C81   H1    S    
C147  C163  S    
C6    C26   A    
O35   Zn16  S    
C67   O37   A    
C76   O32   A    
C86   C157  S    
C38   C46   A    
C36   C54   A    
C2    O6    A    
O11   Zn13  S    
C37   C55   A    
C38   C56   A    
C89   C105  S    
C44   H28   S    
O1    Zn1   S    
C93   C109  S    
C38   Cl22  S    
C95   C143  S    
C100  Cl4   S    
C199  N39   T    
N9    N12   A    
C103  Cl7   S    
C146  C162  S    
C11   C19   A    
C12   C28   A    
C97   Cl1   S    
N13   N16   A    
C99   Cl3   S    
C59   N12   A    
C114  C162  T    
C64   O18   A    
N1    N4    A    
C62   O16   A    
C41   C49   A    
C111  C159  S    
C24   C29   S    
C82   C153  S    
C39   C55   A    
C31   N4    A    
C117  C165  T    
C106  C154  S    
C76   O46   A    
O9    Zn15  S    
O10   Zn16  S    
C70   O26   A    
C110  C158  S    
C103  C151  S    
C180  N20   T    
C79   O49   A    
C83   C99   S    
C65   O39   A    
O50   Zn5   S    
C66   O40   A    
O3    Zn5   S    
C152  C168  S    
C57   N14   A    
O42   Zn1   S    
C127  C175  T    
C79   C122  S    
C128  C176  T    
C110  Cl14  S    
C98   C137  S    
C87   C135  S    
C90   C106  S    
C16   C196  S    
C2    C54   S    
C196  N36   T    
C158  C174  S    
C47   C51   A    
C193  N33   T    
C94   C110  S    
C71   C114  S    
C84   C100  S    
C188  N28   T    
C192  N32   T    
C108  C156  S    
O38   Zn4   S    
C78   O34   A    
C51   C58   S    
C25   C61   S    
C88   C136  S    
C27   C63   S    
C102  C150  S    
C73   O29   A    
C28   C64   S    
C89   C137  S    
C18   C24   A    
O27   Zn12  S    
C41   H25   S    
C92   C140  S    
O28   Zn11  S    
C93   C141  S    
C9    C27   A    
C5    H17   S    
N5    N8    A    
O4    Zn6   S    
C65   O21   A    
C45   H29   S    
C109  C134  S    
C59   N10   A    
C143  C159  S    
C64   O20   A    
C7    C25   A    
C33   C41   A    
C186  N26   T    
C18   C198  S    
C96   H16   S    
C179  N19   T    
C31   N2    A    
C135  C151  S    
O26   Zn9   S    
C8    H20   S    
C185  N25   T    
C111  C136  S    
C11   H23   S    
C52   C57   S    
C182  N22   T    
C17   C197  S    
C153  C169  S    
C86   H6    S    
O7    Zn9   S    
O4    Zn14  S    
O12   Zn14  S    
C123  C171  T    
C157  C173  S    
C57   N16   A    
C106  C129  S    
C121  C169  T    
C194  N34   T    
C187  N27   T    
O13   Zn1   S    
C125  C173  T    
C103  C144  S    
C177  N17   T    
C94   C149  S    
C83   C131  S    
C96   C112  S    
C12   C20   A    
C84   C155  S    
C96   C144  S    
C45   C51   A    
C134  C150  S    
C46   C52   A    
C87   C160  S    
C88   C159  S    
O19   Zn7   S    
C20   C24   A    
O37   Zn3   S    
O40   Zn2   S    
C80   O36   A    
C82   C130  S    
C95   H15   S    
O4    Zn8   S    
O36   Zn15  S    
C71   O41   A    
C159  C175  S    
C160  C176  S    
C82   H2    S    
C98   Cl2   S    
C20   C200  S    
C67   O23   A    
C10   H22   S    
C91   C148  S    
O33   Zn14  S    
C130  C146  S    
O1    Zn3   S    
C89   C146  S    
C21   C32   S    
C22   C31   S    
C13   C21   A    
C132  C148  S    
C23   C30   S    
C133  C149  S    
O23   Zn11  S    
C13   C193  S    
O24   Zn12  S    
N6    N7    A    
C43   C49   A    
C29   N8    A    
C83   C156  S    
C98   C146  S    
C178  N18   T    
O39   Zn1   S    
C96   C151  S    
C118  C166  T    
C81   C154  S    
O1    Zn9   S    
C90   C138  S    
C137  C178  S    
C1    O5    A    
C68   C117  S    
C63   O19   A    
C80   O50   A    
O4    Zn16  S    
O2    Zn4   S    
C72   O28   A    
O51   Zn8   S    
C33   Cl17  S    
C9    C17   A    
C35   Cl19  S    
C43   H27   S    
C91   C139  S    
C99   C140  S    
C19   C199  S    
C112  C135  S    
C97   C138  S    
O32   Zn16  S    
C85   C101  S    
C134  C189  S    
C142  C181  S    
C116  C164  T    
O29   Zn13  S    
O17   Zn5   S    
O52   Zn7   S    
C141  C182  S    
C47   H31   S    
C61   O13   A    
C26   C62   S    
C95   C111  S    
C60   N9    A    
N10   N11   A    
C81   C97   S    
C100  C148  S    
C101  C149  S    
C129  C145  S    
C181  N21   T    
C155  C171  S    
C15   C21   A    
O5    Zn11  S    
N2    N3    A    
O22   Zn10  S    
C110  C133  S    
C195  N35   T    
C7    H19   S    
C5    C25   A    
