data_mof_unit_51794.cif
_audit_creation_date              2012-12-10T19:46:54-0500
_audit_creation_method            fapswitch 2.2
_symmetry_space_group_name_H-M    P1
_symmetry_Int_Tables_number       1
_space_group_crystal_system       triclinic
_cell_length_a                    10.994538
_cell_length_b                    10.955948
_cell_length_c                    13.112732
_cell_angle_alpha                 92.983037
_cell_angle_beta                  91.802218
_cell_angle_gamma                 91.589838
_cell_volume                      1575.89816818

loop_
_atom_site_label
_atom_site_type_symbol
_atom_type_description
_atom_site_fract_x
_atom_site_fract_y
_atom_site_fract_z
_atom_type_partial_charge
C1    C     C_R   0.499747 0.259246 0.497761 0.823744
C2    C     C_R   0.496564 0.740578 0.502194 0.833891
C3    C     C_R   0.873343 0.505228 0.504780 -0.082876
C4    C     C_R   0.126894 0.499789 0.494756 -0.083226
C5    C     C_R   0.946200 0.522229 0.595666 0.085469
C6    C     C_R   0.054157 0.484936 0.403508 0.082688
C7    C     C_R   0.390045 0.164751 0.153867 -0.219628
C8    C     C_R   0.593616 0.849475 0.853814 -0.199139
C9    C     C_R   0.391971 0.128509 0.254275 0.180624
C10   C     C_R   0.595781 0.882441 0.752236 0.177632
C11   C     C_R   0.504562 0.101633 0.301791 0.042599
C12   C     C_R   0.484551 0.898337 0.698060 0.016683
C13   C     C_R   0.614072 0.107667 0.246762 0.101556
C14   C     C_R   0.371786 0.883001 0.746847 0.136573
C15   C     C_R   0.609336 0.142826 0.143578 0.185994
C16   C     C_R   0.372731 0.853280 0.851173 0.202219
C17   C     C_R   0.495821 0.171035 0.099176 -0.188242
C18   C     C_R   0.484138 0.836135 0.902697 -0.226318
C19   C     C_R   0.500804 0.927238 0.410157 -0.232212
C20   C     C_R   0.493001 0.072435 0.589736 -0.209758
C21   C     C_R   0.494428 0.872996 0.504160 -0.120514
C22   C     C_R   0.499822 0.126686 0.495801 -0.119831
C23   C     C_R   0.259218 0.496719 0.497794 0.843703
C24   C     C_R   0.740786 0.505367 0.502169 0.846379
C25   C     C_R   0.487719 0.946641 0.594922 0.017062
C26   C     C_R   0.504855 0.053053 0.404908 0.025361
C27   C     C_1   0.500663 0.499658 0.173558 0.146899
C28   C     C_1   0.500163 0.499734 0.826441 0.140726
C29   C     C_1   0.501003 0.499301 0.050701 -0.107162
C30   C     C_1   0.500887 0.499356 0.949313 -0.144386
C31   C     C_R   0.198689 0.516773 0.145184 -0.303872
C32   C     C_R   0.801570 0.505285 0.854875 -0.260492
C33   C     C_R   0.167089 0.544554 0.247206 0.457855
C34   C     C_R   0.834491 0.471027 0.754478 0.447130
C35   C     C_R   0.100208 0.457341 0.299540 0.080548
C36   C     C_R   0.900086 0.555308 0.698401 0.077257
C37   C     C_R   0.059807 0.347974 0.246873 -0.336137
C38   C     C_R   0.938162 0.668372 0.745870 -0.328092
C39   C     C_R   0.088721 0.322634 0.145499 -0.164711
C40   C     C_R   0.907579 0.700255 0.845940 -0.201830
C41   C     C_R   0.159104 0.406210 0.093867 0.207811
C42   C     C_R   0.838420 0.619277 0.901238 0.197152
C43   C     C_R   0.928606 0.488921 0.410585 -0.264575
C44   C     C_R   0.071748 0.518235 0.588784 -0.262903
Cu1   Cu    Cu3+1 0.499990 0.499990 0.592680 0.981299
Cu2   Cu    Cu3+1 0.500010 0.500010 0.407320 0.981371
H1    H     H_    0.503274 0.871564 0.339380 0.158850
H2    H     H_    0.490981 0.128184 0.660509 0.163295
H3    H     H_    0.251627 0.582632 0.105378 0.129948
H4    H     H_    0.749509 0.442329 0.897753 0.137317
H5    H     H_    0.006053 0.281172 0.284930 0.169492
H6    H     H_    0.990970 0.732956 0.704439 0.165914
H7    H     H_    0.056721 0.237141 0.107353 0.143655
H8    H     H_    0.937757 0.788561 0.879921 0.151384
H9    H     H_    0.873187 0.478206 0.340587 0.160980
H10   H     H_    0.127230 0.531300 0.658658 0.160169
H11   H     H_    0.486398 0.197602 0.021223 0.166078
H12   H     H_    0.486276 0.811908 0.981805 0.152600
H13   H     H_    0.304972 0.186277 0.116692 0.152261
H14   H     H_    0.677615 0.835763 0.896187 0.153733
N1    N     N_1   0.500030 0.500030 0.268070 -0.139385
N2    N     N_1   0.499970 0.499970 0.731930 -0.136515
O1    O     O_R   0.499980 0.319630 0.578260 -0.578563
O2    O     O_R   0.500020 0.680370 0.421740 -0.578058
O3    O     O_R   0.500000 0.319650 0.421740 -0.575810
O4    O     O_R   0.500000 0.680350 0.578260 -0.584156
O5    O     O_R   0.319630 0.500000 0.578260 -0.595531
O6    O     O_R   0.680370 0.500000 0.421740 -0.595541
O7    O     O_R   0.319650 0.500020 0.421740 -0.554209
O8    O     O_R   0.680350 0.499980 0.578260 -0.549997
C45   C     C_3   0.190782 0.376688 0.984371 -0.427743
C46   C     C_3   0.080507 0.385194 0.912133 -0.812871
H15   H     H_    0.005679 0.322016 0.932930 0.249186
H16   H     H_    0.048456 0.480175 0.915377 0.271020
H17   H     H_    0.106246 0.360708 0.832609 0.249134
H18   H     H_    0.262498 0.440607 0.960217 0.217992
H19   H     H_    0.226960 0.283219 0.976356 0.190105
C47   C     C_3   0.804203 0.654492 0.009172 -0.432368
C48   C     C_3   0.863625 0.573130 0.086300 -0.794559
H20   H     H_    0.834451 0.475875 0.071006 0.256099
H21   H     H_    0.964010 0.582015 0.082583 0.262563
H22   H     H_    0.836993 0.602270 0.164635 0.239335
H23   H     H_    0.832646 0.750976 0.030121 0.187296
H24   H     H_    0.703925 0.648173 0.014782 0.215068
C49   C     C_3   0.734674 0.076608 0.298873 -0.447528
C50   C     C_3   0.786387 0.184413 0.366426 -0.776706
H25   H     H_    0.791004 0.267825 0.322079 0.244065
H26   H     H_    0.729454 0.201894 0.433412 0.258405
H27   H     H_    0.879250 0.163776 0.395115 0.231086
H28   H     H_    0.723596 0.995639 0.345455 0.213399
H29   H     H_    0.804159 0.049807 0.243362 0.188521
C51   C     C_3   0.252325 0.895306 0.686957 -0.397589
C52   C     C_3   0.203803 0.024543 0.698918 -0.849015
H30   H     H_    0.198072 0.055060 0.780595 0.243321
H31   H     H_    0.263398 0.090333 0.661010 0.256235
H32   H     H_    0.111423 0.026135 0.662380 0.244764
H33   H     H_    0.262695 0.871278 0.604448 0.211029
H34   H     H_    0.183297 0.828401 0.711339 0.199747
C53   C     C_3   0.725134 0.148757 0.082557 -0.395636
C54   C     C_3   0.710487 0.194812 0.975063 -0.917148
H35   H     H_    0.651895 0.130089 0.925942 0.266978
H36   H     H_    0.669992 0.286274 0.978706 0.258917
H37   H     H_    0.801049 0.202481 0.940427 0.244987
H38   H     H_    0.793180 0.210405 0.125298 0.213338
H39   H     H_    0.762711 0.055746 0.074665 0.189691
C55   C     C_3   0.257908 0.837325 0.910548 -0.434981
C56   C     C_3   0.219935 0.702743 0.911041 -0.845450
H40   H     H_    0.195733 0.665577 0.832422 0.258574
H41   H     H_    0.295855 0.650299 0.942344 0.254266
H42   H     H_    0.140065 0.691801 0.959800 0.250935
H43   H     H_    0.274367 0.873729 0.990736 0.199057
H44   H     H_    0.181222 0.889304 0.879963 0.210495
O9    O     O_3   0.197655 0.656521 0.295863 -0.737673
H45   H     H_    0.246403 0.705415 0.249463 0.307391
O10   O     O_3   0.806346 0.355789 0.711078 -0.736446
H46   H     H_    0.757732 0.309848 0.759523 0.310157
C57   C     C_3   0.272251 0.119907 0.308478 -0.400880
C58   C     C_3   0.186209 0.021288 0.257820 -0.833480
H47   H     H_    0.161581 0.042487 0.178061 0.234994
H48   H     H_    0.229902 0.931140 0.257684 0.262026
H49   H     H_    0.101228 0.015983 0.301203 0.246569
H50   H     H_    0.283751 0.099849 0.390033 0.205108
H51   H     H_    0.229528 0.209811 0.308166 0.213905
C59   C     C_3   0.717877 0.897506 0.702925 -0.402622
C60   C     C_3   0.794881 0.002898 0.753915 -0.838595
H52   H     H_    0.745293 0.089356 0.749404 0.264266
H53   H     H_    0.816649 0.986021 0.835097 0.243336
H54   H     H_    0.881766 0.012488 0.713770 0.249382
H55   H     H_    0.765969 0.811253 0.707705 0.218711
H56   H     H_    0.709677 0.913311 0.620289 0.207606

loop_
_geom_bond_atom_site_label_1
_geom_bond_atom_site_label_2
_ccdc_geom_bond_type
C52   H30   S    
C27   C29   S    
C46   H16   S    
C9    C57   S    
C23   O7    A    
C49   H29   S    
C24   O8    A    
C39   C41   A    
C55   H44   S    
C49   C50   S    
C3    C43   A    
C35   C37   A    
C10   C59   S    
C45   H18   S    
C37   H5    S    
C50   H26   S    
C38   H6    S    
C20   C25   A    
O10   H46   S    
C5    C36   S    
Cu1   N2    S    
C6    C35   S    
C15   C17   A    
C23   O5    A    
C19   C26   A    
C58   H47   S    
C54   H35   S    
Cu2   O7    S    
C27   N1    T    
C47   H23   S    
C18   H12   S    
C7    C17   A    
Cu1   O5    S    
C60   H54   S    
C1    O3    A    
C56   H40   S    
C31   C33   A    
C16   C55   S    
C41   C45   S    
C40   C42   A    
C53   H38   S    
C1    C22   S    
C52   H31   S    
C56   H41   S    
C3    C24   S    
C31   H3    S    
C46   H17   S    
C1    O1    A    
C7    H13   S    
C2    O2    A    
C51   H33   S    
C55   H43   S    
C53   H39   S    
Cu2   N1    S    
C51   H34   S    
Cu2   O3    S    
C4    C6    A    
C48   H21   S    
C4    C23   S    
C50   H25   S    
C4    C44   A    
C11   C26   S    
C3    C5    A    
C34   O10   S    
Cu1   Cu2   S    
Cu1   O1    S    
C54   H37   S    
C8    C18   A    
Cu2   O2    S    
C58   H49   S    
C32   C34   A    
C57   H50   S    
Cu2   O6    S    
C29   C30   T    
C44   H10   S    
C53   C54   S    
C14   C51   S    
C2    C21   S    
C54   H36   S    
C59   H56   S    
C16   C18   A    
C55   C56   S    
C9    C11   A    
C32   H4    S    
C20   H2    S    
C10   C12   A    
C43   H9    S    
C5    C44   A    
C12   C14   A    
C42   C47   S    
C52   H32   S    
C40   H8    S    
C6    C43   A    
C13   C15   A    
C60   H52   S    
C56   H42   S    
C14   C16   A    
C20   C22   A    
C45   H19   S    
O9    H45   S    
C7    C9    A    
C21   C25   A    
C31   C41   A    
C19   C21   A    
Cu1   O8    S    
C47   C48   S    
C15   C53   S    
C46   H15   S    
C2    O4    A    
C50   H27   S    
C48   H22   S    
C49   H28   S    
C33   O9    S    
C12   C25   S    
C28   C30   S    
C57   H51   S    
C45   C46   S    
C37   C39   A    
C57   C58   S    
C8    H14   S    
C38   C40   A    
C11   C13   A    
C39   H7    S    
C36   C38   A    
C51   C52   S    
C33   C35   A    
C59   H55   S    
C34   C36   A    
C58   H48   S    
C24   O6    A    
C48   H20   S    
C47   H24   S    
C8    C10   A    
C22   C26   A    
C19   H1    S    
C13   C49   S    
Cu1   O4    S    
C60   H53   S    
C32   C42   A    
C17   H11   S    
C59   C60   S    
C28   N2    T    
