data_mof_unit_17949.cif
_audit_creation_date              2012-12-11T16:37:11-0500
_audit_creation_method            fapswitch 2.2
_symmetry_space_group_name_H-M    P1
_symmetry_Int_Tables_number       1
_space_group_crystal_system       triclinic
_cell_length_a                    19.006094
_cell_length_b                    18.903542
_cell_length_c                    20.539166
_cell_angle_alpha                 107.942328
_cell_angle_beta                  106.773366
_cell_angle_gamma                 110.256423
_cell_volume                      5905.27739583

loop_
_atom_site_label
_atom_site_type_symbol
_atom_type_description
_atom_site_fract_x
_atom_site_fract_y
_atom_site_fract_z
_atom_type_partial_charge
C1    C     C_R   0.084586 0.085646 0.353857 -0.154177
C2    C     C_R   0.238651 0.071043 0.497704 0.044963
C3    C     C_R   0.844227 0.762958 0.067101 -0.095128
C4    C     C_R   0.849294 0.839002 0.111324 -0.126964
C5    C     C_R   0.850002 0.855156 0.182736 -0.153431
C6    C     C_R   0.623222 0.606660 0.236866 0.117482
C7    C     C_R   0.585851 0.601107 0.286140 -0.142964
C8    C     C_R   0.594460 0.552755 0.324489 -0.074752
C9    C     C_R   0.638861 0.508490 0.312565 -0.118050
C10   C     C_R   0.675588 0.513383 0.262993 -0.129883
C11   C     C_R   0.668607 0.563028 0.225824 -0.123769
C12   C     C_R   0.025838 0.871149 0.028937 0.139276
C13   C     C_R   0.151115 0.222865 0.710031 -0.065338
C14   C     C_R   0.964575 0.871739 0.971460 -0.165265
C15   C     C_R   0.908809 0.798019 0.902877 -0.105508
C16   C     C_R   0.913791 0.723402 0.891369 -0.101390
C17   C     C_R   0.974232 0.722281 0.948609 -0.132860
C18   C     C_R   0.029850 0.795766 0.017426 -0.156323
C19   C     C_R   0.851392 0.150478 0.619125 0.137043
C20   C     C_R   0.811125 0.198812 0.608126 -0.153937
C21   C     C_R   0.838024 0.277803 0.666938 -0.013180
C22   C     C_R   0.905707 0.309701 0.737032 -0.068954
C23   C     C_R   0.946731 0.262746 0.748286 -0.130528
C24   C     C_R   0.757455 0.928281 0.491183 0.676752
C25   C     C_R   0.919873 0.183661 0.689616 -0.141123
C26   C     C_R   0.014896 0.771823 0.444918 0.026555
C27   C     C_R   0.225076 0.274569 0.712540 0.093355
C28   C     C_R   0.971227 0.721950 0.471690 -0.019943
C29   C     C_R   0.240975 0.000611 0.452970 -0.028404
C30   C     C_R   0.024059 0.980579 0.725903 0.161930
C31   C     C_R   0.880904 0.375547 0.461085 -0.180423
C32   C     C_R   0.909266 0.326288 0.487203 0.669747
C33   C     C_R   0.747200 0.997458 0.521847 -0.144400
C34   C     C_R   0.939152 0.278994 0.446438 -0.064784
C35   C     C_R   0.935951 0.278152 0.377152 -0.247477
C36   C     C_R   0.910932 0.330046 0.352534 -0.178157
C37   C     C_R   0.833011 0.806948 0.279783 0.014805
C38   C     C_R   0.887553 0.382014 0.396313 -0.026856
C39   C     C_R   0.987789 0.523488 0.429107 -0.180683
C40   C     C_R   0.009592 0.608332 0.456328 -0.157515
C41   C     C_R   0.947427 0.632728 0.446517 0.155426
C42   C     C_R   0.862910 0.571584 0.408878 -0.172220
C43   C     C_R   0.840776 0.486109 0.382440 -0.181220
C44   C     C_R   0.752463 0.775496 0.274714 -0.029776
C45   C     C_R   0.903556 0.462262 0.394457 0.162828
C46   C     C_R   0.547535 0.959657 0.378001 0.004005
C47   C     C_R   0.622044 0.958393 0.410955 -0.198054
C48   C     C_R   0.668037 0.996808 0.490634 0.180111
C49   C     C_R   0.955511 0.201865 0.525731 -0.060119
C50   C     C_R   0.640722 0.037779 0.538291 -0.177488
C51   C     C_R   0.568771 0.042583 0.506461 -0.186505
C52   C     C_R   0.521584 0.003081 0.426844 0.041044
C53   C     C_R   0.425591 0.062521 0.409092 -0.200531
C54   C     C_R   0.357065 0.063591 0.419915 -0.147743
C55   C     C_R   0.975661 0.232853 0.477368 0.090567
C56   C     C_R   0.302810 0.995444 0.425325 0.145281
C57   C     C_R   0.309654 0.920972 0.406715 -0.184119
C58   C     C_R   0.376008 0.918663 0.392883 -0.141388
C59   C     C_R   0.437358 0.991785 0.400285 0.123877
C60   C     C_R   0.280122 0.365568 0.764846 0.063033
C61   C     C_R   0.760818 0.798766 0.347481 -0.148049
C62   C     C_R   0.253376 0.412210 0.810061 -0.339204
C63   C     C_R   0.309427 0.494821 0.866668 0.760888
C64   C     C_R   0.393346 0.531603 0.878919 0.049900
C65   C     C_R   0.417125 0.488898 0.828036 -0.270844
C66   C     C_R   0.227317 0.229924 0.646382 -0.139944
C67   C     C_R   0.361224 0.406070 0.771753 -0.173196
C68   C     C_R   0.579293 0.723755 0.092577 -0.183617
C69   C     C_R   0.654616 0.767077 0.158601 -0.165548
C70   C     C_R   0.518610 0.643775 0.075591 0.219945
C71   C     C_R   0.671594 0.729805 0.206540 0.089950
C72   C     C_R   0.608661 0.651599 0.191447 -0.000537
C73   C     C_R   0.032965 0.208965 0.462400 -0.148271
C74   C     C_R   0.532124 0.610497 0.127005 -0.252268
C75   C     C_R   0.099898 0.020578 0.232202 0.138216
C76   C     C_R   0.064096 0.946299 0.164424 -0.256270
C77   C     C_R   0.932694 0.762432 0.503941 -0.152621
C78   C     C_R   0.081236 0.947668 0.103265 0.011381
C79   C     C_R   0.141397 0.024411 0.111979 0.167527
C80   C     C_R   0.180697 0.097674 0.181396 -0.193473
C81   C     C_R   0.160019 0.096116 0.241069 -0.182431
C82   C     C_R   0.175624 0.045017 0.926850 -0.329250
C83   C     C_R   0.141707 0.047014 0.857944 0.697817
C84   C     C_R   0.140505 0.970452 0.933295 0.088766
C85   C     C_R   0.825426 0.068064 0.556022 -0.108048
C86   C     C_R   0.069227 0.975128 0.795150 -0.293823
C87   C     C_R   0.039981 0.898475 0.800659 0.679776
C88   C     C_R   0.166476 0.932107 0.430178 -0.158127
C89   C     C_R   0.077699 0.896270 0.868462 -0.329022
C90   C     C_R   0.023878 0.946489 0.294299 -0.122926
C91   C     C_R   0.068653 0.018408 0.289816 0.049494
C92   C     C_R   0.306787 0.158838 0.538319 0.098196
C93   C     C_R   0.376817 0.183223 0.604304 -0.131245
C94   C     C_R   0.443496 0.265644 0.642420 -0.130403
C95   C     C_R   0.441018 0.323867 0.614452 -0.107912
C96   C     C_R   0.371979 0.299635 0.548176 -0.116204
C97   C     C_R   0.305094 0.217315 0.510065 -0.206051
C98   C     C_R   0.039940 0.740388 0.385300 0.123549
C99   C     C_R   0.035299 0.054082 0.718368 -0.124625
C100  C     C_R   0.114258 0.734672 0.403558 -0.184278
C101  C     C_R   0.135765 0.702249 0.345772 -0.125432
C102  C     C_R   0.083875 0.676518 0.269840 -0.078634
C103  C     C_R   0.010107 0.682572 0.251565 -0.128998
C104  C     C_R   0.988171 0.714135 0.309237 -0.156267
C105  C     C_R   0.857572 0.430469 0.509244 0.235316
C106  C     C_R   0.919828 0.506908 0.573590 -0.075116
C107  C     C_R   0.897570 0.560023 0.617439 -0.119245
C108  C     C_R   0.813226 0.536941 0.597484 -0.079600
C109  C     C_R   0.751011 0.460652 0.533695 -0.140783
C110  C     C_R   0.967213 0.913473 0.653621 -0.072056
C111  C     C_R   0.773024 0.407408 0.489644 -0.168076
C112  C     C_R   0.497789 0.914110 0.293621 0.121554
C113  C     C_R   0.482624 0.831264 0.252360 -0.166615
C114  C     C_R   0.436861 0.788689 0.172905 -0.091963
C115  C     C_R   0.405982 0.828298 0.133854 -0.080378
C116  C     C_R   0.420961 0.910643 0.174193 -0.117761
C117  C     C_R   0.466837 0.953563 0.253669 -0.135652
C118  C     C_R   0.847634 0.796170 0.211459 0.117679
C119  C     C_R   0.837885 0.718043 0.164604 -0.169859
C120  C     C_R   0.838294 0.702425 0.093636 -0.113168
F1    F     F_    0.915435 0.332431 0.556485 -0.736722
F2    F     F_    0.702996 0.847950 0.471587 -0.730848
F3    F     F_    0.283911 0.536531 0.913335 -0.706174
F4    F     F_    0.179341 0.120178 0.854412 -0.711590
F5    F     F_    0.971201 0.826598 0.743468 -0.730470
H1    H     H_    0.125345 0.151606 0.373248 0.081477
H2    H     H_    0.075027 0.654953 0.487890 0.115771
H3    H     H_    0.814727 0.590433 0.401649 0.136078
H4    H     H_    0.775754 0.439374 0.357990 0.114552
H5    H     H_    0.644791 0.927899 0.374387 0.116510
H6    H     H_    0.675297 0.066405 0.599779 0.134559
H7    H     H_    0.546984 0.073079 0.544065 0.137629
H8    H     H_    0.473128 0.119234 0.414613 0.120322
H9    H     H_    0.349779 0.119225 0.427924 0.133139
H10   H     H_    0.268171 0.867006 0.409374 0.125893
H11   H     H_    0.385421 0.864042 0.386849 0.122576
H12   H     H_    0.883096 0.734549 0.518463 0.126278
H13   H     H_    0.699615 0.829538 0.171944 0.128322
H14   H     H_    0.569009 0.751757 0.054395 0.133823
H15   H     H_    0.481508 0.516594 0.836920 0.155259
H16   H     H_    0.383371 0.372209 0.737167 0.142490
H17   H     H_    0.485122 0.548515 0.113275 0.145717
H18   H     H_    0.910147 0.205856 0.544495 0.176423
H19   H     H_    0.190197 0.384299 0.803917 0.158747
H20   H     H_    0.226431 0.102585 0.976283 0.179230
H21   H     H_    0.224968 0.157091 0.188040 0.129611
H22   H     H_    0.189558 0.154403 0.293046 0.111328
H23   H     H_    0.140979 0.871496 0.382583 0.136894
H24   H     H_    0.051552 0.838113 0.872799 0.192129
H25   H     H_    0.017191 0.887573 0.156082 0.142498
H26   H     H_    0.710482 0.782085 0.363170 0.191928
H27   H     H_    0.061864 0.222243 0.426404 0.102804
H28   H     H_    0.014341 0.883827 0.262579 0.111833
H29   H     H_    0.267143 0.258499 0.623875 0.130781
H30   H     H_    0.379637 0.138463 0.626213 0.116619
H31   H     H_    0.497145 0.284333 0.693547 0.114003
H32   H     H_    0.492686 0.387630 0.643976 0.106090
H33   H     H_    0.370406 0.344522 0.526171 0.113170
H34   H     H_    0.074134 0.118547 0.762192 0.177239
H35   H     H_    0.253265 0.199068 0.458242 0.110412
H36   H     H_    0.156107 0.756644 0.462362 0.111661
H37   H     H_    0.193138 0.698035 0.359968 0.112651
H38   H     H_    0.100860 0.652000 0.225230 0.107148
H39   H     H_    0.969855 0.662426 0.192761 0.113870
H40   H     H_    0.930783 0.717729 0.295456 0.111497
H41   H     H_    0.985324 0.525628 0.589071 0.115868
H42   H     H_    0.945668 0.619179 0.666732 0.146176
H43   H     H_    0.796097 0.578185 0.631416 0.124287
H44   H     H_    0.685738 0.442917 0.518244 0.113851
H45   H     H_    0.945747 0.847275 0.636842 0.179528
H46   H     H_    0.724423 0.348748 0.440000 0.107074
H47   H     H_    0.505653 0.799325 0.281678 0.126972
H48   H     H_    0.425232 0.724911 0.141620 0.135797
H49   H     H_    0.370591 0.795246 0.072331 0.129202
H50   H     H_    0.397341 0.941422 0.143838 0.118069
H51   H     H_    0.479052 0.017846 0.283835 0.107698
H52   H     H_    0.826669 0.667808 0.181339 0.100426
H53   H     H_    0.831777 0.642443 0.058321 0.108467
H54   H     H_    0.843479 0.750349 0.011776 0.128015
H55   H     H_    0.852442 0.885321 0.090198 0.118891
H56   H     H_    0.122676 0.241668 0.746037 0.086551
H57   H     H_    0.852018 0.913565 0.215683 0.115196
H58   H     H_    0.549867 0.633787 0.294426 0.124692
H59   H     H_    0.565876 0.548765 0.362709 0.113769
H60   H     H_    0.644791 0.470396 0.341685 0.105386
H61   H     H_    0.709358 0.478586 0.253200 0.119327
H62   H     H_    0.696617 0.565764 0.187008 0.106559
H63   H     H_    0.959732 0.929026 0.980060 0.120497
H64   H     H_    0.861836 0.798767 0.858643 0.135790
H65   H     H_    0.870722 0.666440 0.838195 0.114732
H66   H     H_    0.977689 0.664342 0.939806 0.120065
H67   H     H_    0.957127 0.241060 0.344193 0.146413
H68   H     H_    0.075791 0.793978 0.061757 0.119495
H69   H     H_    0.761192 0.177109 0.553143 0.130833
H70   H     H_    0.807123 0.314810 0.657756 0.113846
H71   H     H_    0.926746 0.371048 0.782413 0.107100
H72   H     H_    0.999517 0.287691 0.802456 0.123380
H73   H     H_    0.952284 0.148406 0.699558 0.115058
H74   H     H_    0.917583 0.335908 0.303525 0.138438
H75   H     H_    0.036967 0.506045 0.441590 0.128178
N1    N     N_R   0.051550 0.054780 0.395070 -0.039493
N2    N     N_2   0.448065 0.589317 0.003994 -0.046908
N3    N     N_2   0.152298 0.032979 0.048950 -0.086566
N4    N     N_R   0.835860 0.954800 0.499920 -0.111436
N5    N     N_2   0.152827 0.971037 0.004700 -0.059976
N6    N     N_R   0.889940 0.849160 0.355180 -0.067346
N7    N     N_R   0.997480 0.160420 0.539810 -0.056677
N8    N     N_R   0.842280 0.845520 0.395070 -0.047630
N9    N     N_R   0.045130 0.164060 0.499920 -0.044314
N10   N     N_R   0.878630 0.041580 0.539810 -0.095222
N11   N     N_R   0.008780 0.968000 0.355180 -0.047035
N12   N     N_R   0.954870 0.835940 0.500080 -0.047478
N13   N     N_R   0.157720 0.154480 0.604930 -0.042368
N14   N     N_R   0.121370 0.958420 0.460190 -0.046257
N15   N     N_R   0.991220 0.032000 0.644820 -0.068878
N16   N     N_R   0.948450 0.945220 0.604930 -0.057957
N17   N     N_R   0.164140 0.045200 0.500080 -0.053294
N18   N     N_R   0.110060 0.150840 0.644820 -0.046909
N19   N     N_R   0.002520 0.839580 0.460190 -0.059485
N20   N     N_2   0.457829 0.599896 0.949593 -0.074682
Ni1   Ni    Ni4+2 0.103690 0.103690 0.500000 0.211484
Ni2   Ni    Ni4+2 0.896310 0.896310 0.500000 0.250078
Ni3   Ni    Ni4+2 0.005600 0.904650 0.408510 0.204862
Ni4   Ni    Ni4+2 0.994400 0.095350 0.591490 0.205788

loop_
_geom_bond_atom_site_label_1
_geom_bond_atom_site_label_2
_ccdc_geom_bond_type
C70   N2    S    
C96   H33   S    
C39   H75   S    
C102  H38   S    
C93   C94   A    
C93   H30   S    
C46   C112  S    
N9    Ni1   S    
C37   N6    A    
C95   C96   A    
C36   H74   S    
N1    Ni1   S    
C75   C76   A    
C1    N1    A    
N15   Ni4   S    
C114  C115  A    
C53   C59   A    
C7    C8    A    
N12   Ni2   S    
C53   C54   A    
C116  C117  A    
C6    C72   S    
N3    N5    D    
C103  H39   S    
C35   H67   S    
C88   N14   A    
C30   C110  A    
C2    C29   A    
C11   H62   S    
C106  H41   S    
C73   N9    A    
C101  H37   S    
C77   H12   S    
C115  H49   S    
C9    H60   S    
C27   C60   S    
C109  C111  A    
C112  C117  A    
N6    N8    A    
C106  C107  A    
N8    Ni2   S    
C115  C116  A    
C54   H9    S    
C46   C52   A    
C28   C41   S    
C108  C109  A    
C44   C71   S    
C60   C62   A    
C34   C35   A    
C41   C42   A    
N2    N20   D    
C69   C71   A    
C120  H53   S    
C118  C119  A    
C100  C101  A    
C29   C88   A    
C3    H54   S    
C25   H73   S    
C77   N12   A    
C104  H40   S    
C65   H15   S    
N13   Ni1   S    
C84   N5    S    
C114  H48   S    
C37   C118  S    
C35   C36   A    
C60   C67   A    
C16   C17   A    
C65   C67   A    
C12   C78   S    
C70   C74   A    
C2    N17   A    
C107  C108  A    
C100  H36   S    
C13   N18   A    
C30   C86   S    
C9    C10   A    
C116  H50   S    
C75   C91   S    
C39   C45   A    
C8    H59   S    
C89   H24   S    
C108  H43   S    
C34   C55   S    
C1    C91   A    
C95   H32   S    
C21   C22   A    
C85   N10   A    
C18   H68   S    
C31   C105  S    
C22   H71   S    
C94   C95   A    
C4    H55   S    
C51   H7    S    
C20   H69   S    
C112  C113  A    
C109  H44   S    
C92   C97   A    
C50   C51   A    
C113  H47   S    
C107  H42   S    
C22   C23   A    
N17   Ni1   S    
C105  C111  A    
C54   C56   A    
N10   Ni4   S    
C64   N20   S    
C47   H5    S    
C51   C52   A    
C101  C102  A    
C49   N7    A    
C43   H4    S    
C53   H8    S    
C1    H1    S    
C72   C74   A    
C10   C11   A    
C62   H19   S    
C6    C11   A    
C66   H29   S    
C78   C79   A    
C68   C69   A    
C81   H22   S    
C58   C59   A    
C49   C55   A    
C40   H2    S    
C30   C99   A    
C17   H66   S    
C79   C80   A    
C32   C34   A    
C110  N16   A    
N15   N16   A    
C97   H35   S    
C62   C63   A    
C52   C59   S    
C14   H63   S    
C47   C48   A    
C76   H25   S    
N6    Ni3   S    
C119  C120  A    
N11   Ni3   S    
C96   C97   A    
C24   F2    S    
C17   C18   A    
C8    C9    A    
C21   H70   S    
C90   H28   S    
C2    C92   S    
C28   C77   A    
C61   H26   S    
C16   H65   S    
C26   C98   S    
C110  H45   S    
C117  H51   S    
C94   H31   S    
C40   C41   A    
C29   C56   S    
C12   C14   A    
C82   C84   A    
C87   C89   A    
C73   H27   S    
C38   C45   S    
C83   F4    S    
C99   H34   S    
C84   C89   A    
N4    N10   A    
C3    C4    A    
C67   H16   S    
C5    H57   S    
C39   C40   A    
C82   H20   S    
C113  C114  A    
C69   H13   S    
C56   C57   A    
C46   C47   A    
C24   N4    A    
C33   C85   A    
C87   F5    S    
N4    Ni2   S    
C26   N19   A    
C86   C87   A    
C26   C28   A    
C32   F1    S    
C31   C32   A    
C75   C81   A    
C3    C120  A    
C76   C78   A    
C80   C81   A    
C19   C85   S    
N14   N17   A    
C63   F3    S    
N13   N18   A    
N18   Ni4   S    
C6    C7    A    
N12   N19   A    
C42   H3    S    
C44   C61   A    
C105  C106  A    
C23   H72   S    
C98   C100  A    
C24   C33   A    
C31   C38   A    
C7    H58   S    
C5    C118  A    
C79   N3    S    
C58   H11   S    
C64   C65   A    
C19   C20   A    
C36   C38   A    
C57   H10   S    
C71   C72   A    
C43   C45   A    
C27   C66   A    
C13   H56   S    
C88   H23   S    
C90   C91   A    
C90   N11   A    
C99   N15   A    
C50   H6    S    
C66   N13   A    
C98   C104  A    
C4    C5    A    
C49   H18   S    
C48   C50   A    
C92   C93   A    
C10   H61   S    
C111  H46   S    
C23   C25   A    
C15   H64   S    
C102  C103  A    
C19   C25   A    
N16   Ni2   S    
N14   Ni3   S    
C61   N8    A    
N19   Ni3   S    
C63   C64   A    
C55   C73   A    
C37   C44   A    
N7    Ni4   S    
C83   C86   A    
C20   C21   A    
C74   H17   S    
C68   C70   A    
C82   C83   A    
C42   C43   A    
C12   C18   A    
C103  C104  A    
N7    N9    A    
C33   C48   S    
C14   C15   A    
C13   C27   A    
C68   H14   S    
C80   H21   S    
C119  H52   S    
C57   C58   A    
N1    N11   A    
C15   C16   A    
