data_mof_unit_22232.cif
_audit_creation_date              2012-12-10T17:03:55-0500
_audit_creation_method            fapswitch 2.2
_symmetry_space_group_name_H-M    P1
_symmetry_Int_Tables_number       1
_space_group_crystal_system       triclinic
_cell_length_a                    9.802908
_cell_length_b                    11.032949
_cell_length_c                    15.806148
_cell_angle_alpha                 95.066568
_cell_angle_beta                  78.757962
_cell_angle_gamma                 111.925714
_cell_volume                      1555.20733216

loop_
_atom_site_label
_atom_site_type_symbol
_atom_type_description
_atom_site_fract_x
_atom_site_fract_y
_atom_site_fract_z
_atom_type_partial_charge
C1    C     C_R   0.556270 0.746055 0.507719 0.812388
C2    C     C_R   0.442609 0.253881 0.494060 0.811478
C3    C     C_R   0.328779 0.418695 0.078131 -0.181813
C4    C     C_R   0.671203 0.580870 0.921810 -0.181648
C5    C     C_R   0.217622 0.383521 0.027624 0.155676
C6    C     C_R   0.782329 0.616273 0.972352 0.156686
C7    C     C_2   0.587417 0.886395 0.515779 0.007405
C8    C     C_2   0.408320 0.113230 0.490624 0.008283
C9    C     C_2   0.476084 0.928878 0.515409 -0.162206
C10   C     C_2   0.497991 0.067131 0.520556 -0.171048
C11   C     C_2   0.920630 0.485709 0.495342 0.005982
C12   C     C_2   0.079399 0.514336 0.504622 0.005005
C13   C     C_R   0.408628 0.480657 0.663437 0.816627
C14   C     C_R   0.591392 0.519403 0.336567 0.827521
C15   C     C_R   0.350100 0.457709 0.758010 -0.161302
C16   C     C_R   0.649952 0.542352 0.241987 -0.161175
C17   C     C_R   0.151293 0.408443 0.885708 -0.058440
C18   C     C_R   0.848770 0.591697 0.114282 -0.058547
C19   C     C_R   0.200396 0.439275 0.797084 0.130253
C20   C     C_R   0.799788 0.561180 0.202957 0.132263
C21   C     C_R   0.447613 0.452344 0.811347 -0.123312
C22   C     C_R   0.552325 0.547336 0.188605 -0.125039
C23   C     C_R   0.409838 0.461819 0.901554 0.026127
C24   C     C_R   0.590139 0.537793 0.098404 0.026433
C25   C     C_R   0.256277 0.417470 0.939064 0.017499
C26   C     C_R   0.743705 0.582339 0.060909 0.018804
C27   C     C_R   0.520954 0.508266 0.955114 0.045282
C28   C     C_R   0.479043 0.491253 0.044829 0.044608
Cu1   Cu    Cu3+1 0.362980 0.479380 0.485080 1.016204
Cu2   Cu    Cu3+1 0.637020 0.520620 0.514920 1.014557
H1    H     H_    0.296333 0.386009 0.144086 0.175527
H2    H     H_    0.703634 0.613544 0.855853 0.174917
H3    H     H_    0.591368 0.134001 0.548743 0.198944
H4    H     H_    0.365404 0.859225 0.510030 0.192212
H5    H     H_    0.130266 0.591874 0.548642 0.167904
H6    H     H_    0.869800 0.408230 0.451276 0.175289
H7    H     H_    0.105264 0.374232 0.422095 0.223963
H8    H     H_    0.894694 0.625694 0.577960 0.219637
N1    N     N_2   0.842890 0.551600 0.537350 -0.268541
N2    N     N_2   0.157110 0.448400 0.462650 -0.266335
O1    O     O_R   0.426810 0.668300 0.492040 -0.595091
O2    O     O_R   0.573190 0.331700 0.507960 -0.594656
O3    O     O_R   0.658240 0.703130 0.517240 -0.537745
O4    O     O_R   0.341760 0.296870 0.482760 -0.536839
O5    O     O_R   0.319390 0.472820 0.610170 -0.546903
O6    O     O_R   0.680610 0.527180 0.389830 -0.544274
O7    O     O_R   0.550820 0.507640 0.635370 -0.569778
O8    O     O_R   0.449180 0.492360 0.364630 -0.567070
I1    I     I_    0.004780 0.259706 0.092639 -0.283350
I2    I     I_    0.994973 0.740705 0.907502 -0.292420
C29   C     C_1   0.432358 0.594390 0.223545 0.312971
N3    N     N_1   0.337929 0.633201 0.251407 -0.200948
C30   C     C_1   0.567496 0.405209 0.776334 0.308023
N4    N     N_1   0.661863 0.366347 0.748409 -0.211594
I3    I     I_    0.961324 0.550553 0.273534 -0.283904
I4    I     I_    0.039410 0.451408 0.726697 -0.298182
C31   C     C_1   0.995004 0.379748 0.920590 0.364065
N5    N     N_1   0.869338 0.356804 0.946980 -0.230321
C32   C     C_1   0.005041 0.620355 0.079353 0.365529
N6    N     N_1   0.130686 0.643258 0.052917 -0.229750
I5    I     I_    0.222822 0.992141 0.432278 -0.249197
I6    I     I_    0.809610 0.014355 0.525934 -0.266634

loop_
_geom_bond_atom_site_label_1
_geom_bond_atom_site_label_2
_ccdc_geom_bond_type
C19   I4    S    
C12   N2    D    
C15   C19   A    
C11   C12   S    
C7    I6    S    
Cu1   Cu2   S    
C14   C16   S    
C23   C27   A    
C21   C30   S    
C9    C10   S    
Cu2   O7    S    
C18   C26   A    
Cu2   O6    S    
C8    I5    S    
C16   C20   A    
C17   C25   A    
C13   C15   S    
C32   N6    T    
C14   O6    A    
C6    C26   A    
C30   N4    T    
C6    I2    S    
C12   H5    S    
C13   O5    A    
C5    I1    S    
C31   N5    T    
C4    H2    S    
C2    O2    A    
C20   I3    S    
C5    C25   A    
C3    H1    S    
Cu1   N2    S    
C1    O1    A    
C3    C28   A    
C17   C19   A    
C24   C26   A    
Cu2   N1    S    
C10   H3    S    
C18   C20   A    
C21   C23   A    
Cu1   O4    S    
C9    H4    S    
C11   N1    D    
C22   C24   A    
Cu2   O3    S    
C4    C6    A    
Cu1   O8    S    
H7    N2    S    
C24   C28   A    
C18   C32   S    
C15   C21   A    
C4    C27   A    
H8    N1    S    
C2    O4    A    
C8    C10   D    
C23   C25   A    
C17   C31   S    
C27   C28   A    
C7    C9    D    
C14   O8    A    
Cu2   O2    S    
C16   C22   A    
Cu1   O1    S    
C1    C7    S    
C13   O7    A    
C1    O3    A    
C2    C8    S    
C29   N3    T    
Cu1   O5    S    
C22   C29   S    
C3    C5    A    
C11   H6    S    
