data_mof_unit_51851.cif
_audit_creation_date              2012-12-11T15:55:39-0500
_audit_creation_method            fapswitch 2.2
_symmetry_space_group_name_H-M    P1
_symmetry_Int_Tables_number       1
_space_group_crystal_system       triclinic
_cell_length_a                    6.973254
_cell_length_b                    14.526987
_cell_length_c                    16.118369
_cell_angle_alpha                 90.084104
_cell_angle_beta                  90.100737
_cell_angle_gamma                 90.077254
_cell_volume                      1632.79097412

loop_
_atom_site_label
_atom_site_type_symbol
_atom_type_description
_atom_site_fract_x
_atom_site_fract_y
_atom_site_fract_z
_atom_type_partial_charge
O1    O     O_R   0.505680 0.583900 0.413320 -0.542324
O2    O     O_R   0.176010 0.594950 0.586080 -0.545777
O3    O     O_R   0.005680 0.416100 0.586680 -0.531867
C1    C     C_R   0.345292 0.618217 0.614022 0.757163
O4    O     O_R   0.175960 0.594930 0.413930 -0.553804
O5    O     O_R   0.005640 0.416080 0.413300 -0.543158
C2    C     C_R   0.344933 0.616939 0.384952 0.685936
O6    O     O_R   0.505720 0.583920 0.586700 -0.536862
O7    O     O_3   0.339190 0.441320 0.500000 -0.358453
V1    V     V_3+5 0.064350 0.510890 0.500000 1.430887
O8    O     O_R   0.675920 0.405050 0.413920 -0.528112
C3    C     C_R   0.844571 0.385227 0.383446 0.674074
O9    O     O_R   0.675960 0.405070 0.586070 -0.532033
C4    C     C_R   0.844974 0.383786 0.615343 0.701885
V2    V     V_3+5 0.564340 0.489110 0.500000 1.476112
O10   O     O_3   0.839370 0.558680 0.500000 -0.385626
C5    C     C_R   0.025657 0.267024 0.700318 0.027274
C6    C     C_R   0.855966 0.314579 0.683011 -0.116441
C7    C     C_R   0.702120 0.299858 0.737010 -0.194237
H1    H     H_    0.579903 0.343638 0.733042 0.186554
C8    C     C_R   0.713516 0.235539 0.801900 -0.192882
H2    H     H_    0.598893 0.230155 0.845280 0.193871
C9    C     C_R   0.879528 0.184251 0.816147 -0.113271
C10   C     C_R   0.037121 0.203227 0.765564 0.029105
C11   C     C_3   0.228141 0.238156 0.792657 -0.251345
C12   C     C_3   0.216406 0.307547 0.721391 -0.245799
H3    H     H_    0.336548 0.183430 0.782847 0.143238
H4    H     H_    0.319020 0.293595 0.670233 0.149647
C13   C     C_R   0.015967 0.263368 0.185331 -0.071293
C14   C     C_R   0.002985 0.329547 0.250398 -0.036784
C15   C     C_R   0.856391 0.321044 0.311225 -0.127499
C16   C     C_R   0.721489 0.249820 0.303611 -0.092631
H5    H     H_    0.607760 0.242545 0.348836 0.124003
C17   C     C_R   0.733143 0.185826 0.239101 -0.079892
H6    H     H_    0.627564 0.131131 0.236227 0.122269
C18   C     C_R   0.880625 0.190446 0.180088 -0.134390
C19   C     C_R   0.189095 0.724616 0.717337 -0.153120
C20   C     C_R   0.200034 0.787844 0.782864 -0.150761
C21   C     C_R   0.378635 0.814602 0.816060 -0.043259
C22   C     C_R   0.545969 0.776278 0.781839 -0.155094
H7    H     H_    0.686000 0.795156 0.805549 0.115951
C23   C     C_R   0.535025 0.713065 0.716302 -0.136074
H8    H     H_    0.667132 0.685025 0.691794 0.115805
C24   C     C_R   0.356440 0.686401 0.683050 -0.029887
C25   C     C_R   0.188927 0.723170 0.281190 -0.160232
H9    H     H_    0.048811 0.703906 0.304287 0.112550
C26   C     C_R   0.200158 0.786773 0.216059 -0.147002
C27   C     C_R   0.378899 0.814068 0.183574 -0.043601
C28   C     C_R   0.546048 0.775717 0.218093 -0.155714
C29   C     C_R   0.534816 0.712133 0.283239 -0.137733
H10   H     H_    0.666902 0.684223 0.308017 0.114698
C30   C     C_R   0.356101 0.685053 0.315881 -0.035946
O11   O     O_R   0.229200 0.915950 0.913350 -0.546388
O12   O     O_R   0.559090 0.905000 0.086080 -0.548278
O13   O     O_R   0.729280 0.083880 0.086680 -0.523436
C31   C     C_R   0.390099 0.882670 0.114863 0.672835
O14   O     O_R   0.558920 0.904980 0.913920 -0.547869
O15   O     O_R   0.729110 0.083860 0.913300 -0.533484
C32   C     C_R   0.389794 0.882807 0.885086 0.672572
O16   O     O_R   0.229360 0.915970 0.086730 -0.545091
O17   O     O_3   0.395680 0.058580 0.000030 -0.329767
V3    V     V_3+5 0.670570 0.989070 0.999990 1.453413
O18   O     O_R   0.058820 0.094950 0.913870 -0.529657
C33   C     C_R   0.890036 0.117254 0.885515 0.693055
O19   O     O_R   0.058990 0.094970 0.086020 -0.537052
C34   C     C_R   0.890200 0.118673 0.113600 0.675401
V4    V     V_3+5 0.170560 0.010930 0.999930 1.489497
O20   O     O_3   0.895590 0.941310 0.999960 -0.384083
H11   H     H_    0.049068 0.705659 0.693674 0.113413
H12   H     H_    0.067909 0.815829 0.807404 0.116997
H13   H     H_    0.068064 0.814641 0.191257 0.116862
H14   H     H_    0.686163 0.794904 0.194945 0.114959
C35   C     C_2   0.224139 0.278238 0.879711 0.410176
H15   H     H_    0.119540 0.330317 0.896304 0.029478
O21   O     O_2   0.332971 0.249982 0.933150 -0.521019
C36   C     C_2   0.206129 0.407861 0.747031 0.398134
H16   H     H_    0.086294 0.433132 0.783407 0.042801
O22   O     O_2   0.332143 0.461475 0.726966 -0.549069
C37   C     C_2   0.155146 0.275879 0.117157 0.526032
H17   H     H_    0.102322 0.285847 0.054585 0.020840
O23   O     O_2   0.327356 0.270047 0.129741 -0.478867
C38   C     C_2   0.127706 0.412941 0.250674 0.414344
H18   H     H_    0.066401 0.479574 0.265606 0.018802
O24   O     O_2   0.299700 0.407949 0.237696 -0.503671

loop_
_geom_bond_atom_site_label_1
_geom_bond_atom_site_label_2
_ccdc_geom_bond_type
O15   V3    S    
C20   H12   S    
C19   H11   S    
C35   H15   S    
C4    C6    S    
C7    H1    S    
C1    O6    A    
O11   C32   A    
O14   V3    S    
C25   H9    S    
C13   C18   A    
C19   C20   A    
C5    C12   S    
C7    C8    A    
C36   O22   D    
C2    C30   S    
C17   H6    S    
O5    C3    A    
C14   C15   A    
C18   C34   S    
O14   C32   A    
V2    O10   S    
O13   V3    S    
C6    C7    A    
O8    V2    S    
C15   C16   A    
O16   V4    S    
O19   V4    S    
C28   H14   S    
C12   C36   S    
C9    C10   A    
O1    V2    S    
O7    V1    S    
C17   C18   A    
C22   C23   A    
O9    C4    A    
C35   O21   D    
C23   C24   A    
C29   H10   S    
O12   C31   A    
C25   C26   A    
O15   C33   A    
O18   V4    S    
C5    C10   A    
V4    O20   S    
C36   H16   S    
C21   C22   A    
C37   O23   D    
C1    C24   S    
C25   C30   A    
C11   C12   S    
C31   O16   A    
C16   C17   A    
C14   C38   S    
O2    C1    A    
C13   C14   A    
O17   V4    S    
C29   C30   A    
C26   C27   A    
C13   C37   S    
C21   C32   S    
C5    C6    A    
C10   C11   S    
C26   H13   S    
O3    C4    A    
C9    C33   S    
C38   H18   S    
O6    V2    S    
C38   O24   D    
O9    V2    S    
C3    C15   S    
C37   H17   S    
C23   H8    S    
O2    V1    S    
O13   C34   A    
O4    C2    A    
C27   C31   S    
C22   H7    S    
O1    C2    A    
O5    V1    S    
O8    C3    A    
C11   H3    S    
O12   V3    S    
C12   H4    S    
V3    O20   S    
C16   H5    S    
C19   C24   A    
C8    C9    A    
O7    V2    S    
O4    V1    S    
O3    V1    S    
V1    O10   S    
C20   C21   A    
C27   C28   A    
C11   C35   S    
O19   C34   A    
O17   V3    S    
O11   V4    S    
O18   C33   A    
C28   C29   A    
C8    H2    S    
