data_mof_unit_65851.cif
_audit_creation_date              2012-12-10T18:14:35-0500
_audit_creation_method            fapswitch 2.2
_symmetry_space_group_name_H-M    P1
_symmetry_Int_Tables_number       1
_space_group_crystal_system       triclinic
_cell_length_a                    42.247265
_cell_length_b                    29.205388
_cell_length_c                    30.57552
_cell_angle_alpha                 90.021765
_cell_angle_beta                  136.264018
_cell_angle_gamma                 89.983889
_cell_volume                      26081.0313701

loop_
_atom_site_label
_atom_site_type_symbol
_atom_type_description
_atom_site_fract_x
_atom_site_fract_y
_atom_site_fract_z
_atom_type_partial_charge
C1    C     C_R   0.586687 0.500000 0.587108 0.905559
C2    C     C_1   0.994127 0.999788 0.329079 -0.084668
C3    C     C_3   0.517004 0.544506 0.239146 -0.418293
C4    C     C_3   0.007132 0.951916 0.229139 -0.411788
C5    C     C_3   0.031441 0.035037 0.254074 -0.410225
C6    C     C_1   0.499540 0.499834 0.120275 -0.206134
C7    C     C_1   0.999494 0.000363 0.120261 -0.209118
C8    C     C_3   0.494385 0.498865 0.283107 0.261191
C9    C     C_3   0.992659 0.999865 0.281564 0.343823
C10   C     C_3   0.496567 0.499247 0.201504 0.298104
C11   C     C_3   0.996043 0.000692 0.201011 0.322104
C12   C     C_3   0.365503 0.525228 0.150901 -0.796623
C13   C     C_1   0.498077 0.499842 0.371057 -0.196951
C14   C     C_3   0.395835 0.419218 0.159253 -0.824161
C15   C     C_3   0.938253 0.090979 0.235823 -0.827228
C16   C     C_3   0.890188 0.960318 0.208700 -0.788865
C17   C     C_1   0.997222 0.999918 0.370244 -0.218746
C18   C     C_1   0.637268 0.499999 0.637622 -0.223341
C19   C     C_1   0.137268 0.999999 0.637622 -0.223514
C20   C     C_1   0.679405 0.499999 0.679712 0.002678
C21   C     C_1   0.179405 0.999999 0.679711 0.002513
C22   C     C_1   0.729139 0.499999 0.729396 0.005386
C23   C     C_1   0.229139 0.999999 0.729396 0.005292
C24   C     C_1   0.771275 0.499999 0.771492 0.005318
C25   C     C_R   0.086687 1.000000 0.587109 0.905013
C26   C     C_1   0.271275 0.999999 0.771492 0.005263
C27   C     C_1   0.821009 0.499999 0.821177 0.003620
C28   C     C_1   0.321009 1.000000 0.821176 0.003586
C29   C     C_R   0.500680 0.499980 0.418318 0.951534
C30   C     C_R   0.000856 0.999986 0.418479 0.951701
C31   C     C_1   0.863146 0.499999 0.863266 -0.215213
C32   C     C_1   0.363146 1.000000 0.863265 -0.215235
C33   C     C_1   0.500004 0.500020 0.636057 -0.222394
C34   C     C_1   0.000003 0.000020 0.636057 -0.222422
C35   C     C_1   0.500034 0.500022 0.677265 0.015310
C36   C     C_3   0.446203 0.495090 0.166461 -0.424384
C37   C     C_1   0.000034 0.000022 0.677265 0.015338
C38   C     C_1   0.500070 0.500019 0.726303 0.002828
C39   C     C_1   0.000070 0.000019 0.726303 0.002850
C40   C     C_1   0.500098 0.500015 0.767509 0.002822
C41   C     C_1   0.000098 0.000015 0.767509 0.002842
C42   C     C_1   0.500121 0.500009 0.816534 0.015063
C43   C     C_1   0.000121 0.000009 0.816534 0.015083
C44   C     C_1   0.500121 0.500005 0.857711 -0.221476
C45   C     C_1   0.000120 0.000005 0.857711 -0.221448
C46   C     C_1   0.362679 0.500000 0.362924 -0.222810
C47   C     C_3   0.947674 0.015891 0.167803 -0.496493
C48   C     C_1   0.862680 0.999999 0.362901 -0.222902
C49   C     C_1   0.320544 0.500000 0.320692 0.003515
C50   C     C_1   0.820546 0.999998 0.320667 0.003800
C51   C     C_1   0.270814 0.500000 0.270868 0.005567
C52   C     C_1   0.770815 0.999997 0.270846 0.005616
C53   C     C_R   0.413256 0.500000 0.413631 0.911174
C54   C     C_R   0.913256 1.000000 0.413615 0.911284
C55   C     C_1   0.228680 0.500000 0.228674 0.005274
C56   C     C_1   0.728681 0.999997 0.228658 0.005247
C57   C     C_1   0.178949 0.500000 0.178900 0.003572
C58   C     C_3   0.443722 0.492577 0.215270 0.450277
C59   C     C_1   0.678950 0.999998 0.178892 0.003560
C60   C     C_1   0.136813 0.500000 0.136758 -0.215272
C61   C     C_1   0.636814 0.999999 0.136756 -0.215284
C62   C     C_R   0.500030 0.586641 0.994571 0.907237
C63   C     C_R   0.500030 0.413359 0.994574 0.907963
C64   C     C_R   0.000030 0.086641 0.994573 0.907772
C65   C     C_R   0.000030 0.913359 0.994571 0.907482
C66   C     C_R   0.499952 0.500163 0.075951 0.951895
C67   C     C_R   0.999949 0.999995 0.075959 0.951839
C68   C     C_R   0.500063 0.500000 0.907538 0.892887
C69   C     C_3   0.942273 0.008105 0.212755 0.446290
C70   C     C_R   0.000063 0.000000 0.907538 0.892864
C71   C     C_R   0.000015 0.413717 0.999125 0.897833
C72   C     C_R   0.000015 0.586284 0.999141 0.897865
C73   C     C_R   0.500015 0.913717 0.999125 0.897844
C74   C     C_R   0.500015 0.086284 0.999141 0.897856
C75   C     C_R   0.913727 0.500000 0.913773 0.898018
C76   C     C_R   0.413727 1.000000 0.913773 0.898011
C77   C     C_R   0.086235 0.500000 0.086229 0.898012
C78   C     C_R   0.586235 1.000000 0.086229 0.898015
C79   C     C_1   0.500038 0.637227 0.995402 -0.223970
C80   C     C_1   0.498335 0.499529 0.157229 -0.103977
C81   C     C_1   0.500039 0.362773 0.995419 -0.224225
C82   C     C_1   0.000038 0.137227 0.995405 -0.224071
C83   C     C_1   0.000040 0.862773 0.995416 -0.224067
C84   C     C_R   0.499972 0.500008 0.586142 0.892526
C85   C     C_R   0.999972 0.000008 0.586142 0.892695
C86   C     C_1   0.500039 0.679366 0.996140 0.002795
C87   C     C_1   0.500041 0.320635 0.996168 0.002816
C88   C     C_1   0.000039 0.179365 0.996142 0.002799
C89   C     C_1   0.000042 0.820635 0.996166 0.002852
C90   C     C_1   0.500037 0.729103 0.997016 0.005293
C91   C     C_1   0.998109 0.000630 0.157043 -0.096033
C92   C     C_1   0.500040 0.270898 0.997057 0.005310
C93   C     C_1   0.000037 0.229103 0.997017 0.005265
C94   C     C_1   0.000040 0.770898 0.997055 0.005353
C95   C     C_1   0.000034 0.271241 0.997723 0.005156
C96   C     C_1   0.000037 0.728760 0.997769 0.005252
C97   C     C_1   0.500034 0.771241 0.997722 0.005196
C98   C     C_1   0.500037 0.228760 0.997771 0.005210
C99   C     C_1   0.000028 0.320981 0.998462 0.003604
C100  C     C_1   0.000031 0.679020 0.998512 0.003700
C101  C     C_1   0.500029 0.820981 0.998462 0.003634
C102  C     C_1   0.495871 0.499427 0.330743 -0.109889
C103  C     C_1   0.500031 0.179020 0.998512 0.003673
C104  C     C_1   0.000023 0.363124 0.998924 -0.215254
C105  C     C_1   0.000024 0.636877 0.998967 -0.215183
C106  C     C_1   0.500023 0.863124 0.998924 -0.215232
C107  C     C_1   0.500024 0.136877 0.998967 -0.215206
C108  C     C_3   0.516642 0.543979 0.288827 -0.454463
C109  C     C_3   0.524505 0.458581 0.296793 -0.422357
C110  C     C_3   0.028875 0.035386 0.301481 -0.454970
C111  C     C_3   0.009764 0.952543 0.282009 -0.442967
C112  C     C_3   0.524501 0.458066 0.246617 -0.395916
H1    H     H_    0.552782 0.548846 0.262940 0.185629
H2    H     H_    0.498856 0.574807 0.283884 0.170828
H3    H     H_    0.989282 0.923832 0.275329 0.200518
H4    H     H_    0.022831 0.070564 0.307291 0.184423
H5    H     H_    0.509292 0.425384 0.219534 0.176645
H6    H     H_    0.496704 0.574229 0.206855 0.173778
H7    H     H_    0.980051 0.927524 0.191417 0.179490
H8    H     H_    0.024545 0.070074 0.234399 0.173857
H9    H     H_    0.426807 0.525370 0.134987 0.154845
H10   H     H_    0.430438 0.465372 0.134087 0.176103
H11   H     H_    0.942702 0.052593 0.154411 0.175453
H12   H     H_    0.560406 0.459728 0.270290 0.178067
H13   H     H_    0.920931 0.997590 0.121978 0.148162
H14   H     H_    0.425196 0.562173 0.204529 0.215286
H15   H     H_    0.348936 0.556584 0.147490 0.239171
H16   H     H_    0.353337 0.495976 0.158756 0.263117
H17   H     H_    0.354830 0.520979 0.105630 0.234379
H18   H     H_    0.421421 0.447113 0.242890 0.234205
H19   H     H_    0.379428 0.393965 0.165061 0.240184
H20   H     H_    0.415360 0.399548 0.153903 0.244104
H21   H     H_    0.368447 0.439492 0.115953 0.249297
H22   H     H_    0.884308 0.049787 0.162553 0.230383
H23   H     H_    0.066567 0.025163 0.278512 0.182495
H24   H     H_    0.911534 0.115911 0.219231 0.242203
H25   H     H_    0.954511 0.104275 0.221845 0.233793
H26   H     H_    0.962887 0.088931 0.287905 0.255632
H27   H     H_    0.897037 0.953091 0.148528 0.216403
H28   H     H_    0.881844 0.923531 0.204812 0.238945
H29   H     H_    0.857665 0.979990 0.175310 0.238369
H30   H     H_    0.910590 0.971582 0.257559 0.261249
H31   H     H_    0.040341 0.939623 0.248772 0.178961
H32   H     H_    0.552588 0.546403 0.336726 0.190965
H33   H     H_    0.560315 0.462465 0.344548 0.178853
H34   H     H_    0.063299 0.026279 0.348974 0.178580
H35   H     H_    0.045798 0.946442 0.328442 0.178195
H36   H     H_    0.511774 0.425186 0.296700 0.192670
N1    N     N_2   0.414806 0.529838 0.203221 -0.315791
N2    N     N_2   0.426776 0.448240 0.214887 -0.296756
N3    N     N_2   0.917254 0.046783 0.207349 -0.294441
N4    N     N_2   0.914919 0.966244 0.192599 -0.330286
O1    O     O_R   0.563110 0.535630 0.563620 -0.598040
O2    O     O_R   0.500010 0.063160 0.964010 -0.593440
O3    O     O_R   0.000000 0.436830 0.034310 -0.594506
O4    O     O_R   0.000000 0.563170 0.034310 -0.594468
O5    O     O_R   0.500000 0.936830 0.034310 -0.594473
O6    O     O_R   0.500000 0.063170 0.034310 -0.594453
O7    O     O_R   0.936840 0.500000 0.901700 -0.593537
O8    O     O_R   0.436840 0.000000 0.901700 -0.593561
O9    O     O_R   0.936840 0.500000 0.972000 -0.594430
O10   O     O_R   0.436840 0.000000 0.972000 -0.594409
O11   O     O_R   0.063130 0.500000 0.028000 -0.593572
O12   O     O_R   0.563110 0.464370 0.563620 -0.597766
O13   O     O_R   0.563130 1.000000 0.028000 -0.593610
O14   O     O_R   0.063120 0.500000 0.098300 -0.594321
O15   O     O_R   0.563120 0.000000 0.098300 -0.594287
O16   O     O_R   0.499970 0.535640 0.438200 -0.611981
O17   O     O_R   0.499970 0.464360 0.438200 -0.616189
O18   O     O_R   0.999970 0.035640 0.438200 -0.612897
O19   O     O_R   0.999970 0.964360 0.438200 -0.613801
O20   O     O_R   0.436830 0.535630 0.437320 -0.595817
O21   O     O_R   0.436830 0.464370 0.437320 -0.597384
O22   O     O_R   0.936830 0.035630 0.437320 -0.595616
O23   O     O_R   0.063110 0.035630 0.563620 -0.598292
O24   O     O_R   0.936830 0.964370 0.437320 -0.597026
O25   O     O_R   0.499970 0.535630 0.562740 -0.592207
O26   O     O_R   0.499970 0.464370 0.562740 -0.592044
O27   O     O_R   0.999970 0.035630 0.562740 -0.592118
O28   O     O_R   0.999970 0.964370 0.562740 -0.592018
O29   O     O_R   0.535670 0.563060 0.029670 -0.597071
O30   O     O_R   0.535670 0.436940 0.029670 -0.596830
O31   O     O_R   0.035670 0.063060 0.029670 -0.596967
O32   O     O_R   0.035670 0.936940 0.029670 -0.596974
O33   O     O_R   0.464380 0.563080 0.958370 -0.597315
O34   O     O_R   0.063110 0.964370 0.563620 -0.597890
O35   O     O_R   0.464380 0.436920 0.958370 -0.597159
O36   O     O_R   0.964380 0.063080 0.958370 -0.597129
O37   O     O_R   0.964380 0.936920 0.958370 -0.597270
O38   O     O_R   0.535670 0.500000 0.091080 -0.612927
O39   O     O_R   0.035670 0.000000 0.091080 -0.613062
O40   O     O_R   0.464370 0.500000 0.019780 -0.613665
O41   O     O_R   0.964370 0.000000 0.019780 -0.613119
O42   O     O_R   0.535670 0.500000 0.966540 -0.593164
O43   O     O_R   0.035670 0.000000 0.966540 -0.593165
O44   O     O_R   0.464380 0.500000 0.895240 -0.593190
O45   O     O_R   0.964380 0.000000 0.895240 -0.593202
O46   O     O_R   0.000010 0.436840 0.964010 -0.593425
O47   O     O_R   0.000010 0.563160 0.964010 -0.593412
O48   O     O_R   0.500010 0.936840 0.964010 -0.593443
Zn1   Zn    Zn3+2 0.499970 0.547590 0.500630 0.966749
Zn2   Zn    Zn3+2 0.499990 0.000000 0.953050 0.968321
Zn3   Zn    Zn3+2 0.999980 0.500000 0.046950 0.964902
Zn4   Zn    Zn3+2 0.499980 0.000000 0.046950 0.964993
Zn5   Zn    Zn3+2 0.499970 0.452410 0.500630 0.964266
Zn6   Zn    Zn3+2 0.999970 0.047590 0.500630 0.965372
Zn7   Zn    Zn3+2 0.999970 0.952410 0.500630 0.964743
Zn8   Zn    Zn3+2 0.547630 0.500000 0.040770 0.964661
Zn9   Zn    Zn3+2 0.047630 0.000000 0.040770 0.964598
Zn10  Zn    Zn3+2 0.452420 0.500000 0.945550 0.963801
Zn11  Zn    Zn3+2 0.952420 0.000000 0.945550 0.964100
Zn12  Zn    Zn3+2 0.999990 0.500000 0.953050 0.968427

loop_
_geom_bond_atom_site_label_1
_geom_bond_atom_site_label_2
_ccdc_geom_bond_type
C9    C111  S    
C38   C40   T    
C71   C104  S    
C73   O48   A    
C77   O11   A    
C72   O4    A    
C34   C37   T    
O6    Zn4   S    
C11   C47   S    
C24   C27   S    
C36   H10   S    
C4    H31   S    
C15   N3    S    
C92   C98   T    
O32   Zn9   S    
C39   C41   T    
C12   H15   S    
C14   H20   S    
C48   C54   S    
C46   C49   T    
C78   O15   A    
O34   Zn7   S    
C63   C81   S    
O24   Zn7   S    
C13   C29   S    
C19   C21   T    
C9    C69   S    
C112  H12   S    
C36   C58   S    
O12   Zn5   S    
O8    Zn2   S    
C112  H5    S    
C33   C35   T    
H14   N1    S    
C67   O39   A    
C65   C83   S    
C5    C110  S    
C54   O24   A    
C98   C103  S    
O26   Zn5   S    
C73   O5    A    
H27   N4    S    
C101  C106  T    
O37   Zn11  S    
O16   Zn1   S    
C74   O2    A    
O47   Zn12  S    
C23   C26   T    
C108  H2    S    
C89   C94   S    
C1    C18   S    
C47   C69   S    
C53   O20   A    
C8    C58   S    
C74   C107  S    
C64   O31   A    
C76   O10   A    
C30   O18   A    
C1    O12   A    
C70   O43   A    
C49   C51   S    
C66   O40   A    
H18   N2    S    
C50   C52   S    
C4    H7    S    
C10   C112  S    
O28   Zn7   S    
O46   Zn12  S    
C90   C97   T    
C18   C20   T    
C58   N1    S    
C15   H26   S    
O44   Zn10  S    
C68   O42   A    
C22   C24   T    
C48   C50   T    
C99   C104  T    
O27   Zn6   S    
C7    C91   T    
C93   C95   T    
C63   O30   A    
C87   C92   S    
C2    C17   T    
C17   C30   S    
C41   C43   S    
C16   H28   S    
C42   C44   T    
O3    Zn3   S    
C8    C108  S    
O2    Zn2   S    
C47   H13   S    
O1    Zn1   S    
C14   H19   S    
C83   C89   T    
C60   C77   S    
C59   C61   T    
C12   H17   S    
C74   O6    A    
C5    H8    S    
C53   O21   A    
C69   N3    S    
C62   C79   S    
C28   C32   T    
O29   Zn8   S    
C16   N4    S    
C3    H1    S    
C109  C112  S    
C10   C80   S    
C57   C60   T    
C15   H24   S    
C51   C55   T    
C77   O14   A    
C27   C31   T    
O7    Zn12  S    
C1    O1    A    
O10   Zn4   S    
C34   C85   S    
C16   H30   S    
O13   Zn2   S    
O45   Zn11  S    
C3    H6    S    
C111  H35   S    
C25   O23   A    
C31   C75   S    
O35   Zn10  S    
C61   C78   S    
C85   O27   A    
C71   O3    A    
C14   N2    S    
C100  C105  T    
C68   O44   A    
O5    Zn4   S    
C81   C87   T    
O15   Zn4   S    
C4    C11   S    
C94   C96   T    
C43   C45   T    
O30   Zn8   S    
C64   C82   S    
C64   O36   A    
O39   Zn9   S    
C62   O33   A    
O38   Zn8   S    
C4    C111  S    
C20   C22   S    
C70   O45   A    
C63   O35   A    
C21   C23   S    
C5    C11   S    
C86   C90   S    
C6    C80   T    
C84   O26   A    
O25   Zn1   S    
C44   C68   S    
C109  H36   S    
C72   O47   A    
O40   Zn10  S    
O19   Zn7   S    
C110  H4    S    
C108  H32   S    
C29   O16   A    
C71   O46   A    
C103  C107  T    
C75   O7    A    
C9    C110  S    
C5    H23   S    
C88   C93   S    
C76   O8    A    
C78   O13   A    
C45   C70   S    
O33   Zn10  S    
C69   N4    S    
C12   N1    S    
O9    Zn3   S    
C109  H33   S    
C65   O37   A    
C32   C76   S    
C111  H3    S    
O11   Zn12  S    
O18   Zn6   S    
C47   H11   S    
C12   H16   S    
C14   H21   S    
C3    C108  S    
O31   Zn9   S    
O42   Zn8   S    
C26   C28   S    
C56   C59   S    
C75   O9    A    
C54   O22   A    
C55   C57   S    
C16   H29   S    
C37   C39   S    
C3    C10   S    
C110  H34   S    
C8    C109  S    
C62   O29   A    
O17   Zn5   S    
C2    C9    S    
C73   C106  S    
C52   C56   T    
C85   O28   A    
C82   C88   T    
H22   N3    S    
C96   C100  S    
C46   C53   S    
C40   C42   S    
O36   Zn11  S    
C10   C36   S    
C36   H9    S    
C95   C99   S    
O14   Zn3   S    
O20   Zn1   S    
C19   C25   S    
C33   C84   S    
C30   O19   A    
O41   Zn11  S    
C25   O34   A    
C66   O38   A    
C7    C67   S    
C84   O25   A    
C11   C91   S    
C6    C66   S    
C72   C105  S    
O48   Zn2   S    
O43   Zn9   S    
O22   Zn6   S    
C35   C38   S    
O21   Zn5   S    
O23   Zn6   S    
C29   O17   A    
C13   C102  T    
C67   O41   A    
O4    Zn3   S    
C8    C102  S    
C79   C86   T    
C97   C101  S    
C58   N2    S    
C15   H25   S    
C65   O32   A    
