data_mof_unit_30896.cif
_audit_creation_date              2012-12-10T18:34:27-0500
_audit_creation_method            fapswitch 2.2
_symmetry_space_group_name_H-M    P1
_symmetry_Int_Tables_number       1
_space_group_crystal_system       triclinic
_cell_length_a                    14.971277
_cell_length_b                    15.563255
_cell_length_c                    15.711002
_cell_angle_alpha                 89.468841
_cell_angle_beta                  105.114739
_cell_angle_gamma                 82.212939
_cell_volume                      3497.6543641

loop_
_atom_site_label
_atom_site_type_symbol
_atom_type_description
_atom_site_fract_x
_atom_site_fract_y
_atom_site_fract_z
_atom_type_partial_charge
C1    C     C_R   0.441487 0.661929 0.486652 0.895876
C2    C     C_R   0.558483 0.338216 0.512140 0.896258
C3    C     C_R   0.281510 0.874651 0.465664 0.469807
C4    C     C_R   0.703339 0.131424 0.476106 0.480227
C5    C     C_R   0.311342 0.785172 0.467605 -0.301560
C6    C     C_R   0.678480 0.219196 0.490970 -0.311398
C7    C     C_R   0.467769 0.812073 0.473075 -0.270022
C8    C     C_R   0.533815 0.187544 0.516251 -0.273361
C9    C     C_R   0.439376 0.901340 0.465517 0.036434
C10   C     C_R   0.549664 0.103064 0.489607 0.025334
C11   C     C_R   0.346192 0.933021 0.466441 0.069923
C12   C     C_R   0.637000 0.073944 0.472012 0.071953
C13   C     C_R   0.503811 0.959410 0.463145 0.102565
C14   C     C_R   0.480217 0.047531 0.479117 0.100347
C15   C     C_R   0.386999 0.077818 0.480741 -0.261492
C16   C     C_R   0.590705 0.932036 0.444792 -0.260507
C17   C     C_R   0.320539 0.021948 0.471251 -0.222359
C18   C     C_R   0.655763 0.988386 0.448954 -0.200715
C19   C     C_R   0.839492 0.646674 0.622040 0.402290
C20   C     C_R   0.154948 0.365804 0.365560 0.373971
C21   C     C_R   0.750190 0.620165 0.601475 -0.152285
C22   C     C_R   0.244938 0.389298 0.388063 -0.117593
C23   C     C_R   0.501554 0.499986 0.662259 0.894364
C24   C     C_R   0.498601 0.499722 0.337830 0.900566
C25   C     C_R   0.795142 0.508510 0.512890 -0.069040
C26   C     C_R   0.206812 0.487195 0.492138 -0.078019
C27   C     C_R   0.885112 0.532163 0.527480 -0.075659
C28   C     C_R   0.113572 0.470331 0.470193 -0.065737
C29   C     C_R   0.907162 0.600968 0.584720 0.075412
C30   C     C_R   0.088618 0.407689 0.406258 0.070609
C31   C     C_R   0.953101 0.490217 0.486953 0.121831
C32   C     C_R   0.044893 0.513736 0.508976 0.119313
C33   C     C_R   0.064455 0.581240 0.567425 -0.263300
C34   C     C_R   0.931511 0.427239 0.423401 -0.256045
C35   C     C_R   0.996982 0.624076 0.603649 -0.161618
C36   C     C_R   0.997673 0.387485 0.383735 -0.188795
C37   C     C_3   0.460616 0.576645 0.016701 -0.318784
C38   C     C_3   0.543804 0.418448 0.984797 -0.322626
C39   C     C_3   0.552383 0.560426 0.986945 -0.322151
C40   C     C_3   0.452014 0.434759 0.014615 -0.312112
C41   C     C_1   0.505387 0.499304 0.752243 -0.184126
C42   C     C_1   0.495832 0.498592 0.248205 -0.178069
C43   C     C_3   0.416942 0.513474 0.948600 0.593740
C44   C     C_3   0.587534 0.481662 0.053074 0.582978
C45   C     C_3   0.506895 0.497559 0.919051 0.070296
C46   C     C_3   0.497367 0.497646 0.082316 0.076462
C47   C     C_1   0.507397 0.498425 0.828138 0.001635
C48   C     C_1   0.495330 0.497918 0.172737 0.006566
C49   C     C_R   0.405371 0.754258 0.475368 -0.122631
C50   C     C_R   0.593576 0.246669 0.510522 -0.115689
H1    H     H_    0.594085 0.610380 0.973844 0.152253
H2    H     H_    0.410127 0.385068 0.027913 0.153806
H3    H     H_    0.233290 0.531590 0.541258 0.147312
H4    H     H_    0.772677 0.455470 0.473384 0.140968
H5    H     H_    0.296769 0.361861 0.355466 0.150549
H6    H     H_    0.693547 0.652424 0.625119 0.150665
H7    H     H_    0.130955 0.604665 0.585329 0.141861
H8    H     H_    0.863081 0.408237 0.400714 0.141616
H9    H     H_    0.249848 0.048455 0.471524 0.178785
H10   H     H_    0.721070 0.964316 0.433987 0.191719
H11   H     H_    0.723808 0.266028 0.484146 0.163287
H12   H     H_    0.261617 0.740259 0.465756 0.172096
H13   H     H_    0.362007 0.145204 0.485861 0.142470
H14   H     H_    0.608968 0.867834 0.423548 0.151819
H15   H     H_    0.016298 0.675879 0.647253 0.190446
H16   H     H_    0.976924 0.339954 0.335205 0.188322
N1    N     N_R   0.731710 0.552730 0.549140 -0.115886
N2    N     N_R   0.268290 0.447270 0.450860 -0.120167
O1    O     O_R   0.383110 0.605620 0.475230 -0.616503
O2    O     O_R   0.616890 0.394380 0.524770 -0.620984
O3    O     O_R   0.531900 0.639510 0.506760 -0.625568
O4    O     O_R   0.468100 0.360490 0.493240 -0.619476
O5    O     O_R   0.425620 0.483070 0.607460 -0.606864
O6    O     O_R   0.574380 0.516930 0.392540 -0.602232
O7    O     O_R   0.574400 0.516960 0.638990 -0.616179
O8    O     O_R   0.425600 0.483040 0.361010 -0.616446
Zn1   Zn    Zn3+2 0.400660 0.477370 0.478940 0.943395
Zn2   Zn    Zn3+2 0.599340 0.522630 0.521060 0.940674
O9    O     O_3   0.865020 0.716766 0.674007 -0.665871
C51   C     C_3   0.797562 0.757566 0.714605 0.077356
H17   H     H_    0.835622 0.790982 0.772200 0.166314
H18   H     H_    0.762624 0.710564 0.743498 0.121461
C52   C     C_3   0.728899 0.827302 0.651770 -0.352499
H19   H     H_    0.767558 0.879216 0.636891 0.228731
H20   H     H_    0.696520 0.799262 0.588420 0.215050
C53   C     C_3   0.651765 0.867280 0.692439 -0.945374
H21   H     H_    0.609183 0.817167 0.703432 0.262736
H22   H     H_    0.605400 0.919665 0.647135 0.276112
H23   H     H_    0.682368 0.895641 0.756264 0.260508
O10   O     O_3   0.127568 0.309773 0.298220 -0.665380
C54   C     C_3   0.189074 0.230339 0.310435 0.071712
H24   H     H_    0.147075 0.176753 0.310795 0.167655
H25   H     H_    0.244128 0.222698 0.374298 0.117761
C55   C     C_3   0.233620 0.219708 0.233167 -0.342932
H26   H     H_    0.178084 0.215917 0.171161 0.228750
H27   H     H_    0.268526 0.276977 0.226159 0.218623
C56   C     C_3   0.305544 0.137945 0.246400 -0.926032
H28   H     H_    0.365437 0.143823 0.304027 0.275202
H29   H     H_    0.332213 0.129463 0.186923 0.262068
H30   H     H_    0.273482 0.079804 0.257095 0.272946
H31   H     H_    0.424962 0.639954 0.031176 0.156300
H32   H     H_    0.578859 0.354982 0.970032 0.154645
O11   O     O_3   0.674917 0.464967 0.116312 -0.639525
C57   C     C_3   0.747252 0.454206 0.073482 0.066295
H33   H     H_    0.747016 0.514669 0.034903 0.137018
H34   H     H_    0.739605 0.399038 0.028714 0.136696
C58   C     C_3   0.840937 0.434539 0.143296 -0.305705
H35   H     H_    0.849164 0.488728 0.189047 0.234227
H36   H     H_    0.842106 0.374231 0.182298 0.225035
C59   C     C_3   0.922825 0.422783 0.101472 -0.945475
H37   H     H_    0.917265 0.367581 0.056979 0.261966
H38   H     H_    0.989482 0.408933 0.154046 0.297402
H39   H     H_    0.923989 0.482823 0.063220 0.261091
O12   O     O_3   0.328424 0.530802 0.887170 -0.644606
C60   C     C_3   0.256302 0.539410 0.930828 0.066205
H40   H     H_    0.210185 0.601629 0.906562 0.165186
H41   H     H_    0.280980 0.542117 0.004131 0.124043
C61   C     C_3   0.198814 0.464750 0.907551 -0.329512
H42   H     H_    0.169980 0.465118 0.834754 0.236654
H43   H     H_    0.244619 0.401951 0.929730 0.215374
C62   C     C_3   0.118335 0.472496 0.951232 -0.961352
H44   H     H_    0.145674 0.470313 0.024220 0.268275
H45   H     H_    0.077911 0.417618 0.932764 0.267532
H46   H     H_    0.070709 0.534311 0.928958 0.266470
H47   H     H_    0.473292 0.210224 0.539185 0.165108
H48   H     H_    0.540191 0.786295 0.481711 0.170927
O13   O     O_3   0.188145 0.904945 0.457095 -0.650998
C63   C     C_3   0.167152 0.891588 0.538437 0.052102
H49   H     H_    0.199566 0.937859 0.586627 0.141695
H50   H     H_    0.192567 0.823949 0.566601 0.135132
C64   C     C_3   0.061156 0.907778 0.523664 -0.307571
H51   H     H_    0.033958 0.974969 0.495813 0.226518
H52   H     H_    0.028712 0.861807 0.475347 0.235106
C65   C     C_3   0.033735 0.895327 0.609506 -0.972041
H53   H     H_    0.061714 0.828884 0.639131 0.270084
H54   H     H_    0.956373 0.904137 0.595899 0.269817
H55   H     H_    0.061328 0.943735 0.657238 0.258476
O14   O     O_3   0.785250 0.103801 0.452233 -0.658080
C66   C     C_3   0.865233 0.123787 0.515782 0.054105
H56   H     H_    0.907621 0.061660 0.545846 0.166769
H57   H     H_    0.850278 0.161936 0.571533 0.127046
C67   C     C_3   0.923039 0.172400 0.469661 -0.322105
H58   H     H_    0.940971 0.132739 0.416373 0.232025
H59   H     H_    0.881049 0.234758 0.439228 0.216862
C68   C     C_3   0.013167 0.191080 0.534098 -0.966280
H60   H     H_    0.996900 0.233756 0.585956 0.269554
H61   H     H_    0.054310 0.224455 0.498062 0.271162
H62   H     H_    0.056221 0.129573 0.565592 0.260651

loop_
_geom_bond_atom_site_label_1
_geom_bond_atom_site_label_2
_ccdc_geom_bond_type
C39   H1    S    
C26   H3    S    
C27   C29   A    
C24   C42   S    
O1    Zn1   S    
C25   N1    A    
C64   C65   S    
C63   H49   S    
C68   H62   S    
C65   H55   S    
C57   H34   S    
O12   C60   S    
C20   C30   A    
C40   C46   S    
C1    O3    A    
C6    H11   S    
C19   C21   A    
C43   O12   S    
C68   H60   S    
C66   C67   S    
C36   H16   S    
O2    Zn2   S    
C35   H15   S    
C60   H40   S    
C15   C17   A    
C9    C13   A    
C61   H42   S    
C38   C45   S    
C2    C50   S    
C56   H29   S    
C59   H37   S    
C40   C43   S    
C31   C32   A    
C60   H41   S    
C3    O13   S    
C58   H35   S    
C4    C12   A    
C39   C45   S    
C38   C40   S    
C13   C14   A    
C21   N1    A    
C58   H36   S    
C67   C68   S    
C5    C49   A    
N1    Zn2   S    
C23   O5    A    
C51   C52   S    
C2    O4    A    
C57   H33   S    
C68   H61   S    
C44   O11   S    
C44   C46   S    
C56   H28   S    
C59   H38   S    
C45   C47   S    
C46   C48   S    
C53   H22   S    
C27   C31   A    
C28   C32   A    
C25   H4    S    
C7    C49   A    
C4    C6    A    
C10   C14   A    
C54   H24   S    
C53   H21   S    
C24   O8    A    
C65   H54   S    
C55   C56   S    
C3    C5    A    
C40   H2    S    
C20   O10   S    
C1    O1    A    
C61   C62   S    
C37   C43   S    
C55   H27   S    
C38   C44   S    
O4    Zn1   S    
C54   H25   S    
C43   C45   S    
C52   H19   S    
C60   C61   S    
C41   C47   T    
C31   C34   A    
C16   C18   A    
C42   C48   T    
O8    Zn1   S    
C19   O9    S    
C9    C11   A    
C59   H39   S    
C22   N2    A    
C62   H44   S    
C39   C44   S    
C10   C12   A    
C17   H9    S    
C18   H10   S    
C52   H20   S    
C20   C22   A    
C58   C59   S    
C67   H59   S    
C64   H51   S    
C19   C29   A    
C63   C64   S    
C8    C50   A    
C56   H30   S    
C34   H8    S    
N2    Zn1   S    
C7    C9    A    
C15   H13   S    
C11   C17   A    
C33   H7    S    
C6    C50   A    
C67   H58   S    
C23   O7    A    
C51   H17   S    
C64   H52   S    
C53   H23   S    
C63   H50   S    
C21   H6    S    
C66   H56   S    
C22   H5    S    
C25   C27   A    
C29   C35   A    
C65   H53   S    
C26   C28   A    
C23   C41   S    
C30   C36   A    
C26   N2    A    
C32   C33   A    
C28   C30   A    
C37   C39   S    
C54   C55   S    
C37   H31   S    
C66   H57   S    
C24   O6    A    
O10   C54   S    
C33   C35   A    
C51   H18   S    
C5    H12   S    
C34   C36   A    
O3    Zn2   S    
C7    H48   S    
C38   H32   S    
C55   H26   S    
O7    Zn2   S    
C61   H43   S    
C62   H45   S    
C3    C11   A    
O14   C66   S    
C4    O14   S    
O9    C51   S    
C8    H47   S    
C52   C53   S    
C8    C10   A    
O6    Zn2   S    
C13   C16   A    
C12   C18   A    
O11   C57   S    
C62   H46   S    
O5    Zn1   S    
C14   C15   A    
C16   H14   S    
C37   C46   S    
C2    O2    A    
C1    C49   S    
C57   C58   S    
O13   C63   S    
