data_mof_unit_49947.cif
_audit_creation_date              2013-03-05T15:55:42-0500
_audit_creation_method            fapswitch 2.2
_symmetry_space_group_name_H-M    P1
_symmetry_Int_Tables_number       1
_space_group_crystal_system       triclinic
_cell_length_a                    6.926549
_cell_length_b                    17.616088
_cell_length_c                    19.438161
_cell_angle_alpha                 108.581819
_cell_angle_beta                  89.548121
_cell_angle_gamma                 90.555892
_cell_volume                      2248.04055325

loop_
_atom_site_label
_atom_site_type_symbol
_atom_site_description
_atom_site_fract_x
_atom_site_fract_y
_atom_site_fract_z
_atom_type_partial_charge
O1    O     O_R   0.494330 0.415710 0.413720 -0.597689
O2    O     O_R   0.819360 0.430070 0.560210 -0.582257
O3    O     O_R   0.994320 0.584290 0.586280 -0.603322
C1    C     C_R   0.649499 0.412414 0.579443 0.969802
O4    O     O_R   0.823740 0.406290 0.412670 -0.567829
O5    O     O_R   0.998730 0.560340 0.437690 -0.606002
C2    C     C_R   0.654631 0.381544 0.385842 0.978492
O6    O     O_R   0.489920 0.439660 0.562310 -0.605036
O7    O     O_3   0.662330 0.550570 0.508380 -0.278685
V1    V     V_3+5 0.935370 0.490620 0.498440 1.207865
O8    O     O_R   0.328720 0.569930 0.439790 -0.588512
C3    C     C_R   0.160672 0.585316 0.418463 0.954087
O9    O     O_R   0.324340 0.593710 0.587330 -0.599302
C4    C     C_R   0.155162 0.616889 0.615325 0.923184
V2    V     V_3+5 0.435940 0.509380 0.501560 1.182779
O10   O     O_3   0.159110 0.449430 0.491620 -0.250241
C5    C     C_R   0.312441 0.723685 0.718630 -0.118775
H1    H     H_    0.453428 0.704486 0.695537 0.123192
C6    C     C_R   0.301237 0.787472 0.783633 -0.124209
H2    H     H_    0.434163 0.815581 0.808513 0.123225
C7    C     C_R   0.121287 0.814615 0.815912 -0.119910
C8    C     C_R   0.952868 0.776201 0.781366 -0.122042
H3    H     H_    0.811871 0.795395 0.804455 0.118417
C9    C     C_R   0.964071 0.712413 0.716376 -0.119606
H4    H     H_    0.831129 0.684303 0.691514 0.123110
C10   C     C_R   0.144007 0.685279 0.684076 -0.124521
C11   C     C_R   0.299161 0.628216 0.317452 -0.199086
C12   C     C_R   0.153655 0.634833 0.369480 -0.169855
C13   C     C_R   0.001024 0.688210 0.374033 -0.113162
C14   C     C_R   0.994248 0.736395 0.328165 -0.058011
C15   C     C_R   0.136851 0.726183 0.273492 0.051328
C16   C     C_R   0.289701 0.672060 0.268691 0.242264
C17   C     C_R   0.847301 0.793692 0.335250 0.195223
C18   C     C_R   0.839124 0.838092 0.286202 0.229654
C19   C     C_R   0.978224 0.825765 0.229880 -0.059882
C20   C     C_R   0.127803 0.769980 0.223714 -0.029911
C21   C     C_R   0.269599 0.758027 0.168083 0.200642
C22   C     C_R   0.422378 0.704726 0.165797 -0.176683
C23   C     C_R   0.432273 0.662771 0.215459 -0.236821
C24   C     C_R   0.975980 0.870923 0.181725 -0.167657
C25   C     C_R   0.112913 0.859412 0.125823 -0.199264
C26   C     C_R   0.256678 0.799909 0.116589 0.257506
H5    H     H_    0.417306 0.587070 0.313577 0.117421
H6    H     H_    0.888879 0.692084 0.414038 0.168712
H7    H     H_    0.869503 0.917217 0.188110 0.182247
H8    H     H_    0.538113 0.695660 0.126417 0.144579
H9    H     H_    0.552121 0.622584 0.211994 0.128802
C27   C     C_R   0.767569 0.194240 0.876187 0.345471
C28   C     C_R   0.623290 0.135256 0.869894 -0.316827
C29   C     C_R   0.483240 0.121922 0.815520 -0.108635
C30   C     C_R   0.480276 0.166880 0.767373 -0.021841
C31   C     C_R   0.626581 0.225028 0.772515 -0.001502
C32   C     C_R   0.770560 0.238805 0.826949 0.050971
C33   C     C_R   0.337439 0.153842 0.712974 0.350077
C34   C     C_R   0.343995 0.197752 0.664273 -0.283999
C35   C     C_R   0.489195 0.255381 0.667751 0.059230
C36   C     C_R   0.629802 0.269479 0.723033 0.031437
C37   C     C_R   0.775256 0.327630 0.728679 0.187831
C38   C     C_R   0.915440 0.341236 0.782810 -0.234992
C39   C     C_R   0.912843 0.297804 0.831463 -0.132246
C40   C     C_R   0.497730 0.298734 0.617033 0.175294
C41   C     C_R   0.639635 0.360058 0.626044 -0.159522
C42   C     C_R   0.777963 0.372485 0.680945 -0.304052
H10   H     H_    0.379003 0.074391 0.810377 0.186589
H11   H     H_    0.230161 0.187078 0.624483 0.195848
H12   H     H_    0.887912 0.418452 0.687132 0.140171
H13   H     H_    0.027592 0.385987 0.787774 0.133376
H14   H     H_    0.023214 0.311293 0.872734 0.172079
C43   C     C_R   0.788820 0.251503 0.298894 0.375077
C44   C     C_R   0.778263 0.190216 0.231587 -0.200729
H15   H     H_    0.889530 0.144962 0.217183 0.166954
C45   C     C_R   0.620968 0.183961 0.184828 -0.182439
C46   C     C_R   0.473862 0.240999 0.205841 -0.062964
H16   H     H_    0.350517 0.237637 0.171056 0.139450
C47   C     C_R   0.486167 0.304139 0.271247 -0.083402
H17   H     H_    0.372389 0.348295 0.284629 0.138166
C48   C     C_R   0.643556 0.311093 0.318398 -0.304765
O11   O     O_R   0.774940 0.060470 0.937800 -0.555121
O12   O     O_R   0.440880 0.093730 0.087350 -0.596773
O13   O     O_R   0.266130 0.939630 0.062280 -0.577460
C49   C     C_R   0.609712 0.116740 0.115438 0.997410
O14   O     O_R   0.445480 0.069960 0.939820 -0.580166
O15   O     O_R   0.270770 0.915690 0.913690 -0.611352
C50   C     C_R   0.614945 0.085814 0.918978 1.027425
O16   O     O_R   0.770300 0.084410 0.086380 -0.588069
O17   O     O_3   0.602600 0.949510 0.991670 -0.296017
V3    V     V_3+5 0.329470 0.009370 0.001550 1.230519
O18   O     O_R   0.940760 0.906160 0.912560 -0.607239
C51   C     C_R   0.110013 0.883022 0.884628 0.918877
O19   O     O_R   0.936150 0.929930 0.060100 -0.610800
C52   C     C_R   0.104690 0.912343 0.079498 0.952388
V4    V     V_3+5 0.828930 0.990450 0.998310 1.213673
O20   O     O_3   0.105670 0.050490 0.008320 -0.229681
C53   C     C_3   0.389569 0.777876 0.050807 -0.987087
H18   H     H_    0.394718 0.711778 0.025907 0.225269
H19   H     H_    0.338808 0.799879 0.006764 0.242337
H20   H     H_    0.537185 0.801574 0.067214 0.271918
N1    N     N_R   0.906501 0.210260 0.933627 0.226082
O21   O     O_R   0.849222 0.233193 0.000991 -0.431616
O22   O     O_R   0.088504 0.195666 0.918675 -0.380065
N2    N     N_R   0.184493 0.096032 0.705562 0.233913
O23   O     O_R   0.075998 0.097879 0.760970 -0.405611
O24   O     O_R   0.132178 0.050905 0.641250 -0.327358
C54   C     C_3   0.364465 0.275654 0.551824 -0.774978
H21   H     H_    0.409341 0.300808 0.508737 0.246720
H22   H     H_    0.366483 0.209766 0.525132 0.261055
H23   H     H_    0.214917 0.295099 0.569388 0.241311
N3    N     N_R   0.940972 0.249157 0.348039 0.238875
O25   O     O_R   0.111455 0.223948 0.322918 -0.401624
O26   O     O_R   0.900724 0.257334 0.415530 -0.379783
N4    N     N_R   0.708162 0.808662 0.393225 0.256191
O27   O     O_R   0.765619 0.831994 0.460352 -0.327547
O28   O     O_R   0.524581 0.808664 0.379648 -0.340572
N5    N     N_R   0.693909 0.898378 0.296206 0.260296
O29   O     O_R   0.565862 0.892545 0.246168 -0.407626
O30   O     O_R   0.682175 0.956612 0.357297 -0.282076

loop_
_geom_bond_atom_site_label_1
_geom_bond_atom_site_label_2
_geom_bond_distance
_ccdc_geom_bond_type
O15   V3    2.001786 S    
C34   C35   1.408620 A    
N2    O23   1.300458 A    
C29   H10   1.080948 S    
C46   H16   1.083154 S    
C33   N2    1.438096 S    
C43   C48   1.420894 A    
N4    O27   1.301192 A    
C1    O6    1.296537 A    
O12   V3    2.000990 S    
N5    O29   1.300524 A    
C36   C37   1.409436 A    
C7    C51   1.488882 S    
N3    O25   1.301137 A    
C13   C14   1.414717 A    
C3    C12   1.483476 S    
C5    C10   1.406202 A    
C28   C50   1.483224 S    
C12   C13   1.405156 A    
C6    C7    1.408519 A    
C9    C10   1.408538 A    
O13   V3    2.000249 S    
C43   C44   1.407993 A    
O1    C2    1.297830 A    
O5    C3    1.296183 A    
C14   C15   1.415082 A    
O14   V3    2.002281 S    
C1    C41   1.485301 S    
C35   C36   1.416566 A    
C18   C19   1.417730 A    
C25   C26   1.421299 A    
C16   C23   1.397060 A    
C21   C26   1.423940 A    
C38   H13   1.084012 S    
O8    V2    1.994150 S    
C43   N3    1.437651 S    
O18   V4    2.001924 S    
N3    O26   1.301597 A    
C44   H15   1.083586 S    
C17   N4    1.437616 S    
O7    V1    2.152283 S    
C15   C20   1.418821 A    
C45   C49   1.486461 S    
C2    C48   1.492526 S    
C42   H12   1.085163 S    
C38   C39   1.393088 A    
N2    O24   1.301632 A    
C26   C53   1.518223 S    
O9    C4    1.301394 A    
C46   C47   1.399790 A    
C24   H7    1.081730 S    
C54   H22   1.110405 S    
C54   H21   1.106421 S    
C34   H11   1.081348 S    
C32   C39   1.408030 A    
C29   C30   1.405902 A    
O4    C2    1.299560 A    
C27   C32   1.418107 A    
O15   C51   1.296328 A    
C44   C45   1.405259 A    
C30   C31   1.415071 A    
C40   C54   1.518803 S    
C9    H4    1.082747 S    
O12   C49   1.299917 A    
O17   V3    2.152173 S    
C53   H20   1.110610 S    
O11   V4    1.996321 S    
C37   C38   1.399381 A    
C19   C20   1.412890 A    
O2    C1    1.296477 A    
C47   H17   1.083290 S    
C21   C22   1.412593 A    
C11   H5    1.084652 S    
O19   V4    1.994066 S    
C15   C16   1.414198 A    
C41   C42   1.402851 A    
C5    H1    1.082722 S    
C53   H18   1.110261 S    
N4    O28   1.300720 A    
C4    C10   1.489117 S    
C53   H19   1.107101 S    
C47   C48   1.408939 A    
O3    C4    1.296368 A    
O1    V2    2.002054 S    
C24   C25   1.403046 A    
C25   C52   1.490137 S    
C28   C29   1.402435 A    
O6    V2    1.995722 S    
O14   C50   1.295462 A    
O9    V2    2.001875 S    
C13   H6    1.081855 S    
C8    C9    1.400022 A    
O2    V1    2.002372 S    
C31   C32   1.421739 A    
C23   H9    1.083962 S    
C37   C42   1.397267 A    
C33   C34   1.400672 A    
C20   C21   1.421432 A    
C14   C17   1.415226 A    
C11   C16   1.402749 A    
C35   C40   1.427145 A    
C45   C46   1.402282 A    
O5    V1    2.000299 S    
N5    O30   1.301087 A    
O8    C3    1.298283 A    
C18   N5    1.436458 S    
C27   N1    1.436382 S    
N1    O22   1.301041 A    
C30   C33   1.416701 A    
C6    H2    1.082759 S    
C19   C24   1.408642 A    
O7    V2    1.709653 S    
O4    V1    2.000980 S    
O3    V1    2.001810 S    
O17   V4    1.707734 S    
O19   C52   1.299769 A    
C22   C23   1.392683 A    
O13   C52   1.296025 A    
C27   C28   1.412129 A    
V3    O20   1.703777 S    
V4    O20   2.160148 S    
C5    C6    1.400169 A    
C17   C18   1.414526 A    
C40   C41   1.423143 A    
C22   H8    1.081192 S    
C31   C36   1.420606 A    
O11   C50   1.296700 A    
O18   C51   1.301343 A    
C39   H14   1.081273 S    
O16   V4    2.007857 S    
N1    O21   1.301165 A    
C11   C12   1.401148 A    
C8    H3    1.082736 S    
V1    O10   1.703839 S    
C7    C8    1.406110 A    
C54   H23   1.110708 S    
C49   O16   1.295387 A    
V2    O10   2.160063 S    
