data_mof_unit_54584.cif
_audit_creation_date              2012-12-11T14:08:32-0500
_audit_creation_method            fapswitch 2.2
_symmetry_space_group_name_H-M    P1
_symmetry_Int_Tables_number       1
_space_group_crystal_system       triclinic
_cell_length_a                    28.120758
_cell_length_b                    7.261353
_cell_length_c                    17.130125
_cell_angle_alpha                 90.000336
_cell_angle_beta                  101.874955
_cell_angle_gamma                 90.00003
_cell_volume                      3423.02353049

loop_
_atom_site_label
_atom_site_type_symbol
_atom_type_description
_atom_site_fract_x
_atom_site_fract_y
_atom_site_fract_z
_atom_type_partial_charge
O1    O     O_R   0.000700 0.436510 0.857920 -0.531869
O2    O     O_R   0.999300 0.563490 0.142080 -0.531883
O3    O     O_R   0.999300 0.936510 0.642080 -0.531870
O4    O     O_R   0.000700 0.063490 0.357920 -0.531883
O5    O     O_R   0.930080 0.766380 0.721890 -0.541382
O6    O     O_R   0.069920 0.233620 0.278110 -0.541214
O7    O     O_R   0.069920 0.266380 0.778110 -0.541384
O8    O     O_R   0.930080 0.733620 0.221890 -0.541214
C1    C     C_R   0.910832 0.597927 0.706398 0.693223
C2    C     C_R   0.089435 0.402756 0.288432 0.693213
C3    C     C_R   0.089168 0.097928 0.793602 0.693224
C4    C     C_R   0.910565 0.902756 0.211568 0.693213
O9    O     O_R   0.996180 0.766230 0.862310 -0.542298
O10   O     O_R   0.003820 0.233770 0.137690 -0.542164
O11   O     O_R   0.003820 0.266230 0.637690 -0.542298
O12   O     O_R   0.996180 0.733770 0.362310 -0.542163
O13   O     O_R   0.065870 0.936460 0.783500 -0.538407
O14   O     O_R   0.934130 0.063540 0.216500 -0.538538
O15   O     O_R   0.934130 0.436460 0.716500 -0.538407
O16   O     O_R   0.065870 0.563540 0.283500 -0.538538
C5    C     C_R   0.998493 0.596462 0.894321 0.759259
C6    C     C_R   0.001531 0.403542 0.105684 0.757363
C7    C     C_R   0.001507 0.096461 0.605679 0.759262
C8    C     C_R   0.998468 0.903543 0.394316 0.757365
O17   O     O_3   0.022790 0.603020 0.723980 -0.379011
O18   O     O_3   0.977210 0.396980 0.276020 -0.379220
O19   O     O_3   0.977210 0.103020 0.776020 -0.379013
O20   O     O_3   0.022790 0.896980 0.223980 -0.379220
V1    V     V_3+5 0.995770 0.877900 0.754830 1.408488
V2    V     V_3+5 0.004230 0.122100 0.245170 1.409482
V3    V     V_3+5 0.004230 0.377900 0.745170 1.408489
V4    V     V_3+5 0.995770 0.622100 0.254830 1.409482
C9    C     C_2   0.001663 0.082141 0.519486 -0.329738
C10   C     C_2   0.998269 0.917870 0.480494 -0.328089
C11   C     C_2   0.998336 0.582141 0.980514 -0.329737
C12   C     C_2   0.001731 0.417870 0.019506 -0.328087
H1    H     H_    0.004432 0.209616 0.487551 0.154676
H2    H     H_    0.995491 0.790396 0.512425 0.154162
H3    H     H_    0.995568 0.709616 0.012450 0.154676
H4    H     H_    0.004509 0.290396 0.987574 0.154162
C13   C     C_R   0.681647 0.006399 0.066596 0.570336
C14   C     C_R   0.312460 0.046439 0.011070 0.597997
C15   C     C_R   0.318353 0.506399 0.433404 0.570336
C16   C     C_R   0.687540 0.546436 0.488926 0.597998
O21   O     O_2   0.710633 0.034078 0.013879 -0.518006
O22   O     O_2   0.281984 0.048878 0.062441 -0.503881
O23   O     O_2   0.289367 0.534077 0.486121 -0.518007
O24   O     O_2   0.718016 0.548873 0.437554 -0.503880
N1    N     N_R   0.701689 0.959188 0.143579 -0.560327
N2    N     N_R   0.294041 0.057852 0.930748 -0.563853
N3    N     N_R   0.298311 0.459189 0.356420 -0.560327
N4    N     N_R   0.705959 0.557847 0.569247 -0.563856
C17   C     C_R   0.672881 0.931455 0.198028 0.599897
C18   C     C_R   0.324179 0.053953 0.877594 0.593541
C19   C     C_R   0.327118 0.431456 0.301971 0.599896
C20   C     C_R   0.675822 0.553950 0.622402 0.593545
C21   C     C_R   0.782734 0.102493 0.170328 -0.084648
C22   C     C_R   0.213957 0.909891 0.889965 -0.095955
C23   C     C_R   0.217266 0.602493 0.329675 -0.084649
C24   C     C_R   0.786037 0.409852 0.610078 -0.095953
C25   C     C_R   0.833333 0.088534 0.184344 -0.186812
C26   C     C_R   0.164560 0.918736 0.854174 -0.189399
C27   C     C_R   0.166667 0.588535 0.315659 -0.186813
C28   C     C_R   0.835434 0.418703 0.645871 -0.189374
C29   C     C_R   0.827234 0.756608 0.192488 -0.190673
C30   C     C_R   0.171172 0.248987 0.839397 -0.190141
C31   C     C_R   0.172766 0.256609 0.307509 -0.190675
C32   C     C_R   0.828832 0.749011 0.660556 -0.190124
C33   C     C_R   0.776419 0.771136 0.178441 -0.081240
C34   C     C_R   0.220691 0.239468 0.874920 -0.084023
C35   C     C_R   0.223581 0.271138 0.321556 -0.081240
C36   C     C_R   0.779314 0.739488 0.625031 -0.084035
C37   C     C_R   0.753874 0.944200 0.166797 0.378722
C38   C     C_R   0.242326 0.069963 0.900567 0.382923
C39   C     C_R   0.246126 0.444202 0.333203 0.378722
C40   C     C_R   0.757674 0.569952 0.599428 0.382956
C41   C     C_R   0.600408 0.993703 0.095962 -0.040901
C42   C     C_R   0.394930 0.031505 0.986630 -0.057952
C43   C     C_R   0.399592 0.493702 0.404037 -0.040901
C44   C     C_R   0.605070 0.531504 0.513367 -0.057952
C45   C     C_R   0.631058 0.024658 0.041704 -0.009248
C46   C     C_R   0.363166 0.032622 0.040308 -0.021620
C47   C     C_R   0.368943 0.524657 0.458296 -0.009247
C48   C     C_R   0.636834 0.532622 0.459687 -0.021620
C49   C     C_R   0.610823 0.076719 0.963965 -0.173315
C50   C     C_R   0.382593 0.022172 0.121799 -0.189021
C51   C     C_R   0.389178 0.576716 0.536034 -0.173314
C52   C     C_R   0.617407 0.522172 0.378197 -0.189019
C53   C     C_R   0.621788 0.950604 0.175210 -0.096866
C54   C     C_R   0.374856 0.040439 0.904554 -0.088090
C55   C     C_R   0.378211 0.450604 0.324788 -0.096866
C56   C     C_R   0.625145 0.540437 0.595442 -0.088093
C57   C     C_R   0.856440 0.915299 0.195046 -0.053634
C58   C     C_R   0.142371 0.088455 0.828167 -0.050729
C59   C     C_R   0.143560 0.415300 0.304954 -0.053634
C60   C     C_R   0.857628 0.588453 0.671833 -0.050724
H5    H     H_    0.843519 0.621042 0.200913 0.134231
H6    H     H_    0.155575 0.382159 0.820678 0.134680
H7    H     H_    0.156481 0.121043 0.299081 0.134231
H8    H     H_    0.844434 0.882208 0.679239 0.134656
H9    H     H_    0.754541 0.647507 0.174867 0.120788
H10   H     H_    0.242406 0.363839 0.881829 0.116962
H11   H     H_    0.245459 0.147509 0.325127 0.120789
H12   H     H_    0.757603 0.863882 0.618084 0.116941
H13   H     H_    0.633463 0.110663 0.921887 0.174405
H14   H     H_    0.359164 0.027086 0.164700 0.188702
H15   H     H_    0.366538 0.610659 0.578113 0.174405
H16   H     H_    0.640835 0.527086 0.335296 0.188702
C61   C     C_R   0.477455 0.027995 0.958750 -0.049649
C62   C     C_R   0.518030 0.985215 0.127044 -0.054007
C63   C     C_R   0.522546 0.527994 0.541247 -0.049650
C64   C     C_R   0.481970 0.485215 0.372953 -0.054010
C65   C     C_R   0.466103 0.002113 0.098630 0.059791
C66   C     C_R   0.528662 0.037790 0.988317 0.054752
C67   C     C_R   0.533897 0.502113 0.401367 0.059790
C68   C     C_R   0.471339 0.537788 0.511681 0.054753
C69   C     C_R   0.446424 0.020033 0.014782 -0.005899
C70   C     C_R   0.548713 0.005137 0.070539 -0.008944
C71   C     C_R   0.553576 0.520033 0.485215 -0.005897
C72   C     C_R   0.451287 0.505137 0.429459 -0.008944
C73   C     C_R   0.455876 0.023452 0.875076 0.374371
C74   C     C_R   0.541385 0.951562 0.208997 0.384059
C75   C     C_R   0.544125 0.523451 0.624922 0.374371
C76   C     C_R   0.458614 0.451562 0.291000 0.384059
C77   C     C_R   0.405222 0.029231 0.850323 -0.213503
C78   C     C_R   0.592034 0.928104 0.230106 -0.233297
C79   C     C_R   0.594779 0.529229 0.649674 -0.213501
C80   C     C_R   0.407965 0.428105 0.269892 -0.233297
O25   O     O_2   0.305114 0.062736 0.798618 -0.518030
O26   O     O_2   0.693473 0.887445 0.273970 -0.510006
O27   O     O_2   0.694887 0.562736 0.701377 -0.518026
O28   O     O_2   0.306526 0.387447 0.226028 -0.510006
C81   C     C_R   0.560975 0.085459 0.938433 -0.153560
C82   C     C_R   0.432529 0.009357 0.150220 -0.165871
C83   C     C_R   0.439026 0.585457 0.561566 -0.153561
C84   C     C_R   0.567471 0.509357 0.349777 -0.165873
H17   H     H_    0.143805 0.792058 0.847257 0.134697
H18   H     H_    0.854243 0.214278 0.186300 0.136585
H19   H     H_    0.856184 0.292000 0.652827 0.134686
H20   H     H_    0.145757 0.714278 0.313706 0.136585
H21   H     H_    0.230394 0.777835 0.908420 0.116245
H22   H     H_    0.765799 0.236834 0.160738 0.117394
H23   H     H_    0.769595 0.277773 0.591660 0.116215
H24   H     H_    0.234201 0.736835 0.339267 0.117394
H25   H     H_    0.389312 0.019898 0.787381 0.177369
H26   H     H_    0.608061 0.891071 0.291093 0.178660
H27   H     H_    0.610689 0.519896 0.712615 0.177368
H28   H     H_    0.391938 0.391072 0.208905 0.178660
H29   H     H_    0.549140 0.134560 0.879061 0.157885
H30   H     H_    0.442710 0.013909 0.213605 0.188983
H31   H     H_    0.450861 0.634556 0.620939 0.157885
H32   H     H_    0.557289 0.513910 0.286392 0.188984
O29   O     O_3   0.483261 0.979522 0.818586 -0.595569
C85   C     C_3   0.474302 0.101285 0.752062 0.030131
H33   H     H_    0.509707 0.158808 0.745113 0.175017
H34   H     H_    0.450764 0.221545 0.758939 0.135622
C86   C     C_3   0.453656 0.994815 0.675607 -0.336038
H35   H     H_    0.483235 0.910665 0.659943 0.178492
H36   H     H_    0.423810 0.902728 0.684965 0.197634
C87   C     C_3   0.434595 0.122160 0.605573 -0.738324
H37   H     H_    0.405660 0.213262 0.619246 0.244396
H38   H     H_    0.419214 0.038938 0.551918 0.224856
H39   H     H_    0.464821 0.206268 0.592312 0.254970
O30   O     O_3   0.515462 0.910586 0.267350 -0.594486
C88   C     C_3   0.525260 0.040000 0.330950 0.069788
H40   H     H_    0.491631 0.118898 0.330471 0.158132
H41   H     H_    0.554856 0.139799 0.327432 0.146824
C89   C     C_3   0.537528 0.938518 0.410348 -0.327778
H42   H     H_    0.506525 0.848109 0.415047 0.215786
H43   H     H_    0.570977 0.856895 0.412334 0.218619
C90   C     C_3   0.546301 0.066753 0.481971 -0.812304
H44   H     H_    0.578639 0.153693 0.481415 0.247596
H45   H     H_    0.553314 0.983961 0.537691 0.233500
H46   H     H_    0.513752 0.153357 0.481411 0.236209
O31   O     O_3   0.516740 0.479521 0.681412 -0.595570
C91   C     C_3   0.525700 0.601285 0.747936 0.030132
H47   H     H_    0.490295 0.658809 0.754885 0.175017
H48   H     H_    0.549238 0.721545 0.741059 0.135622
C92   C     C_3   0.546345 0.494816 0.824391 -0.336039
H49   H     H_    0.516767 0.410667 0.840055 0.178492
H50   H     H_    0.576192 0.402730 0.815032 0.197634
C93   C     C_3   0.565407 0.622162 0.894425 -0.738323
H51   H     H_    0.594342 0.713265 0.880752 0.244396
H52   H     H_    0.580788 0.538941 0.948079 0.224856
H53   H     H_    0.535180 0.706270 0.907687 0.254969
O32   O     O_3   0.484537 0.410586 0.232647 -0.594485
C94   C     C_3   0.474740 0.540000 0.169048 0.069789
H54   H     H_    0.508368 0.618897 0.169526 0.158132
H55   H     H_    0.445144 0.639799 0.172566 0.146824
C95   C     C_3   0.462471 0.438518 0.089650 -0.327778
H56   H     H_    0.493473 0.348109 0.084949 0.215786
H57   H     H_    0.429021 0.356895 0.087663 0.218619
C96   C     C_3   0.453697 0.566753 0.018027 -0.812303
H58   H     H_    0.421360 0.653693 0.018584 0.247596
H59   H     H_    0.446684 0.483961 0.962306 0.233499
H60   H     H_    0.486247 0.653356 0.018587 0.236210

loop_
_geom_bond_atom_site_label_1
_geom_bond_atom_site_label_2
_ccdc_geom_bond_type
O17   V3    S    
C35   C39   A    
C90   H44   S    
N1    C17   A    
O1    C5    A    
C95   H56   S    
O19   V1    S    
O13   V1    S    
C27   H20   S    
O3    C7    A    
C11   C12   D    
C14   C46   A    
C44   C48   A    
O15   V3    S    
C62   C70   A    
C78   H26   S    
C74   O30   S    
C68   C83   A    
C42   C54   A    
O7    C3    A    
C90   H45   S    
C41   C53   A    
C32   C60   A    
C73   O29   S    
C21   H22   S    
C63   C71   A    
O30   C88   S    
N3    C39   S    
C18   C54   A    
N2    C38   S    
C24   H23   S    
C52   H16   S    
C25   C57   A    
C25   H18   S    
C31   C35   A    
C67   C84   A    
C82   H30   S    
C27   C59   A    
O1    V3    S    
C15   C47   A    
O2    V4    S    
C14   O22   S    
C21   C37   A    
O3    V1    S    
C34   C38   A    
C94   C95   S    
C19   C55   A    
C95   C96   S    
C73   C77   A    
C93   H51   S    
C22   C26   A    
C1    O15   A    
C91   C92   S    
C3    O13   A    
C2    O16   A    
C96   H59   S    
O2    C6    A    
C33   C37   A    
C63   C68   A    
O14   V2    S    
C79   H27   S    
C85   H34   S    
C31   H7    S    
C30   C58   A    
C92   C93   S    
C16   N4    A    
O11   C7    A    
C44   C71   A    
O12   C8    A    
C31   C59   A    
C88   H41   S    
C50   H14   S    
O10   V2    S    
C49   H13   S    
C13   N1    A    
C84   H32   S    
C50   C82   A    
C45   C49   A    
O5    V1    S    
C53   C78   A    
C89   C90   S    
C90   H46   S    
O7    V3    S    
C55   C80   A    
C63   C75   A    
O8    V4    S    
C87   H39   S    
C51   C83   A    
C12   H4    S    
C42   C69   A    
C81   H29   S    
C52   C84   A    
C85   C86   S    
C41   C70   A    
C64   C72   A    
O18   V4    S    
C80   H28   S    
C36   H12   S    
C7    C9    S    
C46   C50   A    
O11   V3    S    
C24   C40   A    
C8    C10   S    
C68   C72   A    
C86   H35   S    
C29   C57   A    
C32   C36   A    
C93   H53   S    
C87   H38   S    
C74   C78   A    
C11   H3    S    
C32   H8    S    
O5    C1    A    
C54   C77   A    
C42   C46   A    
C75   C79   A    
O31   C91   S    
C1    C60   S    
C41   C45   A    
O8    C4    A    
C96   H60   S    
C13   C45   A    
C43   C72   A    
C9    C10   D    
O9    C5    A    
C36   C40   A    
N2    C18   A    
C21   C25   A    
C44   C56   A    
C62   C65   A    
C28   C60   A    
C85   H33   S    
C66   C70   A    
C61   C66   A    
C14   N2    A    
C65   C69   A    
C3    C58   S    
C89   H42   S    
O6    V2    S    
C23   H24   S    
C96   H58   S    
C88   C89   S    
C67   C71   A    
C65   C82   A    
C26   C58   A    
C17   C53   A    
N1    C37   S    
C4    C57   S    
C61   C69   A    
O12   V4    S    
C56   C79   A    
C23   C39   A    
C22   C38   A    
O16   V4    S    
O9    V1    S    
C83   H31   S    
C18   O25   S    
C35   H11   S    
C91   H47   S    
C95   H57   S    
C93   H52   S    
C10   H2    S    
C43   C55   A    
C48   C52   A    
C17   O26   S    
C16   C48   A    
C47   C51   A    
O6    C2    A    
C75   O31   S    
C34   H10   S    
C64   C76   A    
C5    C11   S    
C33   H9    S    
C86   C87   S    
C6    C12   S    
C23   C27   A    
C76   C80   A    
N4    C40   S    
C24   C28   A    
C87   H37   S    
O10   C6    A    
O20   V2    S    
C30   H6    S    
C29   H5    S    
C94   H54   S    
C77   H25   S    
C62   C74   A    
C43   C47   A    
C22   H21   S    
C15   N3    A    
C30   C34   A    
C2    C59   S    
O4    C8    A    
C29   C33   A    
C89   H43   S    
C76   O32   S    
C66   C81   A    
N3    C19   A    
C26   H17   S    
C9    H1    S    
O32   C94   S    
C94   H55   S    
C20   O27   S    
C92   H49   S    
N4    C20   A    
C88   H40   S    
C20   C56   A    
C51   H15   S    
C86   H36   S    
C19   O28   S    
C4    O14   A    
C13   O21   S    
C61   C73   A    
O29   C85   S    
C15   O23   S    
C64   C67   A    
O4    V2    S    
C16   O24   S    
C49   C81   A    
C91   H48   S    
C92   H50   S    
C28   H19   S    
