data_mof_unit_54495.cif
_audit_creation_date              2012-12-11T16:28:27-0500
_audit_creation_method            fapswitch 2.2
_symmetry_space_group_name_H-M    P1
_symmetry_Int_Tables_number       1
_space_group_crystal_system       triclinic
_cell_length_a                    16.98606
_cell_length_b                    7.252719
_cell_length_c                    14.867372
_cell_angle_alpha                 89.999618
_cell_angle_beta                  94.355102
_cell_angle_gamma                 89.999422
_cell_volume                      1826.29908764

loop_
_atom_site_label
_atom_site_type_symbol
_atom_type_description
_atom_site_fract_x
_atom_site_fract_y
_atom_site_fract_z
_atom_type_partial_charge
O1    O     O_R   0.663460 0.361760 0.165970 -0.531780
O2    O     O_R   0.336540 0.638240 0.834030 -0.531780
O3    O     O_R   0.836540 0.861760 0.334030 -0.531780
O4    O     O_R   0.163460 0.138240 0.665970 -0.531782
O5    O     O_R   0.827100 0.689870 0.163730 -0.538853
O6    O     O_R   0.172900 0.310130 0.836270 -0.538857
O7    O     O_R   0.672900 0.189870 0.336270 -0.538859
O8    O     O_R   0.327100 0.810130 0.663730 -0.538855
C1    C     C_R   0.854790 0.523340 0.145482 0.719947
C2    C     C_R   0.145210 0.476660 0.854518 0.719945
C3    C     C_R   0.645212 0.023340 0.354519 0.719947
C4    C     C_R   0.354788 0.976660 0.645481 0.719944
O9    O     O_R   0.663490 0.691370 0.155500 -0.540291
O10   O     O_R   0.336510 0.308630 0.844500 -0.540289
O11   O     O_R   0.836510 0.191370 0.344500 -0.540287
O12   O     O_R   0.163490 0.808630 0.655500 -0.540287
O13   O     O_R   0.671770 0.863320 0.325740 -0.533160
O14   O     O_R   0.328230 0.136680 0.674260 -0.533159
O15   O     O_R   0.828230 0.363320 0.174260 -0.533159
O16   O     O_R   0.171770 0.636680 0.825740 -0.533158
C5    C     C_R   0.638079 0.523550 0.130694 0.725533
C6    C     C_R   0.361920 0.476450 0.869306 0.725534
C7    C     C_R   0.861921 0.023548 0.369305 0.725544
C8    C     C_R   0.138080 0.976451 0.630694 0.725536
H1    H     H_    0.095089 0.888928 0.207931 0.128927
H2    H     H_    0.904910 0.111109 0.792066 0.128928
H3    H     H_    0.404893 0.389096 0.292076 0.128925
H4    H     H_    0.595104 0.610924 0.707925 0.128924
O17   O     O_3   0.752910 0.528800 0.305860 -0.376096
O18   O     O_3   0.247090 0.471200 0.694140 -0.376097
O19   O     O_3   0.747090 0.028800 0.194140 -0.376095
O20   O     O_3   0.252910 0.971200 0.805860 -0.376095
V1    V     V_3+5 0.749460 0.803010 0.239640 1.383278
V2    V     V_3+5 0.250540 0.196990 0.760360 1.383273
V3    V     V_3+5 0.750540 0.303010 0.260360 1.383286
V4    V     V_3+5 0.249460 0.696990 0.739640 1.383281
C9    C     C_1   0.469322 0.994506 0.530724 -0.004547
C10   C     C_1   0.530678 0.005494 0.469276 -0.004549
C11   C     C_1   0.030677 0.494507 0.969275 -0.004548
C12   C     C_1   0.969323 0.505493 0.030724 -0.004549
H5    H     H_    0.796041 0.186849 0.688701 0.127080
H6    H     H_    0.203951 0.813133 0.311293 0.127079
H7    H     H_    0.703966 0.686714 0.811282 0.127080
H8    H     H_    0.296032 0.313297 0.188719 0.127080
C13   C     C_R   0.020157 0.983690 0.309299 0.135860
C14   C     C_R   0.979844 0.016332 0.690702 0.135860
C15   C     C_R   0.479837 0.483774 0.190703 0.135845
C16   C     C_R   0.520162 0.516235 0.809297 0.135847
C17   C     C_R   0.087930 0.904952 0.279373 -0.157065
C18   C     C_R   0.912069 0.095068 0.720625 -0.157066
C19   C     C_R   0.412056 0.405085 0.220634 -0.157062
C20   C     C_R   0.587942 0.594929 0.779367 -0.157064
C21   C     C_R   0.150795 0.863834 0.338958 -0.145013
C22   C     C_R   0.849199 0.136157 0.661039 -0.145014
C23   C     C_R   0.349191 0.363961 0.161051 -0.145010
C24   C     C_R   0.650807 0.636048 0.838950 -0.145010
C25   C     C_R   0.149247 0.904417 0.430599 0.152169
C26   C     C_R   0.850749 0.095554 0.569400 0.152183
C27   C     C_R   0.350747 0.404484 0.069404 0.152161
C28   C     C_R   0.649252 0.595519 0.930596 0.152162
C29   C     C_R   0.075959 0.956285 0.467684 0.018225
C30   C     C_R   0.924040 0.043705 0.532316 0.018225
C31   C     C_R   0.424038 0.456320 0.032318 0.018225
C32   C     C_R   0.575961 0.543682 0.967682 0.018225
C33   C     C_R   0.008312 0.986260 0.404628 0.020763
C34   C     C_R   0.991688 0.013745 0.595373 0.020759
C35   C     C_R   0.491685 0.486302 0.095374 0.020761
C36   C     C_R   0.508314 0.513702 0.904626 0.020760
C37   C     C_R   0.067854 0.980128 0.563089 -0.146518
C38   C     C_R   0.932146 0.019869 0.436911 -0.146522
C39   C     C_R   0.432146 0.480121 0.936911 -0.146515
C40   C     C_R   0.567853 0.519879 0.063089 -0.146515
C41   C     C_1   0.417205 0.985633 0.582925 -0.186804
C42   C     C_1   0.582795 0.014367 0.417075 -0.186802
C43   C     C_1   0.082794 0.485635 0.917073 -0.186806
C44   C     C_1   0.917206 0.514365 0.082926 -0.186803
C45   C     C_3   0.228781 0.894455 0.481725 -0.761818
H9    H     H_    0.277923 0.880742 0.436854 0.187092
H10   H     H_    0.240568 0.025634 0.518200 0.189421
H11   H     H_    0.232239 0.770267 0.524827 0.232450
C46   C     C_3   0.771211 0.105467 0.518277 -0.761851
H12   H     H_    0.722068 0.119154 0.563149 0.187099
H13   H     H_    0.767741 0.229653 0.475173 0.232443
H14   H     H_    0.759437 0.974280 0.481803 0.189437
C47   C     C_3   0.271216 0.394484 0.018273 -0.761813
H15   H     H_    0.222071 0.380767 0.063138 0.187089
H16   H     H_    0.259425 0.525650 0.981788 0.189429
H17   H     H_    0.267770 0.270284 0.975179 0.232445
C48   C     C_3   0.728783 0.605513 0.981727 -0.761816
H18   H     H_    0.777928 0.619228 0.936862 0.187090
H19   H     H_    0.732231 0.729712 0.024821 0.232445
H20   H     H_    0.740573 0.474346 0.018212 0.189430
C49   C     C_3   0.970344 0.087470 0.237277 -0.717514
H21   H     H_    0.916982 0.008373 0.213675 0.223575
H22   H     H_    0.956101 0.226243 0.262637 0.211690
H23   H     H_    0.002821 0.113306 0.176323 0.183437
C50   C     C_3   0.029663 0.912580 0.762733 -0.717497
H24   H     H_    0.083027 0.991688 0.786323 0.223584
H25   H     H_    0.997192 0.886767 0.823694 0.183431
H26   H     H_    0.043905 0.773795 0.737383 0.211689
C51   C     C_3   0.529662 0.587535 0.262723 -0.717480
H27   H     H_    0.583022 0.508418 0.286318 0.223569
H28   H     H_    0.543909 0.726304 0.237360 0.211698
H29   H     H_    0.497194 0.613384 0.323682 0.183427
C52   C     C_3   0.470338 0.412473 0.737277 -0.717472
H30   H     H_    0.416976 0.491586 0.713682 0.223570
H31   H     H_    0.502805 0.386634 0.676315 0.183425
H32   H     H_    0.456094 0.273699 0.762637 0.211695

loop_
_geom_bond_atom_site_label_1
_geom_bond_atom_site_label_2
_ccdc_geom_bond_type
C26   C30   A    
O1    C5    A    
C51   H27   S    
C15   C51   S    
C23   C27   A    
O3    C7    A    
C13   C49   S    
C50   H26   S    
C50   H24   S    
C45   H9    S    
O7    C3    A    
C52   H31   S    
C49   H21   S    
C32   C36   A    
C14   C34   A    
H2    C18   S    
H6    C21   S    
C10   C42   T    
O4    C8    A    
C45   H11   S    
C34   C37   A    
O3    V1    S    
O2    V4    S    
C33   C38   A    
C30   C38   A    
C35   C40   A    
O8    V4    S    
O11   V3    S    
C46   H13   S    
C1    O15   A    
C2    O16   A    
O5    V1    S    
O2    C6    A    
O19   V1    S    
C1    C44   S    
C11   C43   T    
C48   H19   S    
C14   C18   A    
O11   C7    A    
O12   C8    A    
C4    C41   S    
C7    C38   S    
O13   V1    S    
C15   C35   A    
C50   H25   S    
H3    C19   S    
C8    C37   S    
C46   H12   S    
O4    V2    S    
C45   H10   S    
C52   H32   S    
C31   C35   A    
C30   C34   A    
C47   H16   S    
C25   C45   S    
C26   C46   S    
C11   C12   S    
C21   C25   A    
C15   C19   A    
C5    C40   S    
C47   H15   S    
O6    V2    S    
O20   V2    S    
C27   C47   S    
O5    C1    A    
C9    C10   S    
C2    C43   S    
C16   C52   S    
C13   C17   A    
O8    C4    A    
O9    C5    A    
C18   C22   A    
C16   C36   A    
C48   H20   S    
O14   V2    S    
C14   C50   S    
C31   C39   A    
C51   H29   S    
C13   C33   A    
C6    C39   S    
C46   H14   S    
O1    V3    S    
C22   C26   A    
C47   H17   S    
C29   C37   A    
C9    C41   T    
C3    O13   A    
O7    V3    S    
C3    C42   S    
O10   V2    S    
C25   C29   A    
C49   H23   S    
C52   H30   S    
O17   V3    S    
C27   C31   A    
O18   V4    S    
C28   C32   A    
O10   C6    A    
O15   V3    S    
O12   V4    S    
H4    C20   S    
H8    C23   S    
C49   H22   S    
C36   C39   A    
C17   C21   A    
C28   C48   S    
C19   C23   A    
C32   C40   A    
H1    C17   S    
H5    C22   S    
O6    C2    A    
O16   V4    S    
C29   C33   A    
H7    C24   S    
C16   C20   A    
C24   C28   A    
C51   H28   S    
O9    V1    S    
C12   C44   T    
C4    O14   A    
C48   H18   S    
C20   C24   A    
