data_mof_unit_55576.cif
_audit_creation_date              2012-12-11T14:08:30-0500
_audit_creation_method            fapswitch 2.2
_symmetry_space_group_name_H-M    P1
_symmetry_Int_Tables_number       1
_space_group_crystal_system       triclinic
_cell_length_a                    10.926558
_cell_length_b                    10.955317
_cell_length_c                    18.720109
_cell_angle_alpha                 89.922914
_cell_angle_beta                  89.494625
_cell_angle_gamma                 60.26397
_cell_volume                      1945.70436081

loop_
_atom_site_label
_atom_site_type_symbol
_atom_type_description
_atom_site_fract_x
_atom_site_fract_y
_atom_site_fract_z
_atom_type_partial_charge
C1    C     C_R   0.236774 0.644801 0.608815 0.546425
C2    C     C_2   0.791437 0.137387 0.703545 0.186756
C3    C     C_2   0.186483 0.655942 0.682067 -0.144931
C4    C     C_R   0.652302 0.620373 0.602401 0.545488
C5    C     C_2   0.192840 0.666053 0.838481 -0.090423
C6    C     C_2   0.222813 0.547747 0.802489 0.110766
C7    C     C_2   0.252051 0.542660 0.724891 -0.144936
C8    C     C_2   0.618738 0.616655 0.312122 -0.100556
C9    C     C_2   0.630184 0.657440 0.156952 -0.108923
C10   C     C_2   0.700506 0.532427 0.189843 -0.162839
C11   C     C_2   0.675958 0.510801 0.264872 -0.172021
C12   C     C_3   0.679601 0.535839 0.802706 0.278469
C13   C     C_2   0.639002 0.188632 0.321002 -0.132038
C14   C     C_2   0.633632 0.195587 0.165950 -0.037077
C15   C     C_2   0.527303 0.206929 0.206661 0.224690
C16   C     C_R   0.628357 0.226909 0.601713 0.570929
C17   C     C_2   0.522992 0.244042 0.280466 -0.161476
C18   C     C_2   0.110451 0.691073 0.350666 -0.109972
C19   C     C_2   0.118032 0.685906 0.189862 0.153793
C20   C     C_2   0.054083 0.798832 0.234165 -0.141209
C21   C     C_2   0.086436 0.798169 0.308755 -0.167991
C22   C     C_R   0.704774 0.100688 0.897007 0.561908
C23   C     C_3   0.697353 0.669778 0.814064 0.095733
C24   C     C_R   0.723437 0.687663 0.888798 0.550256
C25   C     C_R   0.118966 0.706630 0.907285 0.561519
C26   C     C_R   0.672754 0.112474 0.101901 0.564750
C27   C     C_R   0.691986 0.687550 0.094551 0.543265
C28   C     C_R   0.210901 0.654246 0.407373 0.545808
C29   C     C_R   0.085876 0.713225 0.115258 0.587272
C30   C     C_R   0.614340 0.587755 0.387533 0.567468
C31   C     C_R   0.616513 0.230484 0.394588 0.550263
C32   C     C_3   0.563612 0.803733 0.785682 -0.260558
C33   C     C_3   0.541807 0.783995 0.706559 -0.259082
C34   C     C_3   0.667331 0.643972 0.678177 0.009042
C35   C     C_3   0.822995 0.662891 0.769594 -0.243026
C36   C     C_3   0.272276 0.300561 0.798847 -0.317677
C37   C     C_3   0.139744 0.459017 0.215979 -0.273139
C38   C     C_3   0.940346 0.340376 0.810076 -0.318245
C39   C     C_3   0.528765 0.540289 0.909404 -0.295698
C40   C     C_3   0.806043 0.645213 0.689821 -0.268022
C41   C     C_3   0.670400 0.519396 0.720623 -0.146538
C42   C     C_2   0.676552 0.152534 0.669686 -0.073409
C43   C     C_2   0.697939 0.158953 0.825850 -0.050234
C44   C     C_2   0.809888 0.098638 0.780618 0.198485
Cr1   Cr    Cr6+3 0.393010 0.398050 0.501480 1.009256
Cr2   Cr    Cr6+3 0.398820 0.707980 0.501630 1.025041
Cr3   Cr    Cr6+3 0.708140 0.393940 0.496850 1.048968
Cr4   Cr    Cr6+3 0.937950 0.938450 0.008940 1.034225
Cr5   Cr    Cr6+3 0.626180 0.937030 0.994750 1.035575
Cr6   Cr    Cr6+3 0.937790 0.625760 0.001410 1.013413
H1    H     H_    0.576873 0.897882 0.790720 0.137905
H2    H     H_    0.107565 0.757477 0.702397 0.098154
H3    H     H_    0.789946 0.444680 0.163646 0.148839
H4    H     H_    0.721181 0.403065 0.283384 0.136684
H5    H     H_    0.535230 0.743467 0.180213 0.115606
H6    H     H_    0.575291 0.725409 0.295946 0.114341
H7    H     H_    0.418445 0.309533 0.303099 0.149946
H8    H     H_    0.706748 0.227426 0.186071 0.035634
H9    H     H_    0.744749 0.123092 0.299626 0.082175
H10   H     H_    0.985847 0.903190 0.212663 0.131466
H11   H     H_    0.441018 0.782853 0.700917 0.141740
H12   H     H_    0.757954 0.418220 0.701106 0.180388
H13   H     H_    0.109997 0.879088 0.325690 0.158045
H14   H     H_    0.077753 0.616171 0.335484 0.128610
H15   H     H_    0.532882 0.874365 0.675124 0.133349
H16   H     H_    0.826214 0.762162 0.777294 0.129826
H17   H     H_    0.804887 0.733198 0.659414 0.126584
H18   H     H_    0.574654 0.512636 0.707276 0.101020
H19   H     H_    0.006749 0.961273 0.765078 0.307285
H20   H     H_    0.963317 0.148628 0.700276 0.313809
H21   H     H_    0.274336 0.411101 0.889289 0.264645
H22   H     H_    0.262608 0.223413 0.833525 0.137753
H23   H     H_    0.927469 0.579653 0.787518 0.164500
H24   H     H_    0.383337 0.252898 0.780576 0.136833
H25   H     H_    0.202532 0.322706 0.752103 0.147462
H26   H     H_    0.372368 0.169770 0.222269 0.311138
H27   H     H_    0.276661 0.529940 0.252572 0.251366
H28   H     H_    0.174278 0.392057 0.264414 0.111511
H29   H     H_    0.169396 0.390860 0.167885 0.202746
H30   H     H_    0.022775 0.524353 0.218452 0.155027
H31   H     H_    0.788025 0.389257 0.887090 0.270415
H32   H     H_    0.998371 0.375351 0.844989 0.183771
H33   H     H_    0.952712 0.362392 0.753720 0.128294
H34   H     H_    0.897829 0.545974 0.670055 0.141523
H35   H     H_    0.990570 0.224852 0.816496 0.162930
H36   H     H_    0.453958 0.632430 0.808734 0.232799
H37   H     H_    0.416228 0.600695 0.925426 0.133835
H38   H     H_    0.586637 0.576564 0.943505 0.152241
H39   H     H_    0.565999 0.427533 0.919752 0.147281
H40   H     H_    0.595824 0.239025 0.806864 0.050717
H41   H     H_    0.605333 0.125075 0.697024 0.026643
H42   H     H_    0.332396 0.443132 0.702559 0.152862
H43   H     H_    0.206524 0.746895 0.812075 0.081549
H44   H     H_    0.467657 0.828294 0.817455 0.128365
N1    N     N_2   0.231378 0.428372 0.838916 -0.495488
N2    N     N_2   0.206670 0.544891 0.212533 -0.524849
N3    N     N_2   0.794414 0.404705 0.833261 -0.479677
N4    N     N_2   0.544873 0.560808 0.833911 -0.522979
O1    O     O_R   0.507110 0.256280 0.580300 -0.537016
O2    O     O_R   0.837080 0.593860 0.915300 -0.527940
O3    O     O_R   0.064770 0.636080 0.932550 -0.487839
O4    O     O_R   0.280830 0.527190 0.577940 -0.500833
O5    O     O_R   0.068250 0.829200 0.092940 -0.542008
O6    O     O_R   0.799650 0.057040 0.080330 -0.536942
O7    O     O_R   0.586130 0.079760 0.077080 -0.434101
O8    O     O_R   0.627700 0.809630 0.066580 -0.485377
O9    O     O_R   0.816140 0.597180 0.075920 -0.525427
O10   O     O_R   0.045360 0.639170 0.081440 -0.494600
O11   O     O_3   0.833980 0.833750 0.001700 -0.260105
O12   O     O_R   0.524640 0.695370 0.425100 -0.493998
O13   O     O_R   0.261360 0.738990 0.584270 -0.506979
O14   O     O_R   0.532590 0.694780 0.574370 -0.503120
O15   O     O_R   0.744470 0.503750 0.577000 -0.511077
O16   O     O_R   0.698520 0.277230 0.571620 -0.433696
O17   O     O_R   0.498530 0.256920 0.419280 -0.512989
O18   O     O_R   0.272880 0.527780 0.428680 -0.510496
O19   O     O_R   0.252780 0.739630 0.423250 -0.516338
O20   O     O_3   0.939568 0.997428 0.805697 -0.694562
O21   O     O_3   0.891261 0.155522 0.666381 -0.691438
O22   O     O_3   0.429150 0.172885 0.181410 -0.669436
O23   O     O_R   0.735890 0.504390 0.415980 -0.504432
O24   O     O_R   0.690560 0.277820 0.422350 -0.515920
O25   O     O_3   0.499990 0.499990 0.499980 -0.282430
O26   O     O_R   0.089190 0.825870 0.932320 -0.482598
O27   O     O_R   0.819070 0.053960 0.931440 -0.440848
O28   O     O_R   0.607070 0.076440 0.916460 -0.543735
O29   O     O_R   0.647110 0.806550 0.917690 -0.517880

loop_
_geom_bond_atom_site_label_1
_geom_bond_atom_site_label_2
_ccdc_geom_bond_type
Cr3   O16   S    
C32   H44   S    
Cr2   O14   S    
C38   H33   S    
C18   C21   D    
C40   H34   S    
C19   C20   D    
C36   N1    S    
C39   H37   S    
C18   H14   S    
C8    H6    S    
C33   H15   S    
Cr1   O25   S    
Cr5   O28   S    
C37   H29   S    
C12   C23   S    
H26   O22   S    
C30   O12   A    
C34   C40   S    
C39   H38   S    
C3    C7    D    
C28   O19   A    
C5    C6    D    
Cr3   O23   S    
H21   N1    S    
Cr4   O6    S    
H19   O20   S    
C15   O22   S    
C29   O5    A    
C15   C17   S    
C42   H41   S    
C10   H3    S    
C28   O18   A    
C26   O6    A    
Cr4   O27   S    
C2    C44   S    
C40   H17   S    
C24   O29   A    
C23   C24   S    
C29   O10   A    
C9    H5    S    
C44   O20   S    
C20   H10   S    
C9    C10   D    
C12   N4    S    
Cr4   O11   S    
C4    O14   A    
Cr2   O13   S    
C38   H32   S    
Cr6   O10   S    
C34   C41   S    
C41   H12   S    
C38   N3    S    
C14   H8    S    
C26   O7    A    
C31   O17   A    
C41   H18   S    
Cr5   O29   S    
C37   H30   S    
C4    C34   S    
C43   H40   S    
C38   H35   S    
C4    O15   A    
C18   C28   S    
Cr1   O1    S    
C22   O27   A    
Cr5   O7    S    
C35   H16   S    
Cr4   O5    S    
Cr6   O11   S    
C37   N2    S    
C1    C3    S    
C43   C44   D    
C32   H1    S    
C12   C41   S    
C36   H25   S    
Cr1   O17   S    
Cr3   O25   S    
C22   C43   S    
C30   O23   A    
C27   O9    A    
H20   O21   S    
C2    O21   S    
C33   C34   S    
C14   C26   S    
C12   N3    S    
Cr5   O8    S    
C11   H4    S    
C36   H24   S    
C5    C25   S    
C23   C35   S    
Cr2   O12   S    
Cr6   O9    S    
Cr2   O25   S    
C19   C29   S    
C16   C42   S    
C9    C27   S    
Cr5   O11   S    
Cr3   O15   S    
C35   H23   S    
C24   O2    A    
Cr1   O4    S    
C13   C31   S    
C39   N4    S    
C31   O24   A    
Cr3   O24   S    
C16   O16   A    
Cr4   O26   S    
C5    H43   S    
C3    H2    S    
C16   O1    A    
C6    C7    S    
C13   H9    S    
C37   H28   S    
H27   N2    S    
Cr6   O2    S    
C27   O8    A    
C13   C17   D    
C8    C30   S    
C32   C33   S    
C35   C40   S    
C23   C32   S    
Cr1   O18   S    
C25   O3    A    
H31   N3    S    
C2    C42   D    
C8    C11   D    
C7    H42   S    
H36   N4    S    
C25   O26   A    
C21   H13   S    
C22   O28   A    
C10   C11   S    
C20   C21   S    
Cr2   O19   S    
Cr6   O3    S    
C33   H11   S    
C6    N1    S    
C14   C15   D    
C1    O4    A    
C39   H39   S    
C1    O13   A    
C19   N2    S    
C36   H22   S    
C17   H7    S    
