data_mof_unit_60619.cif
_audit_creation_date              2012-12-10T16:48:09-0500
_audit_creation_method            fapswitch 2.2
_symmetry_space_group_name_H-M    P1
_symmetry_Int_Tables_number       1
_space_group_crystal_system       triclinic
_cell_length_a                    18.748502
_cell_length_b                    18.653551
_cell_length_c                    32.791591
_cell_angle_alpha                 90.063138
_cell_angle_beta                  89.740532
_cell_angle_gamma                 89.85006
_cell_volume                      11467.9125114

loop_
_atom_site_label
_atom_site_type_symbol
_atom_type_description
_atom_site_fract_x
_atom_site_fract_y
_atom_site_fract_z
_atom_type_partial_charge
C1    C     C_1   0.999711 0.499740 0.731166 -0.006392
C2    C     C_1   0.999979 0.499917 0.350797 -0.010998
C3    C     C_3   0.661470 0.635578 0.448675 -0.282893
C4    C     C_3   0.627283 0.575616 0.423898 -0.484849
C5    C     C_3   0.411885 0.717543 0.478582 0.029525
C6    C     C_3   0.401004 0.724770 0.432149 -0.270862
C7    C     C_3   0.466837 0.699268 0.408751 -0.498240
C8    C     C_3   0.717065 0.182811 0.074824 0.055363
C9    C     C_3   0.654145 0.169812 0.103890 -0.267192
C10   C     C_3   0.672599 0.113731 0.136007 -0.463299
C11   C     C_3   0.129740 0.195441 0.979111 0.020932
C12   C     C_3   0.100999 0.124480 0.995581 -0.244414
C13   C     C_1   0.000312 0.499912 0.850827 -0.012526
C14   C     C_3   0.160026 0.077272 0.013166 -0.375444
C15   C     C_3   0.266452 0.828585 0.071166 0.059894
C16   C     C_3   0.320920 0.847105 0.104295 -0.259457
C17   C     C_3   0.297618 0.912752 0.128810 -0.462560
C18   C     C_3   0.763299 0.613763 0.063321 0.015880
C19   C     C_3   0.716060 0.559682 0.040720 -0.264055
C20   C     C_3   0.725319 0.484244 0.057901 -0.466981
C21   C     C_3   0.590598 0.719993 0.024823 0.027925
C22   C     C_3   0.597495 0.736414 0.070657 -0.274333
C23   C     C_3   0.525890 0.727897 0.092424 -0.489136
C24   C     C_1   0.500021 0.999911 0.850788 -0.012891
C25   C     C_3   0.116167 0.798608 0.981909 0.001436
C26   C     C_3   0.100043 0.875307 0.995380 -0.257617
C27   C     C_3   0.047289 0.911666 0.966724 -0.486843
C28   C     C_3   0.334831 0.216187 0.077172 0.025613
C29   C     C_3   0.316631 0.160382 0.109773 -0.251061
C30   C     C_3   0.371625 0.160089 0.143945 -0.475996
C31   C     C_3   0.888102 0.198610 0.995457 0.012574
C32   C     C_3   0.856358 0.138710 0.969294 -0.275734
C33   C     C_3   0.914401 0.090021 0.951827 -0.489741
C34   C     C_1   0.499900 0.000105 0.268756 -0.007685
C35   C     C_1   0.999926 0.499982 0.268783 -0.003986
C36   C     C_1   0.999936 0.499773 0.768779 -0.005693
C37   C     C_1   0.500073 0.999954 0.768766 -0.006177
C38   C     C_1   0.999565 0.499815 0.649125 -0.016777
C39   C     C_1   0.500064 0.000077 0.649154 -0.023234
C40   C     C_1   0.499535 0.999996 0.149106 -0.034399
C41   C     C_1   0.500088 0.999999 0.731163 -0.008390
C42   C     C_1   0.999913 0.500090 0.149168 -0.007262
C43   C     C_R   0.500026 0.000032 0.603990 0.487372
C44   C     C_R   0.999846 0.499926 0.603937 0.488537
C45   C     C_R   0.999954 0.500035 0.103994 0.485279
C46   C     C_R   0.499843 0.999987 0.103930 0.476041
C47   C     C_R   0.500129 0.999987 0.396023 0.485141
C48   C     C_R   0.999998 0.499967 0.395973 0.485945
C49   C     C_R   0.000131 0.499985 0.896027 0.483227
C50   C     C_R   0.499997 0.999966 0.895970 0.489028
C51   C     C_R   0.359801 0.138168 0.501308 0.487683
C52   C     C_1   0.499666 0.000113 0.231140 -0.011703
C53   C     C_R   0.139899 0.636984 0.498814 0.493197
C54   C     C_R   0.640109 0.861824 0.501050 0.487002
C55   C     C_R   0.862022 0.359415 0.501435 0.498393
C56   C     C_R   0.362955 0.860267 0.499259 0.499596
C57   C     C_R   0.139685 0.361645 0.499198 0.511797
C58   C     C_R   0.637944 0.140454 0.499038 0.514673
C59   C     C_R   0.859963 0.637979 0.499222 0.513201
C60   C     C_R   0.861722 0.638955 0.000356 0.478173
C61   C     C_R   0.637614 0.140482 0.001123 0.486647
C62   C     C_R   0.138269 0.360300 0.999607 0.513192
C63   C     C_1   0.999907 0.500031 0.231182 -0.003610
C64   C     C_R   0.361959 0.859729 0.001091 0.487941
C65   C     C_R   0.862106 0.359887 0.999441 0.499429
C66   C     C_R   0.636804 0.859621 0.000795 0.485696
C67   C     C_R   0.138263 0.639822 0.999502 0.514716
C68   C     C_R   0.361934 0.139828 0.000738 0.492581
C69   C     C_1   0.500179 0.000058 0.313195 -0.041862
C70   C     C_1   0.999955 0.499932 0.313195 -0.039867
C71   C     C_1   0.000202 0.499844 0.813211 -0.041604
C72   C     C_1   0.500046 0.999916 0.813182 -0.041294
C73   C     C_2   0.193601 0.751612 0.493268 -0.094247
C74   C     C_1   0.999543 0.499752 0.686737 -0.045625
C75   C     C_2   0.742814 0.798741 0.473793 -0.096463
C76   C     C_2   0.803490 0.251157 0.477253 -0.068895
C77   C     C_2   0.251789 0.195503 0.476797 -0.099218
C78   C     C_2   0.191550 0.246078 0.480065 -0.091763
C79   C     C_2   0.754176 0.190397 0.482603 -0.064651
C80   C     C_2   0.803957 0.749252 0.476415 -0.095335
C81   C     C_2   0.248860 0.806727 0.487957 -0.103563
C82   C     C_2   0.703943 0.240097 0.972972 -0.096920
C83   C     C_2   0.251648 0.306668 0.979291 -0.125127
C84   C     C_2   0.299363 0.756461 0.974274 -0.097449
C85   C     C_1   0.500085 0.000053 0.686752 -0.050034
C86   C     C_2   0.802458 0.748554 0.987333 -0.073300
C87   C     C_2   0.752835 0.807937 0.995434 -0.077999
C88   C     C_2   0.250178 0.695057 0.977119 -0.101463
C89   C     C_2   0.302603 0.246809 0.976422 -0.122246
C90   C     C_2   0.753202 0.301576 0.975039 -0.101886
C91   C     C_2   0.202474 0.680305 0.490713 0.321893
C92   C     C_2   0.700821 0.812387 0.506256 0.311009
C93   C     C_2   0.813375 0.297796 0.507977 0.293502
C94   C     C_2   0.298890 0.187626 0.507274 0.303898
C95   C     C_2   0.200853 0.313726 0.493378 0.314800
C96   C     C_1   0.499495 0.000063 0.186713 -0.059100
C97   C     C_2   0.685513 0.202381 0.492605 0.303710
C98   C     C_2   0.797570 0.684418 0.493960 0.309166
C99   C     C_2   0.319079 0.797494 0.494044 0.309673
C100  C     C_2   0.685417 0.202488 0.006353 0.309965
C101  C     C_2   0.186384 0.299124 0.995950 0.303564
C102  C     C_2   0.313125 0.798558 0.006628 0.306397
C103  C     C_2   0.802923 0.687516 0.008889 0.344807
C104  C     C_2   0.683508 0.797378 0.003285 0.323604
C105  C     C_2   0.185907 0.701425 0.995265 0.299227
C106  C     C_2   0.315372 0.201832 0.007579 0.302520
C107  C     C_1   0.999899 0.500079 0.186770 -0.037874
C108  C     C_2   0.814487 0.297904 0.996171 0.306047
C109  C     C_3   0.283061 0.582075 0.489081 0.039521
C110  C     C_3   0.304289 0.585191 0.534662 -0.239386
C111  C     C_3   0.316294 0.510740 0.552550 -0.481484
C112  C     C_3   0.670846 0.764071 0.570267 0.058848
C113  C     C_3   0.652262 0.817490 0.604290 -0.259344
C114  C     C_3   0.587875 0.792582 0.629049 -0.462728
C115  C     C_3   0.767150 0.333818 0.572444 0.023056
C116  C     C_3   0.824103 0.348359 0.604812 -0.237284
C117  C     C_3   0.804129 0.412850 0.631182 -0.458925
C118  C     C_1   0.500302 0.000017 0.350816 -0.012283
C119  C     C_3   0.337489 0.247088 0.566548 0.057072
C120  C     C_3   0.359360 0.201056 0.603161 -0.252364
C121  C     C_3   0.429339 0.226727 0.621608 -0.468203
C122  C     C_3   0.294122 0.380636 0.468591 -0.010761
C123  C     C_3   0.342883 0.335310 0.441161 -0.268771
C124  C     C_3   0.384291 0.382023 0.411158 -0.482938
C125  C     C_3   0.615778 0.297529 0.517943 0.033181
C126  C     C_3   0.539431 0.310886 0.503201 -0.260116
C127  C     C_3   0.498521 0.360042 0.532368 -0.506804
C128  C     C_3   0.704762 0.605336 0.484276 0.004240
H1    H     H_    0.141293 0.772528 0.501663 0.074381
H2    H     H_    0.266998 0.357172 0.965369 0.100276
H3    H     H_    0.710141 0.483136 0.090676 0.143752
H4    H     H_    0.573900 0.663212 0.021701 0.136977
H5    H     H_    0.546459 0.751000 0.010973 0.157412
H6    H     H_    0.636639 0.699220 0.084576 0.190216
H7    H     H_    0.616372 0.792095 0.075542 0.165951
H8    H     H_    0.486009 0.765727 0.079587 0.150442
H9    H     H_    0.532288 0.739770 0.125392 0.150665
H10   H     H_    0.506072 0.672142 0.089071 0.152459
H11   H     H_    0.065270 0.768033 0.980703 0.144577
H12   H     H_    0.140607 0.800399 0.950825 0.113542
H13   H     H_    0.323628 0.767440 0.944788 0.085199
H14   H     H_    0.077344 0.874890 0.026758 0.173498
H15   H     H_    0.150531 0.906385 0.995753 0.156170
H16   H     H_    0.069865 0.914736 0.935400 0.146958
H17   H     H_    0.036221 0.966846 0.977699 0.141275
H18   H     H_    0.996259 0.881563 0.966001 0.147738
H19   H     H_    0.331669 0.270323 0.091244 0.143664
H20   H     H_    0.391287 0.209045 0.066936 0.103608
H21   H     H_    0.263118 0.172419 0.122850 0.168868
H22   H     H_    0.314728 0.106147 0.095864 0.193415
H23   H     H_    0.425427 0.147274 0.131568 0.149911
H24   H     H_    0.842746 0.757488 0.963902 0.045831
H25   H     H_    0.357158 0.118762 0.166864 0.153263
H26   H     H_    0.373089 0.213231 0.159227 0.144938
H27   H     H_    0.923589 0.174223 0.018699 0.155256
H28   H     H_    0.922526 0.233866 0.976210 0.110023
H29   H     H_    0.819291 0.105980 0.988128 0.173068
H30   H     H_    0.825829 0.162626 0.943721 0.150119
H31   H     H_    0.952510 0.121568 0.933070 0.140228
H32   H     H_    0.889811 0.048284 0.932286 0.151546
H33   H     H_    0.943550 0.063100 0.976936 0.138779
H34   H     H_    0.772428 0.861903 0.989868 0.064354
H35   H     H_    0.265781 0.645162 0.962452 0.097512
H36   H     H_    0.331324 0.240595 0.947774 0.092184
H37   H     H_    0.740827 0.348692 0.956954 0.096564
H38   H     H_    0.330674 0.563480 0.471747 0.116453
H39   H     H_    0.241856 0.540948 0.482753 0.135149
H40   H     H_    0.354505 0.615614 0.538312 0.185639
H41   H     H_    0.731961 0.823301 0.444428 0.082035
H42   H     H_    0.262871 0.612826 0.553158 0.187760
H43   H     H_    0.268759 0.476462 0.547800 0.209378
H44   H     H_    0.325900 0.515319 0.585838 0.144082
H45   H     H_    0.363981 0.485404 0.538403 0.128769
H46   H     H_    0.692558 0.715000 0.584896 0.168284
H47   H     H_    0.622789 0.745626 0.553388 0.146897
H48   H     H_    0.698821 0.823166 0.624901 0.157652
H49   H     H_    0.640679 0.871177 0.591316 0.194915
H50   H     H_    0.540218 0.788453 0.609177 0.175281
H51   H     H_    0.576351 0.831957 0.653652 0.157130
H52   H     H_    0.829816 0.258073 0.447947 0.095011
H53   H     H_    0.598828 0.739561 0.643113 0.135380
H54   H     H_    0.718310 0.315933 0.588764 0.122332
H55   H     H_    0.750503 0.382948 0.555822 0.140004
H56   H     H_    0.829623 0.300368 0.624627 0.157715
H57   H     H_    0.876726 0.358134 0.590263 0.190033
H58   H     H_    0.799494 0.461763 0.612070 0.177941
H59   H     H_    0.846111 0.421810 0.654402 0.153674
H60   H     H_    0.752601 0.403212 0.647078 0.131805
H61   H     H_    0.318240 0.299504 0.578447 0.167056
H62   H     H_    0.383541 0.260501 0.546512 0.147927
H63   H     H_    0.258035 0.166047 0.448399 0.086580
H64   H     H_    0.316680 0.203643 0.626761 0.154054
H65   H     H_    0.365385 0.144076 0.593916 0.198909
H66   H     H_    0.473489 0.220453 0.599166 0.171834
H67   H     H_    0.442033 0.194058 0.648930 0.155164
H68   H     H_    0.424946 0.283881 0.630854 0.130522
H69   H     H_    0.326183 0.425004 0.481259 0.136892
H70   H     H_    0.251169 0.406267 0.450099 0.102726
H71   H     H_    0.381418 0.304964 0.460222 0.164489
H72   H     H_    0.310269 0.296452 0.423675 0.152283
H73   H     H_    0.346916 0.412939 0.391686 0.149940
H74   H     H_    0.139338 0.227893 0.470326 0.096884
H75   H     H_    0.418062 0.347512 0.391293 0.151388
H76   H     H_    0.419423 0.419790 0.427854 0.139013
H77   H     H_    0.638820 0.350018 0.526702 0.132332
H78   H     H_    0.616162 0.264054 0.546049 0.140081
H79   H     H_    0.540885 0.336643 0.472643 0.175240
H80   H     H_    0.510781 0.259129 0.500323 0.180634
H81   H     H_    0.496249 0.336153 0.563317 0.140060
H82   H     H_    0.443341 0.368031 0.521100 0.148722
H83   H     H_    0.524740 0.413279 0.534153 0.140942
H84   H     H_    0.668718 0.572694 0.503753 0.146345
H85   H     H_    0.775480 0.136297 0.480464 0.093331
H86   H     H_    0.746746 0.568002 0.472672 0.125956
H87   H     H_    0.619044 0.671770 0.460638 0.159015
H88   H     H_    0.696991 0.667068 0.428294 0.154578
H89   H     H_    0.668725 0.537892 0.412433 0.153884
H90   H     H_    0.599060 0.598851 0.397310 0.148169
H91   H     H_    0.588229 0.545800 0.442945 0.140861
H92   H     H_    0.428613 0.661510 0.484858 0.131317
H93   H     H_    0.457397 0.750936 0.488639 0.144533
H94   H     H_    0.354610 0.692417 0.422303 0.214398
H95   H     H_    0.390820 0.781660 0.424003 0.148217
H96   H     H_    0.853944 0.765445 0.462372 0.098468
H97   H     H_    0.514349 0.730839 0.417860 0.142433
H98   H     H_    0.458238 0.706336 0.375518 0.154410
H99   H     H_    0.476637 0.641560 0.414901 0.144308
H100  H     H_    0.760969 0.206801 0.092887 0.168999
H101  H     H_    0.739703 0.132038 0.062342 0.152378
H102  H     H_    0.639971 0.220941 0.119411 0.156631
H103  H     H_    0.606619 0.151712 0.086695 0.181087
H104  H     H_    0.685320 0.061625 0.121205 0.176360
H105  H     H_    0.626353 0.106141 0.156811 0.154219
H106  H     H_    0.719071 0.131507 0.154277 0.140105
H107  H     H_    0.228558 0.860997 0.484232 0.089011
H108  H     H_    0.168216 0.183820 0.953944 0.114199
H109  H     H_    0.083857 0.226380 0.966578 0.091174
H110  H     H_    0.060433 0.135387 0.019635 0.161402
H111  H     H_    0.074698 0.095119 0.970331 0.098260
H112  H     H_    0.200425 0.064504 0.989344 0.144665
H113  H     H_    0.136590 0.026536 0.024564 0.104202
H114  H     H_    0.186372 0.104402 0.039179 0.224740
H115  H     H_    0.218253 0.806957 0.086618 0.170572
H116  H     H_    0.247266 0.876899 0.054490 0.145733
H117  H     H_    0.326793 0.800647 0.125223 0.153364
H118  H     H_    0.684345 0.224665 0.943093 0.079026
H119  H     H_    0.374047 0.857602 0.090521 0.188398
H120  H     H_    0.293202 0.960276 0.108572 0.166241
H121  H     H_    0.337763 0.924335 0.152712 0.155496
H122  H     H_    0.245286 0.902840 0.143752 0.135972
H123  H     H_    0.741511 0.619992 0.094678 0.131833
H124  H     H_    0.818355 0.593107 0.067765 0.136897
H125  H     H_    0.659322 0.575850 0.043970 0.159927
H126  H     H_    0.729285 0.558675 0.007720 0.197125
H127  H     H_    0.781605 0.466386 0.054511 0.157553
H128  H     H_    0.690668 0.446338 0.041017 0.164264
O1    O     O_3   0.500000 0.000000 0.499990 -0.408053
O2    O     O_R   0.439860 0.000000 0.084000 -0.549734
O3    O     O_R   0.000000 0.560140 0.084000 -0.531461
O4    O     O_R   0.560140 0.000000 0.084000 -0.537995
O5    O     O_R   0.439920 0.000000 0.415980 -0.531373
O6    O     O_R   0.000000 0.560080 0.415980 -0.529484
O7    O     O_R   0.560080 0.000000 0.415980 -0.529632
O8    O     O_R   1.000000 0.439920 0.415980 -0.531679
O9    O     O_R   0.939920 0.500000 0.915980 -0.528618
O10   O     O_R   0.500000 0.060080 0.915980 -0.529543
O11   O     O_R   0.060080 0.500000 0.915980 -0.534090
O12   O     O_3   0.000000 0.500000 0.499990 -0.414162
O13   O     O_R   0.500000 0.939920 0.915980 -0.526574
O14   O     O_R   0.415460 0.144560 0.522020 -0.571323
O15   O     O_R   0.144560 0.584540 0.522020 -0.568766
O16   O     O_R   0.584540 0.855440 0.522020 -0.572973
O17   O     O_R   0.855440 0.415460 0.522020 -0.565897
O18   O     O_R   0.415460 0.855440 0.522020 -0.538819
O19   O     O_R   0.144560 0.415460 0.522020 -0.534052
O20   O     O_R   0.584540 0.144560 0.522020 -0.559887
O21   O     O_R   0.855440 0.584540 0.522020 -0.525136
O22   O     O_R   0.915460 0.644560 0.022020 -0.554249
O23   O     O_3   1.000000 0.500000 0.999990 -0.421886
O24   O     O_R   0.644560 0.084540 0.022020 -0.563890
O25   O     O_R   0.084540 0.355440 0.022020 -0.510715
O26   O     O_R   0.355440 0.915460 0.022020 -0.563952
O27   O     O_R   0.915460 0.355440 0.022020 -0.523393
O28   O     O_R   0.644560 0.915460 0.022020 -0.561286
O29   O     O_R   0.084540 0.644560 0.022020 -0.515600
O30   O     O_R   0.355440 0.084540 0.022020 -0.546967
O31   O     O_R   0.644640 0.915430 0.477970 -0.551743
O32   O     O_R   0.915430 0.355360 0.477970 -0.552547
O33   O     O_R   0.355360 0.084570 0.477970 -0.550621
O34   O     O_3   0.500000 0.000000 0.999990 -0.406319
O35   O     O_R   0.084570 0.644640 0.477970 -0.546056
O36   O     O_R   0.644640 0.084570 0.477970 -0.551112
O37   O     O_R   0.915430 0.644640 0.477970 -0.568809
O38   O     O_R   0.355360 0.915430 0.477970 -0.565013
O39   O     O_R   0.084570 0.355360 0.477970 -0.570533
O40   O     O_R   0.144640 0.415430 0.977970 -0.572556
O41   O     O_R   0.415430 0.855360 0.977970 -0.560251
O42   O     O_R   0.855360 0.584570 0.977970 -0.555261
O43   O     O_R   0.584570 0.144640 0.977970 -0.551423
O44   O     O_R   0.144640 0.584570 0.977970 -0.569844
O45   O     O_R   0.500000 0.939860 0.584000 -0.537973
O46   O     O_R   0.415430 0.144640 0.977970 -0.563444
O47   O     O_R   0.855360 0.415430 0.977970 -0.573456
O48   O     O_R   0.584570 0.855360 0.977970 -0.542357
O49   O     O_3   0.263443 0.650156 0.472985 -0.553450
O50   O     O_3   0.725102 0.792516 0.544914 -0.552180
O51   O     O_3   0.788852 0.276965 0.546671 -0.586845
O52   O     O_3   0.280176 0.214277 0.545792 -0.553704
O53   O     O_3   0.268571 0.339458 0.501861 -0.573684
O54   O     O_3   0.657877 0.270713 0.485440 -0.585161
O55   O     O_3   0.731847 0.661544 0.508751 -0.566608
O56   O     O_R   0.939860 0.500000 0.584000 -0.544336
O57   O     O_3   0.348979 0.730948 0.502129 -0.542626
O58   O     O_3   0.697905 0.233217 0.044578 -0.556669
O59   O     O_3   0.162927 0.233784 0.010919 -0.501015
O60   O     O_3   0.293761 0.773979 0.045420 -0.556363
O61   O     O_3   0.761725 0.682348 0.044576 -0.549976
O62   O     O_3   0.655884 0.727624 0.002977 -0.539941
O63   O     O_3   0.163145 0.767139 0.010298 -0.557179
O64   O     O_3   0.283616 0.213171 0.045527 -0.530654
O65   O     O_3   0.833064 0.235419 0.016604 -0.554370
O66   O     O_R   0.500000 0.060140 0.584000 -0.540524
O67   O     O_R   0.060140 0.500000 0.584000 -0.525498
O68   O     O_R   0.000000 0.439860 0.084000 -0.526304
Zn1   Zn    Zn3+2 0.414160 1.000000 0.468520 0.932790
Zn2   Zn    Zn3+2 0.085780 0.500000 0.531460 0.926811
Zn3   Zn    Zn3+2 0.500000 0.914220 0.531460 0.912873
Zn4   Zn    Zn3+2 0.914220 0.500000 0.531460 0.920078
Zn5   Zn    Zn3+2 0.000000 0.585780 0.031460 0.942109
Zn6   Zn    Zn3+2 0.585780 0.000000 0.031460 0.908720
Zn7   Zn    Zn3+2 1.000000 0.414220 0.031460 0.952430
Zn8   Zn    Zn3+2 0.414220 0.000000 0.031460 0.894316
Zn9   Zn    Zn3+2 0.000000 0.585840 0.468520 0.937517
Zn10  Zn    Zn3+2 0.585840 1.000000 0.468520 0.940823
Zn11  Zn    Zn3+2 1.000000 0.414160 0.468520 0.930079
Zn12  Zn    Zn3+2 0.914160 0.500000 0.968520 0.916562
Zn13  Zn    Zn3+2 0.500000 0.085840 0.968520 0.932334
Zn14  Zn    Zn3+2 0.085840 0.500000 0.968520 0.923204
Zn15  Zn    Zn3+2 0.500000 0.914160 0.968520 0.935567
Zn16  Zn    Zn3+2 0.500000 0.085780 0.531460 0.907990

loop_
_geom_bond_atom_site_label_1
_geom_bond_atom_site_label_2
_ccdc_geom_bond_type
C113  H49   S    
C126  C127  S    
C67   O44   A    
C44   O56   A    
C19   C20   S    
C76   C79   S    
C55   C93   S    
O28   Zn6   S    
C47   O5    A    
C40   C46   S    
C28   O64   S    
C6    H95   S    
O44   Zn14  S    
C5    C6    S    
O29   Zn5   S    
C3    H87   S    
O41   Zn15  S    
C17   H122  S    
C11   H108  S    
C111  H44   S    
C110  C111  S    
C101  O59   S    
C127  H81   S    
C102  O60   S    
C53   O15   A    
C89   C106  D    
C75   H41   S    
O8    Zn11  S    
C62   O40   A    
C60   C103  S    
C105  O63   S    
C65   C108  S    
O4    Zn6   S    
C36   C71   S    
C106  O64   S    
C62   C101  S    
C12   H110  S    
C93   O51   S    
C94   O52   S    
C21   C22   S    
O1    Zn10  S    
O23   Zn5   S    
C73   C81   S    
C58   O20   A    
C46   O4    A    
C25   H12   S    
C67   C105  S    
O6    Zn9   S    
C81   C99   D    
C17   H120  S    
C54   O31   A    
C77   C78   S    
O35   Zn9   S    
O1    Zn1   S    
O25   Zn7   S    
C42   C45   S    
C33   H33   S    
C21   H4    S    
C54   C92   S    
C57   O39   A    
C86   H24   S    
O46   Zn13  S    
C31   H27   S    
C126  H79   S    
C27   H17   S    
C4    H91   S    
C10   H104  S    
C34   C69   S    
O34   Zn6   S    
O7    Zn10  S    
C90   H37   S    
C56   O18   A    
C61   O24   A    
C39   C85   T    
C121  H66   S    
O2    Zn8   S    
C20   H127  S    
C25   O63   S    
C56   O38   A    
C10   H105  S    
C79   C97   D    
C84   C88   S    
C6    C7    S    
C114  H53   S    
C116  H57   S    
C124  H73   S    
O10   Zn13  S    
C22   H7    S    
C47   O7    A    
C7    H99   S    
C125  H77   S    
C109  H38   S    
C29   H21   S    
C64   O26   A    
C30   H26   S    
C22   C23   S    
C35   C63   T    
O22   Zn5   S    
C128  H86   S    
C6    H94   S    
C46   O2    A    
C112  H46   S    
O42   Zn12  S    
C84   C102  D    
C62   O25   A    
C31   H28   S    
C8    H100  S    
C123  C124  S    
C64   C102  S    
O1    Zn3   S    
C23   H8    S    
C1    C74   S    
C123  H71   S    
C51   O33   A    
C117  H58   S    
C115  C116  S    
C109  O49   S    
C77   C94   D    
C78   H74   S    
C53   O35   A    
C14   H114  S    
C19   H125  S    
C114  H50   S    
C53   C91   S    
O26   Zn8   S    
C81   H107  S    
C18   O61   S    
C9    C10   S    
C89   H36   S    
C33   H32   S    
C5    O57   S    
O38   Zn1   S    
C97   O54   S    
C24   C50   S    
C83   C89   S    
C15   H115  S    
C82   H118  S    
C124  H75   S    
C3    C128  S    
C7    H97   S    
C25   C26   S    
O66   Zn16  S    
C122  O53   S    
C9    H102  S    
O9    Zn12  S    
C29   C30   S    
O30   Zn8   S    
C8    H101  S    
C31   C32   S    
C18   H123  S    
C122  H70   S    
C91   O49   S    
C4    H90   S    
C61   C100  S    
O34   Zn15  S    
C26   H15   S    
C115  H54   S    
C120  C121  S    
C24   C72   T    
C32   H29   S    
C38   C74   T    
C68   O46   A    
C83   C101  D    
C108  O65   S    
C115  O51   S    
C117  H60   S    
C100  O58   S    
C120  H65   S    
C90   C108  D    
O36   Zn10  S    
C14   H112  S    
C88   C105  D    
O24   Zn6   S    
C92   O50   S    
O21   Zn4   S    
C116  H56   S    
C17   H121  S    
C111  H43   S    
C37   C41   T    
C87   H34   S    
O17   Zn4   S    
C51   O14   A    
C98   O55   S    
C59   C98   S    
O19   Zn2   S    
C56   C99   S    
C3    C4    S    
C1    C36   T    
C61   O43   A    
O23   Zn14  S    
C23   H10   S    
C119  H62   S    
C45   O68   A    
C16   H117  S    
C65   O47   A    
O68   Zn7   S    
C66   O48   A    
C26   C27   S    
C128  O55   S    
C28   C29   S    
C25   H11   S    
C69   C118  T    
C18   C19   S    
C21   H5    S    
C95   O53   S    
C47   C118  S    
C126  H80   S    
C16   C17   S    
O34   Zn13  S    
C42   C107  T    
O33   Zn1   S    
C58   O36   A    
C60   O22   A    
O16   Zn3   S    
O47   Zn12  S    
C40   C96   T    
C43   O66   A    
O27   Zn7   S    
C20   H128  S    
C57   O19   A    
C73   H1    S    
C28   H20   S    
C10   H106  S    
C77   H63   S    
O40   Zn14  S    
C99   O57   S    
C86   C87   S    
C13   C71   T    
C2    C48   S    
C3    H88   S    
C38   C44   S    
C66   C104  S    
C76   C93   D    
C80   H96   S    
C127  H82   S    
C50   O13   A    
C78   C95   D    
O12   Zn9   S    
C27   H16   S    
C113  H48   S    
C68   O30   A    
C110  H42   S    
C124  H76   S    
C59   O21   A    
C125  C126  S    
C20   H3    S    
C113  C114  S    
C16   H119  S    
O18   Zn3   S    
O15   Zn2   S    
O12   Zn2   S    
C80   C98   D    
C76   H52   S    
C115  H55   S    
C119  C120  S    
C49   O9    A    
C34   C52   T    
C82   C90   S    
O48   Zn15  S    
C49   O11   A    
C104  O62   S    
C32   C33   S    
C109  C110  S    
C128  H84   S    
C84   H13   S    
C27   H18   S    
C48   O6    A    
C87   C104  D    
C114  H51   S    
C37   C72   S    
C125  O54   S    
C2    C70   T    
C121  H67   S    
C33   H31   S    
C28   H19   S    
C5    H93   S    
C50   O10   A    
C103  O61   S    
O45   Zn3   S    
O14   Zn16  S    
O1    Zn16  S    
C43   O45   A    
C21   O62   S    
C22   H6    S    
C120  H64   S    
C5    H92   S    
C15   C16   S    
O12   Zn11  S    
C125  H78   S    
C116  C117  S    
C31   O65   S    
O5    Zn1   S    
C109  H39   S    
C29   H22   S    
C110  H40   S    
C12   H111  S    
C35   C70   S    
C18   H124  S    
C8    C9    S    
O23   Zn12  S    
C75   C80   S    
O12   Zn4   S    
C58   C97   S    
C68   C106  S    
C86   C103  D    
C112  C113  S    
C45   O3    A    
C32   H30   S    
C30   H25   S    
O11   Zn14  S    
C55   O17   A    
C119  O52   S    
C123  H72   S    
C73   C91   D    
C83   H2    S    
C117  H59   S    
C44   O67   A    
C39   C43   S    
O56   Zn4   S    
O37   Zn9   S    
C48   O8    A    
O39   Zn11  S    
C14   H113  S    
C15   O60   S    
C19   H126  S    
C54   O16   A    
C59   O37   A    
C60   O42   A    
C65   O27   A    
C66   O28   A    
C75   C92   D    
C13   C49   S    
C127  H83   S    
C12   C14   S    
O43   Zn13  S    
C63   C107  S    
C64   O41   A    
O31   Zn10  S    
C15   H116  S    
C121  H68   S    
C8    O58   S    
C111  H45   S    
C82   C100  D    
C23   H9    S    
C119  H61   S    
O23   Zn7   S    
C11   C12   S    
C7    H98   S    
C11   H109  S    
C88   H35   S    
C41   C85   S    
O13   Zn15  S    
C9    H103  S    
O67   Zn2   S    
O20   Zn16  S    
C67   O29   A    
O32   Zn11  S    
C30   H23   S    
C11   O59   S    
C55   O32   A    
C52   C96   S    
C122  H69   S    
O3    Zn5   S    
C51   C94   S    
C79   H85   S    
C112  H47   S    
C112  O50   S    
C4    H89   S    
C57   C95   S    
C122  C123  S    
C26   H14   S    
O34   Zn8   S    
