data_mof_unit_60206.cif
_audit_creation_date              2012-12-10T19:50:50-0500
_audit_creation_method            fapswitch 2.2
_symmetry_space_group_name_H-M    P1
_symmetry_Int_Tables_number       1
_space_group_crystal_system       triclinic
_cell_length_a                    23.519696
_cell_length_b                    10.910965
_cell_length_c                    22.430305
_cell_angle_alpha                 92.854215
_cell_angle_beta                  87.939788
_cell_angle_gamma                 84.963076
_cell_volume                      5722.07621928

loop_
_atom_site_label
_atom_site_type_symbol
_atom_type_description
_atom_site_fract_x
_atom_site_fract_y
_atom_site_fract_z
_atom_type_partial_charge
C1    C     C_R   0.502668 0.261570 0.498340 0.873073
C2    C     C_R   0.497332 0.738430 0.501660 0.873072
C3    C     C_R   0.235297 0.578407 0.537679 -0.044348
C4    C     C_R   0.764704 0.421613 0.462319 -0.044347
C5    C     C_R   0.294439 0.578004 0.537275 -0.153812
C6    C     C_R   0.705563 0.422013 0.462721 -0.153818
C7    C     C_R   0.329232 0.489738 0.501989 -0.006406
C8    C     C_R   0.670768 0.510269 0.498011 -0.006409
C9    C     C_R   0.303849 0.399827 0.466505 0.098191
C10   C     C_R   0.696149 0.600173 0.533501 0.098195
C11   C     C_R   0.244162 0.403536 0.466143 -0.065811
C12   C     C_R   0.755835 0.596466 0.533865 -0.065816
C13   C     C_R   0.209817 0.492170 0.501675 0.279658
C14   C     C_R   0.790182 0.507841 0.498329 0.279662
C15   C     C_R   0.608102 0.060363 0.309022 0.290233
C16   C     C_R   0.391902 0.939635 0.690980 0.290229
C17   C     C_R   0.565253 0.072920 0.354848 0.247496
C18   C     C_R   0.434750 0.927077 0.645152 0.247492
C19   C     C_R   0.580341 0.086238 0.415184 -0.076362
C20   C     C_R   0.419661 0.913761 0.584817 -0.076356
C21   C     C_R   0.638254 0.093541 0.428663 0.222613
C22   C     C_R   0.361747 0.906462 0.571340 0.222606
C23   C     C_R   0.391192 0.497056 0.500750 0.848086
C24   C     C_R   0.608808 0.502945 0.499250 0.848086
C25   C     C_R   0.680549 0.082516 0.382239 0.265669
C26   C     C_R   0.319454 0.917489 0.617765 0.265672
C27   C     C_R   0.665316 0.064270 0.323042 -0.195959
C28   C     C_R   0.334687 0.935732 0.676962 -0.195952
C29   C     C_R   0.540771 0.919120 0.467032 0.228297
C30   C     C_R   0.459230 0.080880 0.532968 0.228294
C31   C     C_R   0.499584 0.871963 0.504101 -0.135916
C32   C     C_R   0.500417 0.128036 0.495899 -0.135916
C33   C     C_R   0.459670 0.953413 0.538723 0.032541
C34   C     C_R   0.540331 0.046587 0.461278 0.032540
C35   C     C_R   0.548195 0.433229 0.872221 0.614229
C36   C     C_R   0.451801 0.566763 0.127779 0.614227
C37   C     C_R   0.481538 0.603393 0.876073 0.675082
C38   C     C_R   0.518459 0.396601 0.123927 0.675081
C39   C     C_R   0.472630 0.599207 0.939195 -0.134512
C40   C     C_R   0.527366 0.400784 0.060805 -0.134512
C41   C     C_R   0.502923 0.503399 0.968447 -0.078377
C42   C     C_R   0.497073 0.496593 0.031553 -0.078376
C43   C     C_R   0.541182 0.417838 0.934552 -0.117411
C44   C     C_R   0.458813 0.582153 0.065448 -0.117412
C45   C     C_R   0.877505 0.604241 0.480834 0.562630
C46   C     C_R   0.122495 0.395774 0.519180 0.562635
C47   C     C_R   0.434884 0.686586 0.973685 0.273152
C48   C     C_R   0.565109 0.313401 0.026315 0.273151
C49   C     C_R   0.428606 0.678820 0.036312 0.251477
C50   C     C_R   0.571387 0.321167 0.963687 0.251477
C51   C     C_R   0.545257 0.448404 0.251736 0.206593
C52   C     C_R   0.454741 0.551594 0.748263 0.206593
C53   C     C_R   0.543359 0.439523 0.314808 0.344846
C54   C     C_R   0.456640 0.560476 0.685192 0.344846
C55   C     C_R   0.462424 0.582931 0.323986 0.387354
C56   C     C_R   0.537576 0.417069 0.676014 0.387352
C57   C     C_R   0.466942 0.600657 0.261637 -0.029855
C58   C     C_R   0.533057 0.399342 0.738363 -0.029855
C59   C     C_R   0.499209 0.510762 0.223247 0.137880
C60   C     C_R   0.500789 0.489235 0.776753 0.137879
C61   C     C_R   0.882099 0.402585 0.518010 0.559866
C62   C     C_R   0.117900 0.597426 0.482000 0.559859
C63   C     C_R   0.942626 0.395796 0.518066 -0.019237
C64   C     C_R   0.057373 0.604218 0.481951 -0.019235
C65   C     C_R   0.969892 0.499968 0.499983 -0.043868
C66   C     C_R   0.030107 0.500046 0.500033 -0.043865
C67   C     C_R   0.936979 0.604421 0.481691 -0.051206
C68   C     C_R   0.063019 0.395594 0.518326 -0.051206
C69   C     C_R   0.976953 0.290130 0.535386 0.128858
C70   C     C_R   0.023044 0.709890 0.464640 0.128853
C71   C     C_R   0.036327 0.292468 0.535500 -0.123794
C72   C     C_R   0.963672 0.707552 0.464524 -0.123791
Cu1   Cu    Cu3+1 0.500000 0.499970 0.559570 1.068604
Cu2   Cu    Cu3+1 0.500000 0.500030 0.440430 1.068605
H1    H     H_    0.062099 0.212071 0.548999 0.199592
H2    H     H_    0.937899 0.787954 0.451029 0.199592
H3    H     H_    0.209076 0.647050 0.565356 0.192553
H4    H     H_    0.790926 0.352978 0.434639 0.192550
H5    H     H_    0.312884 0.649255 0.563236 0.201231
H6    H     H_    0.687119 0.350766 0.436756 0.201235
H7    H     H_    0.224167 0.336705 0.438450 0.167503
H8    H     H_    0.775829 0.663291 0.561562 0.167500
H9    H     H_    0.698138 0.054227 0.287609 0.224332
H10   H     H_    0.301867 0.945777 0.712395 0.224332
N1    N     N_R   0.851391 0.504877 0.499084 -0.466218
N2    N     N_R   0.148608 0.495134 0.500925 -0.466216
N3    N     N_R   0.508137 0.504008 0.842603 -0.432286
N4    N     N_R   0.491860 0.495987 0.157397 -0.432285
N5    N     N_R   0.500010 0.500010 0.350920 -0.247335
N6    N     N_R   0.499990 0.499990 0.649080 -0.247335
O1    O     O_R   0.500000 0.319610 0.550310 -0.517925
O2    O     O_R   0.500000 0.680390 0.449690 -0.517925
O3    O     O_R   0.499990 0.319670 0.449690 -0.572587
O4    O     O_R   0.500010 0.680330 0.550310 -0.572590
O5    O     O_R   0.417880 0.499930 0.550320 -0.531561
O6    O     O_R   0.582120 0.500070 0.449680 -0.531563
O7    O     O_R   0.417880 0.499990 0.449700 -0.555598
O8    O     O_R   0.582120 0.500010 0.550300 -0.555598
O9    O     O_2   0.845847 0.702494 0.461390 -0.491189
O10   O     O_2   0.154153 0.297525 0.538626 -0.491193
O11   O     O_2   0.853594 0.309345 0.537360 -0.503270
O12   O     O_2   0.146405 0.690660 0.462641 -0.503271
O13   O     O_2   0.597807 0.390996 0.843672 -0.463692
O14   O     O_2   0.402189 0.608995 0.156329 -0.463690
O15   O     O_2   0.468699 0.709365 0.849247 -0.413246
O16   O     O_2   0.531298 0.290629 0.150754 -0.413246
C73   C     C_3   0.952861 0.172655 0.553255 -0.685026
H11   H     H_    0.928470 0.134489 0.516261 0.260965
H12   H     H_    0.986869 0.099995 0.563000 0.203793
H13   H     H_    0.925247 0.190700 0.594482 0.273107
C74   C     C_3   0.047136 0.827379 0.446791 -0.685018
H14   H     H_    0.071532 0.865511 0.483790 0.260959
H15   H     H_    0.074746 0.809366 0.405559 0.273118
H16   H     H_    0.013127 0.900050 0.437064 0.203788
Br1   Br    Br    0.660126 0.103486 0.510440 -0.369802
Br2   Br    Br    0.339874 0.896517 0.489563 -0.369819
Br3   Br    Br    0.760073 0.085176 0.397755 -0.375931
Br4   Br    Br    0.239929 0.914837 0.602251 -0.375946
Br5   Br    Br    0.601028 0.808639 0.425838 -0.458590
Br6   Br    Br    0.398973 0.191360 0.574163 -0.458592
Br7   Br    Br    0.386429 0.811824 0.936773 -0.206965
Br8   Br    Br    0.613560 0.188154 0.063225 -0.206963
Br9   Br    Br    0.383483 0.811392 0.081665 -0.282785
Br10  Br    Br    0.616506 0.188591 0.918333 -0.282789
Br11  Br    Br    0.618993 0.417092 0.209284 -0.294456
Br12  Br    Br    0.381006 0.582903 0.790715 -0.294455
Br13  Br    Br    0.606754 0.351415 0.347699 -0.463866
Br14  Br    Br    0.393245 0.648583 0.652300 -0.463861
Br15  Br    Br    0.405077 0.690586 0.368854 -0.363770
Br16  Br    Br    0.594924 0.309415 0.631147 -0.363771
C75   C     C_3   0.454919 0.731665 0.242744 -0.534750
H17   H     H_    0.408258 0.757622 0.242024 0.290071
H18   H     H_    0.475899 0.746617 0.198965 0.233140
H19   H     H_    0.473328 0.796333 0.275002 0.247513
C76   C     C_3   0.545077 0.268332 0.757254 -0.534748
H20   H     H_    0.524097 0.253380 0.801033 0.233141
H21   H     H_    0.591739 0.242373 0.757975 0.290072
H22   H     H_    0.526669 0.203667 0.724995 0.247511
C77   C     C_3   0.338001 0.297430 0.429731 -0.679013
H23   H     H_    0.383989 0.289774 0.439230 0.239128
H24   H     H_    0.321890 0.207700 0.439794 0.267689
H25   H     H_    0.333243 0.312420 0.381512 0.245862
C78   C     C_3   0.661995 0.702562 0.570278 -0.679010
H26   H     H_    0.616008 0.710224 0.560776 0.239132
H27   H     H_    0.666750 0.687560 0.618497 0.245862
H28   H     H_    0.678108 0.792295 0.560222 0.267683
Br17  Br    Br    0.590473 0.036854 0.226702 -0.257879
Br18  Br    Br    0.409534 0.963140 0.773300 -0.257884
Br19  Br    Br    0.486415 0.064236 0.335640 -0.398268
Br20  Br    Br    0.513589 0.935758 0.664359 -0.398275

loop_
_geom_bond_atom_site_label_1
_geom_bond_atom_site_label_2
_ccdc_geom_bond_type
C44   C49   A    
C16   C28   A    
C78   H28   S    
C66   C68   A    
C63   C65   A    
C62   O12   S    
C28   H10   S    
C73   H12   S    
C41   C42   A    
C45   N1    A    
C74   H14   S    
C21   Br1   S    
C75   H19   S    
C69   C73   S    
C76   H20   S    
C39   C41   A    
C11   H7    S    
C4    H4    S    
C29   Br5   S    
C21   C25   A    
C24   O8    A    
Cu2   N5    S    
C19   C21   A    
Cu1   N6    S    
C54   N6    A    
C35   O13   S    
C24   O6    A    
C48   Br8   S    
C61   N1    A    
C77   H25   S    
C57   C59   A    
C58   C60   A    
C78   H26   S    
C49   Br9   S    
C11   C13   A    
C78   H27   S    
C67   C72   A    
Cu1   Cu2   S    
Cu2   O2    S    
C69   C71   A    
C40   C48   A    
C59   N4    S    
C62   C64   A    
C52   C60   A    
C17   C19   A    
C46   C68   A    
C35   N3    A    
C63   C69   A    
C23   O5    A    
C55   Br15  S    
C13   N2    S    
C45   C67   A    
C73   H11   S    
C31   C33   A    
C64   C70   A    
C5    H5    S    
C53   Br13  S    
C3    C13   A    
C72   H2    S    
C22   Br2   S    
C1    O1    A    
C38   C40   A    
C41   C43   A    
Cu2   O3    S    
C42   C44   A    
Cu1   O4    S    
C60   N3    S    
C52   C54   A    
Cu2   O7    S    
Cu1   O8    S    
C17   Br19  S    
C71   H1    S    
C51   Br11  S    
Cu2   O6    S    
C2    O4    A    
C50   Br10  S    
Cu1   O1    S    
C47   C49   A    
C45   O9    S    
C5    C7    A    
C52   Br12  S    
C6    C8    A    
C65   C67   A    
C54   Br14  S    
C29   C34   A    
C1    C32   S    
C36   N4    A    
C38   N4    A    
C2    C31   S    
C15   Br17  S    
C32   C34   A    
C38   O16   S    
C61   O11   S    
C37   O15   S    
C62   N2    A    
C15   C27   A    
C29   C31   A    
C61   C63   A    
C12   H8    S    
C74   H15   S    
C16   C18   A    
C77   H24   S    
C2    O2    A    
C48   C50   A    
C9    C11   A    
C76   H22   S    
C10   C12   A    
C20   C33   S    
C4    C6    A    
C23   O7    A    
C12   C14   A    
C55   C57   A    
C53   N5    A    
C6    H6    S    
C73   H13   S    
C36   C44   A    
C51   C59   A    
Cu1   O5    S    
C75   H17   S    
C3    H3    S    
C3    C5    A    
C35   C43   A    
C39   C47   A    
C76   H21   S    
C46   O10   S    
C30   C33   A    
C37   N3    A    
C8    C10   A    
C57   C75   S    
C26   Br4   S    
C14   N1    S    
C20   C22   A    
C40   C42   A    
C75   H18   S    
C19   C34   S    
C25   Br3   S    
C77   H23   S    
C43   C50   A    
C15   C17   A    
C58   C76   S    
C25   C27   A    
C26   C28   A    
C16   Br18  S    
C36   O14   S    
C27   H9    S    
C37   C39   A    
C30   C32   A    
C9    C77   S    
C30   Br6   S    
C68   C71   A    
C7    C23   S    
C56   N6    A    
C8    C24   S    
C56   C58   A    
C74   H16   S    
C18   C20   A    
C10   C78   S    
C4    C14   A    
C55   N5    A    
C47   Br7   S    
C70   C74   S    
C7    C9    A    
C1    O3    A    
C65   C66   A    
C22   C26   A    
C70   C72   A    
C51   C53   A    
C18   Br20  S    
C56   Br16  S    
C64   C66   A    
C46   N2    A    
