data_mof_unit_10231.cif
_audit_creation_date              2012-10-26T18:53:19-0400
_audit_creation_method            fapswitch 2.2
_symmetry_space_group_name_H-M    P1
_symmetry_Int_Tables_number       1
_space_group_crystal_system       triclinic
_cell_length_a                    14.696436
_cell_length_b                    14.733173
_cell_length_c                    15.870246
_cell_angle_alpha                 76.99388
_cell_angle_beta                  102.620952
_cell_angle_gamma                 114.6809
_cell_volume                      3012.04644438

loop_
_atom_site_label
_atom_site_type_symbol
_atom_type_description
_atom_site_fract_x
_atom_site_fract_y
_atom_site_fract_z
_atom_type_partial_charge
C1    C     C_R   0.880369 0.312435 0.514824 0.541400
C2    C     C_R   0.187062 0.794751 0.479986 -0.004455
C3    C     C_R   0.783796 0.028185 0.566657 -0.137421
C4    C     C_R   0.999860 0.500424 0.659558 0.544054
C5    C     C_R   0.850359 0.128994 0.555608 -0.141584
C6    C     C_R   0.708167 0.179673 0.507709 -0.139892
C7    C     C_R   0.639239 0.078946 0.521340 0.029688
C8    C     C_R   0.678900 0.002628 0.549628 0.049829
C9    C     C_R   0.532493 0.052043 0.506853 0.030631
C10   C     C_R   0.466858 0.947980 0.514907 0.030202
C11   C     C_R   0.509921 0.874378 0.543739 -0.142132
C12   C     C_3   0.983680 0.393938 0.067127 -0.214492
C13   C     C_R   0.613762 0.901531 0.560962 -0.136034
C14   C     C_R   0.489168 0.125522 0.486415 -0.141952
C15   C     C_R   0.385316 0.098250 0.472585 -0.135121
C16   C     C_R   0.119588 0.687552 0.485651 0.545069
C17   C     C_R   0.320338 0.997202 0.476237 0.049915
C18   C     C_R   0.360201 0.921068 0.495727 0.030372
C19   C     C_R   0.215425 0.971523 0.460270 -0.136917
C20   C     C_R   0.149082 0.870751 0.462935 -0.140720
C21   C     C_R   0.291606 0.820483 0.494279 -0.136961
C22   C     C_R   0.724082 0.680450 0.369805 -0.160329
C23   C     C_3   0.002636 0.500843 0.083153 0.060165
C24   C     C_R   0.802038 0.646151 0.386407 0.041560
C25   C     C_R   0.713175 0.506971 0.486161 0.026358
C26   C     C_R   0.635979 0.543328 0.479429 -0.001996
C27   C     C_R   0.640790 0.629165 0.415539 0.039029
C28   C     C_R   0.000290 0.499810 0.340365 0.553157
C29   C     C_R   0.552534 0.496159 0.529726 0.020704
C30   C     C_R   0.467180 0.525573 0.501634 0.008982
C31   C     C_R   0.475975 0.610665 0.436598 -0.144766
C32   C     C_R   0.562129 0.662813 0.396554 -0.130863
C33   C     C_R   0.550459 0.424253 0.608076 -0.015899
C34   C     C_3   0.106539 0.575658 0.055959 -0.190844
C35   C     C_R   0.459969 0.370766 0.643777 -0.119107
C36   C     C_R   0.374085 0.392009 0.610972 0.024032
C37   C     C_R   0.376670 0.471296 0.541275 -0.003288
C38   C     C_R   0.286732 0.337440 0.651136 -0.163335
C39   C     C_R   0.202644 0.362536 0.622951 0.041705
C40   C     C_3   0.979023 0.393242 0.968764 -0.208226
C41   C     C_R   0.287508 0.492321 0.514764 0.036622
C42   C     C_3   0.919662 0.535131 0.927558 -0.231692
C43   C     C_3   0.918984 0.534077 0.025267 -0.221843
C44   C     C_1   0.001108 0.499653 0.250867 -0.038412
C45   C     C_3   0.107730 0.577366 0.957491 -0.067370
C46   C     C_3   0.003215 0.501369 0.917345 0.082917
C47   C     C_3   0.643128 0.412633 0.666689 -0.266365
C48   C     C_3   0.642673 0.306860 0.671343 -0.298176
C49   C     C_3   0.742267 0.299937 0.718354 -0.444009
C50   C     C_3   0.204605 0.571360 0.937644 -0.255729
C51   C     C_3   0.245882 0.496751 0.001032 -0.292528
C52   C     C_3   0.314458 0.471315 0.958721 -0.454306
C53   C     C_1   0.001670 0.499902 0.175347 -0.080594
C54   C     C_1   0.000185 0.500940 0.824622 -0.087704
C55   C     C_1   0.999291 0.500760 0.748960 -0.053052
C56   C     C_R   0.812674 0.205224 0.525919 -0.004836
Cu1   Cu    Cu3+1 0.081750 0.475690 0.522550 0.926059
Cu2   Cu    Cu3+1 0.918250 0.524310 0.477450 0.922205
H1    H     H_    0.911235 0.338079 0.089524 0.114265
H2    H     H_    0.931006 0.147151 0.570047 0.124519
H3    H     H_    0.682557 0.240114 0.481388 0.118935
H4    H     H_    0.901618 0.342598 0.943285 0.105013
H5    H     H_    0.465721 0.794543 0.556378 0.105581
H6    H     H_    0.532935 0.205421 0.482349 0.095295
H7    H     H_    0.184708 0.029492 0.446078 0.104555
H8    H     H_    0.565786 0.728670 0.348005 0.107828
H9    H     H_    0.281547 0.550075 0.461319 0.116309
H10   H     H_    0.135837 0.321603 0.654898 0.121603
H11   H     H_    0.458154 0.315158 0.701987 0.102753
H12   H     H_    0.030629 0.360451 0.958646 0.113520
H13   H     H_    0.729400 0.747376 0.322227 0.087287
H14   H     H_    0.868274 0.687834 0.353824 0.122722
H15   H     H_    0.709081 0.435819 0.524189 0.131060
H16   H     H_    0.932636 0.612481 0.891151 0.108881
H17   H     H_    0.418228 0.641116 0.416461 0.091631
H18   H     H_    0.284066 0.276778 0.705107 0.084795
H19   H     H_    0.844090 0.483941 0.899125 0.111552
H20   H     H_    0.843600 0.481345 0.043879 0.118707
H21   H     H_    0.931068 0.610772 0.035656 0.112931
H22   H     H_    0.111727 0.653797 0.923860 0.107396
H23   H     H_    0.044881 0.369921 0.105758 0.108787
H24   H     H_    0.166934 0.554681 0.099538 0.118078
H25   H     H_    0.804087 0.349514 0.679583 0.176481
H26   H     H_    0.736525 0.221050 0.725627 0.144262
H27   H     H_    0.760292 0.322479 0.784204 0.142678
H28   H     H_    0.580701 0.249227 0.707011 0.157213
H29   H     H_    0.628727 0.287425 0.604931 0.155203
H30   H     H_    0.715023 0.473941 0.649533 0.150364
H31   H     H_    0.641735 0.422364 0.733882 0.133502
H32   H     H_    0.270791 0.432018 0.901812 0.152787
H33   H     H_    0.378045 0.541323 0.936752 0.153105
H34   H     H_    0.121105 0.652951 0.066756 0.095984
H35   H     H_    0.346045 0.420676 0.006840 0.139111
H36   H     H_    0.291531 0.531496 0.059728 0.148373
H37   H     H_    0.184667 0.425638 0.023274 0.161765
H38   H     H_    0.191765 0.555717 0.869895 0.162393
H39   H     H_    0.266286 0.647795 0.938111 0.123930
H40   H     H_    0.643292 0.842617 0.583246 0.111045
H41   H     H_    0.317595 0.760394 0.502612 0.117977
H42   H     H_    0.068385 0.852435 0.451568 0.125259
H43   H     H_    0.355650 0.157078 0.458093 0.110682
H44   H     H_    0.814332 0.970066 0.588925 0.103771
N1    N     N_R   0.795410 0.560790 0.443550 -0.232448
N2    N     N_R   0.204590 0.439170 0.556520 -0.231162
O1    O     O_R   0.977910 0.338120 0.529720 -0.506011
O2    O     O_R   0.839850 0.379180 0.491640 -0.516129
O3    O     O_R   0.069060 0.479460 0.639610 -0.496411
O4    O     O_R   0.931000 0.520530 0.601530 -0.501456
O5    O     O_R   0.160150 0.620820 0.508360 -0.511179
O6    O     O_R   0.022090 0.661880 0.470280 -0.507286
O7    O     O_R   0.069000 0.479470 0.398470 -0.496545
O8    O     O_R   0.930940 0.520540 0.360390 -0.492969

loop_
_geom_bond_atom_site_label_1
_geom_bond_atom_site_label_2
_ccdc_geom_bond_type
Cu1   O1    S    
C8    C13   A    
C18   C21   A    
C39   H10   S    
Cu1   O7    S    
C5    C56   A    
C52   H32   S    
C19   C20   A    
C16   O6    A    
C7    C8    A    
C41   H9    S    
C38   H18   S    
C45   C46   S    
C28   O8    A    
C43   H20   S    
C40   C46   S    
C4    O4    A    
C12   C23   S    
C26   C27   A    
C40   H12   S    
Cu2   O8    S    
C6    H3    S    
C36   C37   A    
C1    C56   S    
C11   H5    S    
C38   C39   A    
C21   H41   S    
C43   H21   S    
C29   C33   A    
C40   H4    S    
C7    C9    A    
C42   C46   S    
C13   H40   S    
C17   C19   A    
C12   H1    S    
C44   C53   T    
Cu1   O5    S    
C31   C32   A    
C2    C16   S    
C9    C10   A    
C25   H15   S    
C1    O2    A    
C47   H31   S    
C16   O5    A    
C23   C53   S    
C28   O7    A    
C4    O3    A    
C42   H16   S    
C2    C20   A    
C51   C52   S    
C49   H27   S    
C39   N2    A    
C3    C8    A    
C25   N1    A    
C48   H28   S    
C50   C51   S    
C25   C26   A    
C28   C44   S    
C30   C37   A    
Cu2   O2    S    
C35   C36   A    
C12   C40   S    
C9    C14   A    
C29   C30   A    
C31   H17   S    
C47   C48   S    
C20   H42   S    
C23   C34   S    
C14   H6    S    
C46   C54   S    
C2    C21   A    
C17   C18   A    
C48   H29   S    
C52   H35   S    
C34   C45   S    
C15   H43   S    
C26   C29   A    
C3    H44   S    
C48   C49   S    
Cu1   O3    S    
C22   C27   A    
C4    C55   S    
C33   C47   S    
C22   C24   A    
C42   C43   S    
C22   H13   S    
C24   H14   S    
C32   H8    S    
C49   H26   S    
C15   C17   A    
Cu1   N2    S    
C54   C55   T    
C50   H39   S    
C5    H2    S    
C27   C32   A    
Cu2   O6    S    
C23   C43   S    
C6    C56   A    
C3    C5    A    
C6    C7    A    
C41   N2    A    
C24   N1    A    
C47   H30   S    
C49   H25   S    
C36   C38   A    
C11   C13   A    
C50   H38   S    
Cu1   Cu2   S    
C30   C31   A    
C45   C50   S    
C10   C18   A    
C33   C35   A    
C12   H23   S    
C19   H7    S    
C45   H22   S    
Cu2   O4    S    
C37   C41   A    
C34   H34   S    
C10   C11   A    
C51   H36   S    
C35   H11   S    
C42   H19   S    
C1    O1    A    
C14   C15   A    
C52   H33   S    
Cu2   N1    S    
C34   H24   S    
C51   H37   S    
