data_mof_unit_21208.cif
_audit_creation_date              2012-12-11T15:41:22-0500
_audit_creation_method            fapswitch 2.2
_symmetry_space_group_name_H-M    P1
_symmetry_Int_Tables_number       1
_space_group_crystal_system       triclinic
_cell_length_a                    14.835091
_cell_length_b                    14.833608
_cell_length_c                    14.855088
_cell_angle_alpha                 108.861056
_cell_angle_beta                  109.581139
_cell_angle_gamma                 109.181098
_cell_volume                      2540.63565397

loop_
_atom_site_label
_atom_site_type_symbol
_atom_type_description
_atom_site_fract_x
_atom_site_fract_y
_atom_site_fract_z
_atom_type_partial_charge
C1    C     C_R   0.195320 0.996055 0.904193 -0.117179
C2    C     C_R   0.802198 0.900672 0.428593 -0.103182
C3    C     C_R   0.193126 0.314663 0.970661 -0.174969
C4    C     C_R   0.703693 0.807809 0.342540 -0.146848
C5    C     C_R   0.297064 0.348394 0.054448 0.110874
C6    C     C_R   0.704291 0.727036 0.261082 0.109081
C7    C     C_R   0.303596 0.303960 0.125541 -0.141747
C8    C     C_R   0.804934 0.741424 0.266568 -0.181770
C9    C     C_R   0.208259 0.228697 0.113989 -0.098127
C10   C     C_R   0.903166 0.834812 0.352414 -0.098808
C11   C     C_R   0.105565 0.197537 0.032021 -0.086552
C12   C     C_R   0.748203 0.933017 0.025725 -0.116017
C13   C     C_R   0.901871 0.913959 0.433754 -0.072755
C14   C     C_R   0.402233 0.529678 0.073592 -0.232392
C15   C     C_R   0.597016 0.526106 0.164737 -0.230410
C16   C     C_R   0.803391 0.203377 0.296918 0.044034
C17   C     C_R   0.243837 0.775330 0.684679 0.082686
C18   C     C_R   0.502680 0.621102 0.113123 0.053596
C19   C     C_R   0.496886 0.428386 0.100835 0.053070
C20   C     C_R   0.600665 0.624377 0.176089 0.031623
C21   C     C_R   0.398897 0.434207 0.072927 0.032446
C22   C     C_R   0.046743 0.460596 0.382786 -0.177565
C23   C     C_R   0.865933 0.298431 0.302083 -0.002478
C24   C     C_R   0.082625 0.483795 0.588104 -0.176056
C25   C     C_R   0.136952 0.553481 0.476737 -0.161539
C26   C     C_R   0.993977 0.393018 0.496064 -0.167186
C27   C     C_R   0.150457 0.567731 0.579344 0.155573
C28   C     C_R   0.972833 0.382782 0.393253 0.155441
C29   C     C_R   0.598558 0.162181 0.621867 -0.171810
C30   C     C_R   0.399290 0.059124 0.429433 -0.170106
C31   C     C_R   0.597906 0.158776 0.527382 -0.170976
C32   C     C_R   0.399837 0.062677 0.523867 -0.169011
C33   C     C_R   0.498463 0.096227 0.428133 0.144028
C34   C     C_R   0.221849 0.673425 0.676709 -0.017101
C35   C     C_R   0.499683 0.104208 0.617340 0.142179
C36   C     C_R   0.963646 0.839341 0.940541 -0.176207
C37   C     C_R   0.867078 0.936002 0.837050 -0.188283
C38   C     C_R   0.871455 0.840758 0.942119 -0.165831
C39   C     C_R   0.959371 0.934403 0.835199 -0.164583
C40   C     C_R   0.407258 0.974004 0.222390 -0.127570
C41   C     C_R   0.591472 0.096523 0.791311 -0.136865
C42   C     C_R   0.831454 0.901074 0.902095 0.142473
C43   C     C_R   0.014870 0.896975 0.897587 0.140226
C44   C     C_R   0.590085 0.313666 0.066310 -0.119621
C45   C     C_R   0.498625 0.051228 0.324895 0.033352
C46   C     C_R   0.410675 0.702549 0.009779 -0.130359
C47   C     C_R   0.590906 0.065937 0.313835 -0.128367
C48   C     C_R   0.409828 0.009054 0.702411 -0.124381
C49   C     C_R   0.406574 0.222346 0.972287 -0.133743
C50   C     C_R   0.592291 0.792086 0.097611 -0.146596
C51   C     C_R   0.804025 0.300219 0.210156 -0.167810
C52   C     C_R   0.255375 0.686914 0.780923 -0.157280
C53   C     C_R   0.195728 0.904154 0.995801 -0.148588
C54   C     C_R   0.748443 0.025662 0.933370 -0.133283
C55   C     C_R   0.131015 0.932957 0.932870 0.046159
C56   C     C_R   0.500607 0.070191 0.699559 0.037875
C57   C     C_R   0.773634 0.947254 0.947663 0.031630
C58   C     C_1   0.846429 0.145573 0.343849 -0.007880
C59   C     C_1   0.192135 0.794129 0.596858 -0.007451
C60   C     C_R   0.497148 0.324749 0.051544 0.054086
C61   C     C_R   0.502517 0.701529 0.074607 0.063595
C62   C     C_R   0.097943 0.239430 0.959632 -0.127639
H1    H     H_    0.167796 0.020358 0.843614 0.088369
H2    H     H_    0.980395 0.845421 0.356343 0.111856
H3    H     H_    0.326356 0.531826 0.042537 0.118070
H4    H     H_    0.672873 0.526344 0.204856 0.125057
H5    H     H_    0.031784 0.452414 0.303298 0.115431
H6    H     H_    0.089568 0.491918 0.665467 0.110398
H7    H     H_    0.191638 0.616364 0.469223 0.125043
H8    H     H_    0.936598 0.336583 0.507285 0.115623
H9    H     H_    0.677053 0.200796 0.694475 0.104731
H10   H     H_    0.320874 0.016881 0.355756 0.107459
H11   H     H_    0.676051 0.195394 0.531010 0.106027
H12   H     H_    0.757975 0.879408 0.058081 0.095207
H13   H     H_    0.321593 0.022603 0.518894 0.111381
H14   H     H_    0.999958 0.802911 0.983139 0.106640
H15   H     H_    0.832796 0.976147 0.798335 0.109534
H16   H     H_    0.840547 0.805347 0.985757 0.108951
H17   H     H_    0.992814 0.973271 0.795014 0.113318
H18   H     H_    0.321953 0.942047 0.200490 0.093540
H19   H     H_    0.675467 0.156346 0.823779 0.083748
H20   H     H_    0.674843 0.376130 0.120144 0.095170
H21   H     H_    0.326864 0.652706 0.987688 0.083237
H22   H     H_    0.675587 0.119371 0.376597 0.099545
H23   H     H_    0.018166 0.214203 0.895456 0.103430
H24   H     H_    0.328059 0.994241 0.656670 0.103431
H25   H     H_    0.321082 0.199868 0.936819 0.116976
H26   H     H_    0.677218 0.824899 0.154551 0.119453
H27   H     H_    0.832570 0.356615 0.181881 0.100052
H28   H     H_    0.250299 0.625418 0.805702 0.108361
H29   H     H_    0.168862 0.842988 0.019371 0.086930
H30   H     H_    0.758730 0.058251 0.880127 0.092704
H31   H     H_    0.031942 0.141027 0.024834 0.121033
H32   H     H_    0.978068 0.985860 0.500544 0.100982
H33   H     H_    0.801312 0.962224 0.491508 0.107052
H34   H     H_    0.185607 0.346497 0.914013 0.107294
H35   H     H_    0.627215 0.797838 0.340464 0.117693
H36   H     H_    0.382481 0.329012 0.191146 0.117380
H37   H     H_    0.807325 0.680246 0.204713 0.110183
H38   H     H_    0.213967 0.195485 0.169444 0.114165
N1    N     N_R   0.293810 0.002730 0.945950 -0.041586
N2    N     N_R   0.443210 0.997250 0.791090 -0.043064
N3    N     N_R   0.443180 0.152110 0.945950 -0.043856
N4    N     N_R   0.556820 0.847890 0.054050 -0.040618
N5    N     N_R   0.706170 0.208950 0.152090 -0.045276
N6    N     N_R   0.293830 0.791050 0.847910 -0.047053
N7    N     N_R   0.293800 0.945910 0.002760 -0.037718
N8    N     N_R   0.706200 0.054090 0.997240 -0.039448
N9    N     N_1   0.881452 0.099455 0.381464 -0.094128
N10   N     N_1   0.149111 0.807701 0.525512 -0.108731
N11   N     N_R   0.706190 0.997270 0.054050 -0.039972
N12   N     N_R   0.706160 0.152130 0.208910 -0.055912
N13   N     N_R   0.293840 0.847870 0.791090 -0.060534
N14   N     N_R   0.443140 0.945920 0.152090 -0.040071
N15   N     N_R   0.556860 0.054080 0.847910 -0.038108
N16   N     N_R   0.556830 0.208940 0.002760 -0.040625
N17   N     N_R   0.443170 0.791060 0.997240 -0.038803
N18   N     N_R   0.556790 0.002750 0.208910 -0.039044
Ni1   Ni    Ni4+2 0.369690 0.999990 0.869700 0.212358
Ni2   Ni    Ni4+2 0.630310 0.000010 0.130300 0.228085
Ni3   Ni    Ni4+2 0.369670 0.869670 0.000000 0.205177
Ni4   Ni    Ni4+2 0.630330 0.130330 0.000000 0.206368

loop_
_geom_bond_atom_site_label_1
_geom_bond_atom_site_label_2
_ccdc_geom_bond_type
N1    N7    A    
C50   N4    A    
C7    H36   S    
C12   H12   S    
C58   N9    T    
C33   C45   S    
C49   H25   S    
C52   H28   S    
C24   C27   A    
C11   C62   A    
C9    H38   S    
C32   H13   S    
C17   N13   A    
C15   C19   A    
C49   C60   A    
N16   Ni4   S    
C14   C21   A    
C2    H33   S    
C19   C21   A    
C8    H37   S    
C24   C26   A    
C38   C42   A    
C44   H20   S    
C31   H11   S    
C59   N10   T    
C48   C56   A    
C37   C42   A    
C2    C13   A    
N17   Ni3   S    
N2    N15   A    
C36   H14   S    
N13   Ni1   S    
N14   Ni3   S    
C47   N18   A    
C40   N14   A    
C22   C25   A    
C53   H29   S    
C31   C33   A    
C3    H34   S    
C50   H26   S    
C11   H31   S    
C45   C47   A    
C48   N2    A    
N15   Ni4   S    
C22   C28   A    
C4    H35   S    
C40   C45   A    
C41   N15   A    
C1    H1    S    
C42   C57   S    
C53   C55   A    
C27   C34   S    
C15   C20   A    
C62   H23   S    
N3    Ni1   S    
N6    N13   A    
N1    Ni1   S    
C32   C35   A    
C4    C6    A    
C5    C7    A    
C39   C43   A    
C46   C61   A    
C47   H22   S    
C15   H4    S    
C37   H15   S    
C46   N17   A    
N11   Ni2   S    
C39   H17   S    
C2    C4    A    
C41   C56   A    
C54   H30   S    
C53   N7    A    
C23   C51   A    
C51   N5    A    
C41   H19   S    
C40   H18   S    
C16   C58   S    
C23   C28   S    
C9    C11   A    
N14   N18   A    
C17   C59   S    
C12   C57   A    
C43   C55   S    
N5    N12   A    
C16   C23   A    
C26   H8    S    
C48   H24   S    
C25   H7    S    
C17   C34   A    
N7    Ni3   S    
C1    N1    A    
C16   N12   A    
N12   Ni2   S    
N4    N17   A    
C3    C62   A    
C7    C9    A    
C30   C33   A    
C35   C56   S    
C34   C52   A    
C14   C18   A    
C8    C10   A    
C10   H2    S    
N8    Ni4   S    
C30   H10   S    
C3    C5    A    
C10   C13   A    
C49   N3    A    
C6    C8    A    
C18   C61   S    
C19   C60   S    
C25   C27   A    
C38   H16   S    
C6    C20   S    
C29   C35   A    
C26   C28   A    
N8    N11   A    
C54   N8    A    
C13   H32   S    
C36   C38   A    
N3    N16   A    
C1    C55   A    
C29   C31   A    
C51   H27   S    
C30   C32   A    
C44   C60   A    
N6    Ni3   S    
C14   H3    S    
N5    Ni4   S    
C18   C20   A    
N18   Ni2   S    
C22   H5    S    
C24   H6    S    
C52   N6    A    
C46   H21   S    
C5    C21   S    
C44   N16   A    
C37   C39   A    
C50   C61   A    
C36   C43   A    
C29   H9    S    
C12   N11   A    
N2    Ni1   S    
N4    Ni2   S    
C54   C57   A    
