data_mof_unit_9029.cif
_audit_creation_date              2012-12-10T17:31:25-0500
_audit_creation_method            fapswitch 2.2
_symmetry_space_group_name_H-M    P1
_symmetry_Int_Tables_number       1
_space_group_crystal_system       triclinic
_cell_length_a                    18.79843
_cell_length_b                    18.672154
_cell_length_c                    12.428756
_cell_angle_alpha                 89.657045
_cell_angle_beta                  130.014338
_cell_angle_gamma                 90.153583
_cell_volume                      3341.16656548

loop_
_atom_site_label
_atom_site_type_symbol
_atom_type_description
_atom_site_fract_x
_atom_site_fract_y
_atom_site_fract_z
_atom_type_partial_charge
C1    C     C_R   0.609256 0.896052 0.648589 0.776427
C2    C     C_R   0.607269 0.105122 0.646548 0.782855
C3    C     C_R   0.109254 0.396052 0.648588 0.776450
C4    C     C_R   0.107283 0.605115 0.646565 0.782834
C5    C     C_R   0.229863 0.784628 0.021675 0.071231
C6    C     C_R   0.231600 0.214171 0.017854 0.069862
C7    C     C_R   0.729848 0.284627 0.021678 0.071225
C8    C     C_R   0.731600 0.714166 0.017844 0.069865
C9    C     C_R   0.670707 0.254932 0.043343 0.128282
C10   C     C_R   0.660531 0.733569 0.021567 0.145299
C11   C     C_R   0.170707 0.754944 0.043317 0.128250
C12   C     C_R   0.160542 0.233585 0.021595 0.145299
C13   C     C_R   0.592643 0.216706 0.936207 -0.245450
C14   C     C_R   0.581358 0.768346 0.906781 -0.244115
C15   C     C_R   0.092639 0.716728 0.936164 -0.245431
C16   C     C_R   0.081369 0.268365 0.906815 -0.244117
C17   C     C_R   0.582293 0.196426 0.819786 -0.211416
C18   C     C_R   0.578274 0.793080 0.798527 -0.249193
C19   C     C_R   0.082300 0.696445 0.819754 -0.211422
C20   C     C_R   0.078278 0.293092 0.798550 -0.249236
C21   C     C_R   0.297264 0.833432 0.121582 -0.291306
C22   C     C_R   0.303469 0.170790 0.126342 -0.295175
C23   C     C_R   0.797255 0.333428 0.121586 -0.291297
C24   C     C_R   0.803473 0.670790 0.126342 -0.295167
C25   C     C_R   0.271611 0.798864 0.283352 0.171788
C26   C     C_R   0.250280 0.185686 0.259022 0.155245
C27   C     C_R   0.771609 0.298866 0.283368 0.171684
C28   C     C_R   0.750263 0.685672 0.258995 0.155225
C29   C     C_R   0.658261 0.173021 0.716778 -0.112605
C30   C     C_R   0.666969 0.831742 0.723901 -0.107838
C31   C     C_R   0.158309 0.672997 0.716825 -0.112599
C32   C     C_R   0.166961 0.331738 0.723894 -0.107854
C33   C     C_R   0.677596 0.041645 0.280994 -0.285355
C34   C     C_R   0.177573 0.541707 0.280996 -0.285143
C35   C     C_R   0.339682 0.993043 0.627876 0.343549
C36   C     C_R   0.839685 0.493024 0.627876 0.343549
C37   C     C_R   0.307118 0.990313 0.702265 -0.242247
C38   C     C_R   0.807118 0.490280 0.702262 -0.242362
C39   C     C_R   0.385002 0.100587 0.343886 0.784658
C40   C     C_R   0.386633 0.898398 0.346009 0.790959
C41   C     C_R   0.885001 0.600586 0.343884 0.784679
C42   C     C_R   0.886633 0.398398 0.346011 0.790962
C43   C     C_R   0.366085 0.994860 0.845550 -0.248917
C44   C     C_R   0.866081 0.494841 0.845547 -0.248928
C45   C     C_R   0.460429 0.005457 0.920938 -0.008696
C46   C     C_R   0.960423 0.505463 0.920936 -0.008658
C47   C     C_R   0.495691 0.007794 0.845807 0.162924
C48   C     C_R   0.995685 0.507805 0.845806 0.162919
C49   C     C_R   0.521709 0.014106 0.070458 -0.023754
C50   C     C_R   0.021699 0.514125 0.070456 -0.023757
C51   C     C_R   0.610337 0.041528 0.135769 0.058660
C52   C     C_R   0.110317 0.541570 0.135764 0.058562
C53   C     C_R   0.635663 0.059904 0.056215 -0.225924
C54   C     C_R   0.135646 0.559933 0.056205 -0.225924
C55   C     C_R   0.593592 0.022793 0.931555 0.155660
C56   C     C_R   0.093582 0.522810 0.931554 0.155667
C57   C     C_R   0.499655 0.997529 0.158543 -0.020366
C58   C     C_R   0.999651 0.497537 0.158543 -0.020358
C59   C     C_R   0.656771 0.017271 0.364393 0.355448
C60   C     C_R   0.156766 0.517288 0.364399 0.355529
C61   C     C_R   0.692617 0.260968 0.173913 -0.229022
C62   C     C_R   0.670844 0.720351 0.141869 -0.226882
C63   C     C_R   0.192612 0.760976 0.173885 -0.229005
C64   C     C_R   0.170864 0.220372 0.141905 -0.226887
C65   C     C_R   0.317732 0.842581 0.251406 -0.075728
C66   C     C_R   0.312667 0.154017 0.245058 -0.075370
C67   C     C_R   0.817731 0.342579 0.251415 -0.075725
C68   C     C_R   0.812663 0.654013 0.245049 -0.075368
C69   C     C_R   0.717589 0.199681 0.694439 -0.194293
C70   C     C_R   0.738374 0.816358 0.720036 -0.188716
C71   C     C_R   0.217703 0.699607 0.694575 -0.194201
C72   C     C_R   0.238356 0.316344 0.720013 -0.188706
C73   C     C_R   0.277485 0.756145 0.773630 -0.154134
C74   C     C_R   0.303009 0.263199 0.805386 -0.148512
C75   C     C_R   0.777355 0.256228 0.773477 -0.154167
C76   C     C_R   0.803030 0.763214 0.805411 -0.148515
C77   C     C_R   0.282037 0.785482 0.880578 -0.182850
C78   C     C_R   0.300998 0.227424 0.901795 -0.186847
C79   C     C_R   0.781950 0.285532 0.880486 -0.182840
C80   C     C_R   0.801012 0.727433 0.901808 -0.186833
C81   C     C_R   0.721444 0.261933 0.904366 0.091111
C82   C     C_R   0.730116 0.741532 0.909165 0.095188
C83   C     C_R   0.221484 0.761919 0.904392 0.091111
C84   C     C_R   0.230110 0.241532 0.909166 0.095191
C85   C     C_R   0.653041 0.209828 0.812171 0.088065
C86   C     C_R   0.657308 0.788870 0.808581 0.086469
C87   C     C_R   0.153069 0.709825 0.812178 0.088033
C88   C     C_R   0.157304 0.288873 0.808587 0.086478
Cu1   Cu    Cu3+1 0.526340 0.000000 0.421010 0.918754
Cu2   Cu    Cu3+1 0.026340 0.500000 0.421010 0.918726
Cu3   Cu    Cu3+1 0.473640 0.000000 0.578990 0.897754
Cu4   Cu    Cu3+1 0.973640 0.500000 0.578990 0.897764
H1    H     H_    0.703831 0.082973 0.109330 0.169643
H2    H     H_    0.203814 0.583001 0.109313 0.169624
H3    H     H_    0.748115 0.056067 0.328391 0.155079
H4    H     H_    0.248079 0.556153 0.328371 0.155057
H5    H     H_    0.430614 0.982036 0.115266 0.124954
H6    H     H_    0.930613 0.482036 0.115268 0.124962
H7    H     H_    0.334952 0.994041 0.894208 0.142747
H8    H     H_    0.834946 0.494012 0.894203 0.142752
H9    H     H_    0.233464 0.985891 0.647532 0.165165
H10   H     H_    0.733465 0.485838 0.647524 0.165248
H11   H     H_    0.541389 0.199683 0.945075 0.148120
H12   H     H_    0.523021 0.778775 0.902883 0.144387
H13   H     H_    0.041372 0.699714 0.945013 0.148115
H14   H     H_    0.023039 0.278802 0.902930 0.144411
H15   H     H_    0.652855 0.230762 0.194123 0.141348
H16   H     H_    0.619473 0.741208 0.147405 0.131158
H17   H     H_    0.152847 0.730770 0.194088 0.141363
H18   H     H_    0.119501 0.241236 0.147453 0.131158
H19   H     H_    0.334784 0.864867 0.099802 0.155898
H20   H     H_    0.353505 0.149238 0.119951 0.166423
H21   H     H_    0.834778 0.364860 0.099806 0.155891
H22   H     H_    0.853521 0.649250 0.119968 0.166427
H23   H     H_    0.718642 0.176147 0.616538 0.161565
H24   H     H_    0.746025 0.846773 0.653547 0.149884
H25   H     H_    0.218807 0.676034 0.616746 0.161508
H26   H     H_    0.246002 0.346752 0.653513 0.149886
H27   H     H_    0.334202 0.825978 0.943107 0.125891
H28   H     H_    0.356648 0.189882 0.969455 0.127537
H29   H     H_    0.834098 0.326041 0.942987 0.125883
H30   H     H_    0.856663 0.689890 0.969470 0.127538
H31   H     H_    0.323541 0.775433 0.755742 0.137082
H32   H     H_    0.357919 0.252028 0.801722 0.134729
H33   H     H_    0.823363 0.275552 0.755518 0.137107
H34   H     H_    0.857946 0.752050 0.801759 0.134720
H35   H     H_    0.518560 0.169392 0.738266 0.188710
H36   H     H_    0.514792 0.818524 0.710864 0.189585
H37   H     H_    0.018564 0.669419 0.738220 0.188699
H38   H     H_    0.014794 0.318537 0.710892 0.189624
N1    N     N_R   0.566260 0.000000 0.302220 -0.202891
N2    N     N_R   0.066260 0.500000 0.302220 -0.202957
N3    N     N_R   0.434410 0.000000 0.697680 -0.223283
N4    N     N_R   0.934410 0.500000 0.697680 -0.223285
O1    O     O_R   0.608610 0.924520 0.551740 -0.595184
O2    O     O_R   0.608610 0.075480 0.551740 -0.579870
O3    O     O_R   0.108610 0.424520 0.551740 -0.595171
O4    O     O_R   0.108610 0.575480 0.551740 -0.579992
O5    O     O_R   0.564110 0.924510 0.685150 -0.607738
O6    O     O_R   0.564110 0.075490 0.685150 -0.591864
O7    O     O_R   0.064110 0.424510 0.685150 -0.607737
O8    O     O_R   0.064110 0.575490 0.685150 -0.591833
O9    O     O_R   0.435880 0.075470 0.314850 -0.577989
O10   O     O_R   0.435880 0.924530 0.314850 -0.583494
O11   O     O_R   0.935880 0.575470 0.314850 -0.577980
O12   O     O_R   0.935880 0.424530 0.314850 -0.583491
O13   O     O_R   0.391380 0.075460 0.448260 -0.606882
O14   O     O_R   0.391380 0.924540 0.448260 -0.594605
O15   O     O_R   0.891380 0.575460 0.448260 -0.606880
O16   O     O_R   0.891380 0.424540 0.448260 -0.594599
C89   C     C_3   0.313077 0.779534 0.432046 -0.430567
C90   C     C_3   0.382659 0.718406 0.487392 -0.856387
H39   H     H_    0.348461 0.670920 0.418217 0.255577
H40   H     H_    0.441307 0.735346 0.492085 0.254012
H41   H     H_    0.410534 0.703005 0.594665 0.250543
H42   H     H_    0.348228 0.824829 0.505251 0.233368
H43   H     H_    0.257579 0.761751 0.434416 0.194772
C91   C     C_3   0.269933 0.191431 0.397572 -0.404097
C92   C     C_3   0.348825 0.244131 0.494700 -0.812196
H44   H     H_    0.364345 0.245992 0.597250 0.229435
H45   H     H_    0.328366 0.298673 0.447366 0.249066
H46   H     H_    0.412521 0.227652 0.512888 0.245740
H47   H     H_    0.207689 0.211105 0.380919 0.192224
H48   H     H_    0.286479 0.139299 0.450408 0.215877
C93   C     C_3   0.813048 0.279568 0.432062 -0.430510
C94   C     C_3   0.882677 0.218468 0.487500 -0.856446
H49   H     H_    0.848527 0.170968 0.418347 0.255592
H50   H     H_    0.941341 0.235429 0.492248 0.254005
H51   H     H_    0.910519 0.203076 0.594760 0.250573
H52   H     H_    0.848140 0.324885 0.505228 0.233473
H53   H     H_    0.757541 0.261766 0.434398 0.194738
C95   C     C_3   0.769910 0.691421 0.397541 -0.404054
C96   C     C_3   0.848795 0.744128 0.494662 -0.812262
H54   H     H_    0.864300 0.746007 0.597199 0.229441
H55   H     H_    0.828338 0.798661 0.447301 0.249069
H56   H     H_    0.912499 0.727645 0.512884 0.245736
H57   H     H_    0.707662 0.711091 0.380879 0.192229
H58   H     H_    0.786462 0.639290 0.450385 0.215869
C97   C     C_3   0.261733 0.992862 0.469143 -0.366714
C98   C     C_3   0.199359 0.926438 0.417373 -0.881799
H59   H     H_    0.236010 0.881134 0.492343 0.248072
H60   H     H_    0.137065 0.938618 0.406215 0.242964
H61   H     H_    0.175205 0.909910 0.312901 0.252819
H62   H     H_    0.216691 0.040043 0.440710 0.157086
H63   H     H_    0.283089 0.999289 0.406610 0.254151
C99   C     C_3   0.761736 0.492850 0.469142 -0.366556
C100  C     C_3   0.699356 0.426426 0.417336 -0.882052
H64   H     H_    0.735891 0.381171 0.492470 0.248049
H65   H     H_    0.636917 0.438666 0.405746 0.243011
H66   H     H_    0.675435 0.409788 0.313062 0.252882
H67   H     H_    0.716700 0.540032 0.440733 0.157051
H68   H     H_    0.783089 0.499295 0.406607 0.254117
C101  C     C_3   0.660470 0.971434 0.941693 -0.316696
C102  C     C_3   0.753698 0.954761 0.088022 -0.921520
H69   H     H_    0.800950 0.001642 0.130650 0.249709
H70   H     H_    0.742610 0.937681 0.162058 0.269189
H71   H     H_    0.788614 0.910089 0.079198 0.257455
H72   H     H_    0.626199 0.918823 0.909447 0.242269
H73   H     H_    0.678330 0.992170 0.878051 0.232773
C103  C     C_3   0.160457 0.471438 0.941711 -0.316710
C104  C     C_3   0.253661 0.454744 0.088061 -0.921403
H74   H     H_    0.300933 0.501615 0.130732 0.249697
H75   H     H_    0.242534 0.437666 0.162056 0.269182
H76   H     H_    0.288578 0.410063 0.079255 0.257441
H77   H     H_    0.126166 0.418835 0.909432 0.242267
H78   H     H_    0.178340 0.492169 0.878095 0.232738
C105  C     C_3   0.737787 0.003457 0.519141 -0.365604
C106  C     C_3   0.813580 0.061110 0.588842 -0.915341
H79   H     H_    0.783078 0.114918 0.545552 0.257934
H80   H     H_    0.853143 0.061386 0.704093 0.254047
H81   H     H_    0.863407 0.049789 0.571277 0.250765
H82   H     H_    0.716125 0.998567 0.581879 0.258226
H83   H     H_    0.769664 0.951211 0.528613 0.171349
C107  C     C_3   0.237773 0.503346 0.519103 -0.365734
C108  C     C_3   0.313816 0.560787 0.588910 -0.915847
H84   H     H_    0.283524 0.614698 0.546165 0.257989
H85   H     H_    0.353595 0.560826 0.704209 0.254116
H86   H     H_    0.363396 0.549432 0.570887 0.250885
H87   H     H_    0.216134 0.498607 0.581888 0.258274
H88   H     H_    0.269406 0.451001 0.528438 0.171522

loop_
_geom_bond_atom_site_label_1
_geom_bond_atom_site_label_2
_ccdc_geom_bond_type
C95   H57   S    
C93   H53   S    
C83   C87   A    
C24   H22   S    
C103  H77   S    
Cu1   O1    S    
C106  H80   S    
C76   H34   S    
C104  H74   S    
C14   C18   A    
C53   C55   A    
C102  H70   S    
C37   H9    S    
C3    O7    A    
C39   C66   S    
C35   N3    A    
Cu3   O13   S    
C32   C72   A    
C80   H30   S    
C96   H54   S    
C95   C96   S    
C15   C19   A    
C79   H29   S    
C59   N1    A    
C93   C94   S    
C2    C29   S    
C17   C85   A    
C89   H43   S    
C48   N4    A    
C28   C68   A    
C34   H4    S    
C5    C11   A    
Cu2   O11   S    
C19   C87   A    
C107  H87   S    
C108  H85   S    
C6    C12   A    
C12   C64   A    
C102  H71   S    
C41   O15   A    
C42   C67   S    
C77   C83   A    
C59   C105  S    
C101  H72   S    
C6    C22   A    
C71   C73   A    
C105  H83   S    
C49   C57   A    
C48   C56   A    
C101  H73   S    
C25   C63   A    
C23   C67   A    
C99   H67   S    
C9    C13   A    
C22   C66   A    
C100  H66   S    
C60   C107  S    
C27   C61   A    
C18   H36   S    
C11   C15   A    
C28   C95   S    
C12   C16   A    
C58   N2    A    
C103  C104  S    
C49   C51   A    
C58   H6    S    
C50   C52   A    
C89   C90   S    
C92   H45   S    
C69   C75   A    
C3    O3    A    
C5    C83   A    
C30   C86   A    
Cu4   O8    S    
C30   C70   A    
C29   C85   A    
C1    O5    A    
C98   H61   S    
C16   H14   S    
C38   H10   S    
Cu2   N2    S    
C31   C71   A    
C102  H69   S    
C33   C59   A    
Cu1   O2    S    
C47   N3    A    
C34   C60   A    
C104  H75   S    
C60   N2    A    
C10   C62   A    
C61   H15   S    
C64   H18   S    
C33   H3    S    
C21   C65   A    
Cu3   O14   S    
Cu2   O4    S    
C52   C54   A    
C41   C68   S    
C29   C69   A    
C45   C47   A    
C35   C97   S    
C62   H16   S    
C46   C48   A    
C6    C84   A    
C40   O14   A    
C53   H1    S    
C105  C106  S    
C26   C66   A    
C84   C88   A    
C94   H50   S    
C31   C87   A    
C72   C74   A    
C10   C14   A    
C108  H86   S    
C20   H38   S    
C79   C81   A    
C71   H25   S    
C107  C108  S    
C106  H79   S    
C44   C46   A    
C70   H24   S    
C105  H82   S    
C82   C86   A    
C2    O2    A    
C14   H12   S    
C97   C98   S    
C75   H33   S    
C5    C21   A    
C50   C58   A    
C63   H17   S    
C78   H28   S    
C108  H84   S    
C26   C64   A    
C38   C44   A    
C54   H2    S    
C23   H21   S    
C21   H19   S    
Cu2   Cu4   S    
C92   H44   S    
Cu3   N3    S    
C90   H41   S    
C45   C49   A    
C16   C20   A    
C57   H5    S    
C92   H46   S    
C25   C65   A    
C18   C86   A    
C89   H42   S    
C107  H88   S    
Cu4   O7    S    
C43   C45   A    
C96   H55   S    
C91   H47   S    
C27   C93   S    
Cu3   O5    S    
C80   C82   A    
C7    C81   A    
C39   O9    A    
Cu4   N4    S    
C22   H20   S    
C40   C65   S    
C40   O10   A    
Cu4   O16   S    
C94   H49   S    
C104  H76   S    
C9    C61   A    
C37   C43   A    
C13   H11   S    
C70   C76   A    
C72   H26   S    
C42   O12   A    
Cu2   O3    S    
C98   H59   S    
C35   C37   A    
C47   C55   A    
C97   H62   S    
C96   H56   S    
C95   H58   S    
C93   H52   S    
C7    C9    A    
C69   H23   S    
C103  H78   S    
C98   H60   S    
C55   C101  S    
C57   N1    A    
C17   H35   S    
C76   C80   A    
C90   H40   S    
C77   H27   S    
C36   N4    A    
C54   C56   A    
C97   H63   S    
C91   H48   S    
C33   C51   A    
Cu1   O10   S    
C46   C50   A    
C34   C52   A    
Cu1   N1    S    
C13   C17   A    
C25   C89   S    
C2    O6    A    
C15   H13   S    
C36   C38   A    
C19   H37   S    
Cu2   O12   S    
C73   H31   S    
Cu1   O9    S    
C43   H7    S    
C4    O8    A    
C44   H8    S    
C91   C92   S    
C106  H81   S    
C7    C23   A    
C20   C88   A    
Cu1   Cu3   S    
C1    C30   S    
C8    C24   A    
C26   C91   S    
C36   C99   S    
C99   H68   S    
C3    C32   S    
C42   O16   A    
C100  H65   S    
C4    C31   S    
C27   C67   A    
C24   C68   A    
C4    O4    A    
Cu3   O6    S    
C78   C84   A    
C8    C82   A    
C41   O11   A    
C90   H39   S    
C94   H51   S    
C8    C10   A    
C101  C102  S    
C74   C78   A    
C39   O13   A    
Cu4   O15   S    
C73   C77   A    
C100  H64   S    
C51   C53   A    
C99   C100  S    
C1    O1    A    
C11   C63   A    
C75   C79   A    
C81   C85   A    
C28   C62   A    
C56   C103  S    
C74   H32   S    
C32   C88   A    
