data_mof_unit_52340.cif
_audit_creation_date              2012-12-11T17:18:14-0500
_audit_creation_method            fapswitch 2.2
_symmetry_space_group_name_H-M    P1
_symmetry_Int_Tables_number       1
_space_group_crystal_system       triclinic
_cell_length_a                    27.639771
_cell_length_b                    22.552857
_cell_length_c                    21.033175
_cell_angle_alpha                 89.914675
_cell_angle_beta                  51.343872
_cell_angle_gamma                 89.989415
_cell_volume                      10238.5994652

loop_
_atom_site_label
_atom_site_type_symbol
_atom_type_description
_atom_site_fract_x
_atom_site_fract_y
_atom_site_fract_z
_atom_type_partial_charge
C1    C     C_R   0.915053 0.577886 0.733248 -0.176548
C2    C     C_R   0.100592 0.432626 0.263391 -0.116445
C3    C     C_R   0.084432 0.578246 0.266939 -0.173276
C4    C     C_R   0.899865 0.432385 0.736581 -0.119138
C5    C     C_R   0.415253 0.077938 0.733160 -0.177183
C6    C     C_R   0.600495 0.932622 0.263369 -0.112288
C7    C     C_R   0.584552 0.078078 0.266845 -0.173768
C8    C     C_R   0.399071 0.932839 0.736572 -0.113318
C9    C     C_1   0.124891 0.708301 0.151732 0.186074
C10   C     C_1   0.766445 0.338505 0.872537 0.208985
C11   C     C_1   0.872889 0.707400 0.849208 0.187100
C12   C     C_1   0.233544 0.336265 0.129806 0.216935
C13   C     C_1   0.624783 0.208959 0.152749 0.185904
C14   C     C_1   0.264843 0.838276 0.871421 0.213738
C15   C     C_1   0.372896 0.206853 0.849533 0.188297
C16   C     C_1   0.734148 0.837420 0.129027 0.214544
C17   C     C_1   0.812785 0.359967 0.814017 -0.066867
C18   C     C_1   0.113880 0.676987 0.205108 -0.085399
C19   C     C_1   0.187831 0.359608 0.186888 -0.064548
C20   C     C_1   0.884363 0.676235 0.795608 -0.087139
C21   C     C_1   0.311177 0.860559 0.813630 -0.066274
C22   C     C_1   0.614026 0.176892 0.205313 -0.083942
C23   C     C_1   0.687998 0.859971 0.186549 -0.062853
C24   C     C_1   0.384494 0.176187 0.795496 -0.082241
C25   C     C_1   0.118317 0.688476 0.589478 0.074780
C26   C     C_1   0.793347 0.356328 0.538884 0.065380
C27   C     C_1   0.881828 0.688704 0.410172 0.073573
C28   C     C_1   0.206921 0.356686 0.460959 0.075111
C29   C     C_1   0.615309 0.191530 0.590381 0.080157
C30   C     C_1   0.295229 0.854453 0.534570 0.069294
C31   C     C_1   0.378670 0.188059 0.413716 0.079747
C32   C     C_1   0.704683 0.855099 0.466368 0.061079
C33   C     C_2   0.160029 0.770176 0.632941 0.376668
C34   C     C_2   0.688899 0.317566 0.575435 0.373260
C35   C     C_2   0.839967 0.771103 0.367581 0.375715
C36   C     C_2   0.315196 0.316662 0.410845 0.360465
C37   C     C_2   0.655984 0.275666 0.632818 0.420709
C38   C     C_2   0.189155 0.814312 0.578585 0.380667
C39   C     C_2   0.336707 0.266769 0.366719 0.412672
C40   C     C_2   0.810653 0.814762 0.422475 0.376642
C41   C     C_1   0.744833 0.338525 0.559130 -0.088872
C42   C     C_1   0.133404 0.725527 0.614491 -0.087905
C43   C     C_1   0.256681 0.338880 0.436284 -0.080947
C44   C     C_1   0.866679 0.726031 0.385422 -0.083455
C45   C     C_1   0.246287 0.836178 0.556756 -0.032774
C46   C     C_1   0.629907 0.230053 0.614458 -0.093144
C47   C     C_1   0.753559 0.836790 0.444340 -0.030010
C48   C     C_1   0.363216 0.224250 0.388030 -0.083137
C49   C     C_R   0.877267 0.433523 0.467932 0.433403
C50   C     C_R   0.090161 0.586950 0.581803 0.496932
C51   C     C_R   0.122253 0.433248 0.533352 0.438100
C52   C     C_R   0.909952 0.587053 0.418009 0.499905
C53   C     C_R   0.378786 0.932403 0.464180 0.424828
C54   C     C_R   0.590147 0.087978 0.581411 0.458491
C55   C     C_R   0.620893 0.932624 0.536522 0.431820
C56   C     C_R   0.408349 0.086842 0.419952 0.460729
C57   C     C_R   0.911589 0.651939 0.494453 0.433483
C58   C     C_R   0.109876 0.359635 0.476199 0.454940
C59   C     C_R   0.088526 0.651932 0.505282 0.435332
C60   C     C_R   0.890144 0.359392 0.523953 0.451460
C61   C     C_R   0.410670 0.151735 0.495744 0.433412
C62   C     C_R   0.610022 0.859838 0.476319 0.454698
C63   C     C_R   0.584829 0.153215 0.508286 0.425721
C64   C     C_R   0.390469 0.859179 0.523023 0.448414
C65   C     C_R   0.897249 0.360562 0.665562 -0.181881
C66   C     C_R   0.083656 0.649976 0.340351 -0.099590
C67   C     C_R   0.103100 0.360932 0.334776 -0.175306
C68   C     C_R   0.915742 0.649684 0.659812 -0.098312
C69   C     C_R   0.396651 0.861006 0.665462 -0.179655
C70   C     C_R   0.584159 0.149683 0.339997 -0.102152
C71   C     C_R   0.603006 0.860852 0.334604 -0.172817
C72   C     C_R   0.415508 0.149580 0.659921 -0.080986
C73   C     C_R   0.897395 0.635363 0.735815 0.075356
C74   C     C_R   0.132207 0.382919 0.257693 0.083303
C75   C     C_R   0.101670 0.635903 0.264467 0.076335
C76   C     C_R   0.868477 0.382512 0.742592 0.084751
C77   C     C_R   0.397445 0.135341 0.735772 0.068933
C78   C     C_R   0.632084 0.882860 0.257508 0.080457
C79   C     C_R   0.602127 0.135581 0.264197 0.079879
C80   C     C_R   0.367284 0.883230 0.742498 0.082937
C81   C     C_R   0.850325 0.381735 0.512239 -0.210845
C82   C     C_R   0.105388 0.643980 0.554251 -0.264310
C83   C     C_R   0.149015 0.381352 0.489788 -0.247345
C84   C     C_R   0.894821 0.644079 0.445375 -0.265003
C85   C     C_R   0.351777 0.880626 0.508681 -0.202085
C86   C     C_R   0.603083 0.145798 0.555525 -0.235160
C87   C     C_R   0.648176 0.881108 0.491929 -0.238070
C88   C     C_R   0.392568 0.143673 0.448230 -0.251457
C89   C     C_R   0.673015 0.214339 0.009500 0.375884
C90   C     C_R   0.171145 0.836348 0.013159 0.315923
C91   C     C_R   0.316679 0.208564 0.995049 0.372728
C92   C     C_R   0.827370 0.835309 0.987154 0.316529
C93   C     C_R   0.176813 0.711837 0.007169 0.375446
C94   C     C_R   0.676068 0.338635 0.015818 0.318671
C95   C     C_R   0.820781 0.710791 0.993861 0.373858
C96   C     C_R   0.329508 0.332484 0.989921 0.314535
C97   C     C_R   0.143604 0.741656 0.082200 -0.319935
C98   C     C_R   0.714548 0.308512 0.941464 -0.344425
C99   C     C_R   0.854047 0.740633 0.918699 -0.322902
C100  C     C_R   0.283780 0.303320 0.062988 -0.333474
C101  C     C_R   0.643375 0.243647 0.084342 -0.326805
C102  C     C_R   0.213492 0.806689 0.939262 -0.335512
C103  C     C_R   0.353485 0.238805 0.920117 -0.321365
C104  C     C_R   0.785203 0.805713 0.061310 -0.337629
C105  C     C_R   0.139648 0.803771 0.086233 0.376346
C106  C     C_R   0.710883 0.246676 0.937373 0.371678
C107  C     C_R   0.858400 0.802732 0.914328 0.375807
C108  C     C_R   0.279412 0.241211 0.066795 0.371226
C109  C     C_R   0.643830 0.305716 0.088502 0.380150
C110  C     C_R   0.213945 0.744491 0.935191 0.370049
C111  C     C_R   0.361097 0.300564 0.916486 0.376951
C112  C     C_R   0.784359 0.743532 0.065674 0.372047
H1    H     H_    0.913819 0.556098 0.779983 0.091509
H2    H     H_    0.110959 0.459815 0.213990 0.103494
H3    H     H_    0.085480 0.556485 0.220411 0.090693
H4    H     H_    0.889686 0.459489 0.785833 0.104276
H5    H     H_    0.414388 0.056303 0.779690 0.090200
H6    H     H_    0.610865 0.959893 0.214033 0.104500
H7    H     H_    0.585219 0.056469 0.220529 0.091276
H8    H     H_    0.388553 0.960110 0.785881 0.103391
H9    H     H_    0.885696 0.319792 0.651731 0.173160
H10   H     H_    0.079618 0.694098 0.362783 0.153460
H11   H     H_    0.114942 0.320509 0.349074 0.178470
H12   H     H_    0.919124 0.693793 0.637648 0.152573
H13   H     H_    0.384988 0.820332 0.651599 0.174695
H14   H     H_    0.580425 0.193721 0.361950 0.142423
H15   H     H_    0.614768 0.820289 0.348674 0.180282
H16   H     H_    0.418451 0.193568 0.637936 0.158086
N1    N     N_R   0.945330 0.558420 0.657110 -0.061689
N2    N     N_R   0.054670 0.441580 0.342890 -0.050570
N3    N     N_R   0.054670 0.558420 0.342890 -0.062358
N4    N     N_R   0.945330 0.441580 0.657110 -0.050145
N5    N     N_R   0.445330 0.058420 0.657110 -0.061079
N6    N     N_R   0.554670 0.941580 0.342890 -0.049735
N7    N     N_R   0.554670 0.058420 0.342890 -0.061291
N8    N     N_R   0.445330 0.941580 0.657110 -0.049102
N9    N     N_R   0.932950 0.440460 0.451240 -0.122706
N10   N     N_R   0.067050 0.559540 0.548760 -0.139177
N11   N     N_R   0.067050 0.440460 0.548760 -0.124299
N12   N     N_R   0.932950 0.559540 0.451240 -0.139587
N13   N     N_R   0.432950 0.940460 0.451240 -0.119706
N14   N     N_R   0.567050 0.059540 0.548760 -0.137976
N15   N     N_R   0.567050 0.940460 0.548760 -0.119979
N16   N     N_R   0.432950 0.059540 0.451240 -0.141303
N17   N     N_R   0.935620 0.600470 0.495720 -0.111847
N18   N     N_R   0.064380 0.399530 0.504280 -0.131663
N19   N     N_R   0.064380 0.600470 0.504280 -0.111684
N20   N     N_R   0.935620 0.399530 0.495720 -0.141287
N21   N     N_R   0.435620 0.100470 0.495720 -0.109497
N22   N     N_R   0.564380 0.899530 0.504280 -0.130301
N23   N     N_R   0.564380 0.100470 0.504280 -0.108787
N24   N     N_R   0.435620 0.899530 0.495720 -0.139994
N25   N     N_R   0.942650 0.398400 0.612630 -0.053654
N26   N     N_R   0.057350 0.601600 0.387370 -0.037595
N27   N     N_R   0.057350 0.398400 0.387370 -0.054916
N28   N     N_R   0.942650 0.601600 0.612630 -0.037279
N29   N     N_R   0.442650 0.898400 0.612630 -0.054039
N30   N     N_R   0.557350 0.101600 0.387370 -0.036925
N31   N     N_R   0.557350 0.898400 0.387370 -0.055273
N32   N     N_R   0.442650 0.101600 0.612630 -0.035667
Ni1   Ni    Ni4+2 0.004930 0.500000 0.602010 0.193254
Ni2   Ni    Ni4+2 0.995070 0.500000 0.397990 0.193282
Ni3   Ni    Ni4+2 0.504930 1.000000 0.602010 0.197355
Ni4   Ni    Ni4+2 0.495070 1.000000 0.397990 0.195265
Ni5   Ni    Ni4+2 0.998800 0.599610 0.500000 0.264734
Ni6   Ni    Ni4+2 0.001200 0.400390 0.500000 0.177722
Ni7   Ni    Ni4+2 0.498800 0.099610 0.500000 0.266276
Ni8   Ni    Ni4+2 0.501200 0.900390 0.500000 0.179408
O1    O     O_3   0.851838 0.471309 0.444140 -0.590943
C113  C     C_3   0.796180 0.496313 0.513967 0.329005
H17   H     H_    0.805719 0.523983 0.548819 0.059093
H18   H     H_    0.761595 0.462277 0.555690 0.055917
C114  C     C_3   0.765495 0.534804 0.488534 -0.854119
H19   H     H_    0.766682 0.511889 0.441007 0.265377
H20   H     H_    0.716486 0.543386 0.541897 0.187222
H21   H     H_    0.789197 0.578194 0.464581 0.269849
O2    O     O_3   0.095106 0.563954 0.638623 -0.588261
C115  C     C_3   0.036771 0.549526 0.711128 0.332036
H22   H     H_    0.014525 0.514176 0.700597 0.099469
H23   H     H_    0.007867 0.590220 0.737857 0.070226
C116  C     C_3   0.044612 0.525854 0.771904 -0.903331
H24   H     H_    0.066417 0.560137 0.784613 0.246015
H25   H     H_    0.998620 0.514081 0.829690 0.201224
H26   H     H_    0.074312 0.485657 0.747083 0.278534
O3    O     O_3   0.147364 0.470874 0.557685 -0.586778
C117  C     C_3   0.203023 0.496367 0.488224 0.348880
H27   H     H_    0.193420 0.524900 0.454042 0.054546
H28   H     H_    0.237503 0.462711 0.445585 0.046811
C118  C     C_3   0.233988 0.533794 0.514141 -0.857795
H29   H     H_    0.234039 0.509544 0.560060 0.256861
H30   H     H_    0.282583 0.543548 0.460342 0.192417
H31   H     H_    0.209829 0.576700 0.540218 0.271792
O4    O     O_3   0.904404 0.564021 0.361805 -0.587473
C119  C     C_3   0.962202 0.547509 0.289980 0.334036
H32   H     H_    0.984147 0.512937 0.302083 0.098377
H33   H     H_    0.991849 0.587561 0.260498 0.068970
C120  C     C_3   0.953204 0.521397 0.231422 -0.897313
H34   H     H_    0.931794 0.554827 0.216985 0.245810
H35   H     H_    0.998738 0.508038 0.174149 0.201019
H36   H     H_    0.922677 0.481786 0.259135 0.277764
O5    O     O_3   0.360908 0.962729 0.424823 -0.595408
C121  C     C_3   0.300619 0.987084 0.481732 0.399486
H37   H     H_    0.302962 0.029098 0.507023 0.078308
H38   H     H_    0.267406 0.958475 0.534761 0.021359
C122  C     C_3   0.273135 0.999780 0.438999 -0.876669
H39   H     H_    0.269448 0.957940 0.414496 0.244338
H40   H     H_    0.226174 0.019235 0.482855 0.190292
H41   H     H_    0.302670 0.031524 0.388095 0.287599
O6    O     O_3   0.595850 0.065629 0.637666 -0.605000
C123  C     C_3   0.537462 0.053571 0.711635 0.344289
H42   H     H_    0.514532 0.017077 0.703895 0.107325
H43   H     H_    0.508986 0.094679 0.735745 0.070863
C124  C     C_3   0.545469 0.033395 0.773562 -0.919206
H44   H     H_    0.568502 0.068751 0.782813 0.244341
H45   H     H_    0.499419 0.023864 0.832598 0.204234
H46   H     H_    0.574123 0.992541 0.751840 0.285028
O7    O     O_3   0.638007 0.962889 0.576741 -0.595057
C125  C     C_3   0.698282 0.987546 0.520556 0.401573
H47   H     H_    0.695985 0.029894 0.495685 0.081637
H48   H     H_    0.731745 0.959380 0.467235 0.023610
C126  C     C_3   0.725250 0.999548 0.564053 -0.879119
H49   H     H_    0.728877 0.957381 0.588161 0.243900
H50   H     H_    0.772179 0.019303 0.520801 0.190307
H51   H     H_    0.695390 0.030798 0.615338 0.288896
O8    O     O_3   0.403390 0.064611 0.362978 -0.605842
C127  C     C_3   0.461706 0.050275 0.290392 0.345182
H52   H     H_    0.484033 0.014903 0.300819 0.106959
H53   H     H_    0.490699 0.090972 0.263576 0.072396
C128  C     C_3   0.453676 0.026685 0.229816 -0.914451
H54   H     H_    0.432141 0.061075 0.216782 0.241877
H55   H     H_    0.499543 0.014581 0.172227 0.206889
H56   H     H_    0.423662 0.986657 0.254925 0.288612
O9    O     O_3   0.928939 0.705692 0.506106 -0.611036
C129  C     C_3   0.875892 0.740918 0.559880 0.253771
H57   H     H_    0.844450 0.719761 0.621046 0.069828
H58   H     H_    0.849461 0.748486 0.537164 0.156683
C130  C     C_3   0.896224 0.801035 0.568465 -0.849645
H59   H     H_    0.929712 0.821871 0.507741 0.257442
H60   H     H_    0.855421 0.830534 0.606732 0.216043
H61   H     H_    0.918896 0.795945 0.596892 0.247613
O10   O     O_3   0.106145 0.300472 0.463029 -0.642496
C131  C     C_3   0.065467 0.271932 0.539330 0.294347
H62   H     H_    0.016795 0.285446 0.569874 0.089108
H63   H     H_    0.077027 0.282242 0.580352 0.094540
C132  C     C_3   0.070739 0.205203 0.526726 -0.918198
H64   H     H_    0.117262 0.190138 0.504207 0.262268
H65   H     H_    0.035014 0.182524 0.585300 0.215902
H66   H     H_    0.064025 0.193050 0.481637 0.262854
O11   O     O_3   0.071112 0.705702 0.493665 -0.610835
C133  C     C_3   0.124125 0.741069 0.439796 0.253706
H67   H     H_    0.155427 0.720087 0.378599 0.071207
H68   H     H_    0.150676 0.748564 0.462362 0.155989
C134  C     C_3   0.103725 0.801238 0.431377 -0.850526
H69   H     H_    0.070218 0.821844 0.492152 0.257425
H70   H     H_    0.144497 0.830880 0.393200 0.216273
H71   H     H_    0.081068 0.796280 0.402926 0.247809
O12   O     O_3   0.891587 0.300173 0.540076 -0.641162
C135  C     C_3   0.951952 0.277469 0.482179 0.281824
H72   H     H_    0.984247 0.296773 0.491130 0.111598
H73   H     H_    0.969549 0.286869 0.418874 0.101348
C136  C     C_3   0.950624 0.210601 0.492203 -0.918163
H74   H     H_    0.917499 0.190336 0.485362 0.262254
H75   H     H_    0.997368 0.191999 0.444709 0.214529
H76   H     H_    0.936334 0.199498 0.553269 0.253387
O13   O     O_3   0.428093 0.205618 0.506956 -0.609332
C137  C     C_3   0.375132 0.240961 0.560585 0.270038
H77   H     H_    0.341975 0.218543 0.620578 0.064547
H78   H     H_    0.350951 0.251560 0.535283 0.143424
C138  C     C_3   0.395287 0.299247 0.573762 -0.882450
H79   H     H_    0.428471 0.322241 0.514573 0.259156
H80   H     H_    0.354237 0.327880 0.614934 0.213594
H81   H     H_    0.418278 0.291423 0.601287 0.254714
O14   O     O_3   0.607192 0.800923 0.461270 -0.647213
C139  C     C_3   0.566572 0.771068 0.536503 0.287916
H82   H     H_    0.517810 0.784318 0.567145 0.090702
H83   H     H_    0.577729 0.780374 0.578168 0.099464
C140  C     C_3   0.572698 0.704597 0.521441 -0.914051
H84   H     H_    0.619158 0.689620 0.499222 0.259470
H85   H     H_    0.536823 0.680870 0.578966 0.215988
H86   H     H_    0.566895 0.693578 0.475178 0.261452
O15   O     O_3   0.557638 0.204636 0.508406 -0.606065
C141  C     C_3   0.602978 0.247478 0.456938 0.259205
H87   H     H_    0.639761 0.229363 0.395132 0.066532
H88   H     H_    0.624854 0.264441 0.482897 0.165697
C142  C     C_3   0.571102 0.299056 0.449601 -0.908775
H89   H     H_    0.540043 0.322395 0.508882 0.256020
H90   H     H_    0.605829 0.330746 0.402559 0.216132
H91   H     H_    0.542934 0.282955 0.432125 0.281055
O16   O     O_3   0.392028 0.800070 0.539432 -0.641574
C143  C     C_3   0.452208 0.777235 0.480769 0.281435
H92   H     H_    0.485021 0.796448 0.488849 0.110667
H93   H     H_    0.469177 0.786632 0.417741 0.103200
C144  C     C_3   0.450824 0.710358 0.490769 -0.911428
H94   H     H_    0.417001 0.690245 0.485119 0.265592
H95   H     H_    0.497324 0.691618 0.442558 0.214276
H96   H     H_    0.437435 0.699233 0.551347 0.252744
O17   O     O_3   0.753547 0.216394 0.865537 -0.605972
C145  C     C_3   0.735947 0.219267 0.815449 0.216633
H97   H     H_    0.729550 0.265957 0.804567 0.091150
H98   H     H_    0.692071 0.194240 0.843955 0.076486
C146  C     C_3   0.787235 0.190977 0.733491 -0.289044
H99   H     H_    0.831651 0.214508 0.706069 0.209786
H100  H     H_    0.792920 0.143839 0.743199 0.207218
C147  C     C_3   0.772858 0.193757 0.674390 -0.892305
H101  H     H_    0.728766 0.170310 0.700200 0.250453
H102  H     H_    0.810526 0.171816 0.616431 0.263641
H103  H     H_    0.769633 0.240634 0.661170 0.310244
O18   O     O_3   0.104560 0.831604 0.161582 -0.649750
C148  C     C_3   0.143116 0.863330 0.172676 0.252315
H104  H     H_    0.113774 0.896898 0.220840 0.118564
H105  H     H_    0.180866 0.888466 0.117787 0.137889
C149  C     C_3   0.170727 0.822328 0.200814 -0.353195
H106  H     H_    0.132880 0.797739 0.256143 0.213077
H107  H     H_    0.202331 0.789812 0.152151 0.203198
C150  C     C_3   0.207597 0.857456 0.219620 -1.005882
H108  H     H_    0.246360 0.881517 0.164447 0.272518
H109  H     H_    0.227217 0.826624 0.239443 0.275012
H110  H     H_    0.177157 0.889893 0.269078 0.267499
O19   O     O_3   0.230815 0.212940 0.137151 -0.610074
C151  C     C_3   0.246533 0.203558 0.188568 0.216571
H111  H     H_    0.254095 0.246533 0.207287 0.096466
H112  H     H_    0.289149 0.175963 0.157417 0.077837
C152  C     C_3   0.193020 0.170759 0.264721 -0.243825
H113  H     H_    0.150634 0.198709 0.297674 0.202244
H114  H     H_    0.183579 0.128862 0.246400 0.209937
C153  C     C_3   0.207614 0.155946 0.321889 -1.001277
H115  H     H_    0.249693 0.127788 0.290409 0.255803
H116  H     H_    0.168297 0.130947 0.375168 0.269516
H117  H     H_    0.214704 0.197271 0.343797 0.312692
O20   O     O_3   0.893300 0.830605 0.838887 -0.650007
C154  C     C_3   0.854524 0.862198 0.828025 0.254900
H118  H     H_    0.883609 0.896137 0.780153 0.118515
H119  H     H_    0.816551 0.886883 0.883124 0.137415
C155  C     C_3   0.827259 0.821172 0.799516 -0.354432
H120  H     H_    0.865297 0.796929 0.744105 0.213382
H121  H     H_    0.795793 0.788364 0.847978 0.203389
C156  C     C_3   0.790292 0.856183 0.780719 -1.004457
H122  H     H_    0.751263 0.879788 0.836015 0.273143
H123  H     H_    0.771043 0.825337 0.760455 0.274399
H124  H     H_    0.820556 0.889004 0.731579 0.267327
O21   O     O_3   0.259140 0.715132 0.863690 -0.607398
C157  C     C_3   0.242000 0.713512 0.813047 0.218947
H125  H     H_    0.235285 0.759044 0.799101 0.095466
H126  H     H_    0.198459 0.687592 0.842722 0.073990
C158  C     C_3   0.293820 0.683236 0.733166 -0.282592
H127  H     H_    0.337865 0.707918 0.704262 0.207567
H128  H     H_    0.300093 0.637299 0.746127 0.208269
C159  C     C_3   0.279580 0.680883 0.673887 -0.911231
H129  H     H_    0.235380 0.656961 0.701622 0.251569
H130  H     H_    0.317197 0.656850 0.618005 0.263428
H131  H     H_    0.276581 0.726470 0.656581 0.313270
O22   O     O_3   0.611878 0.333386 0.163668 -0.646284
C160  C     C_3   0.653486 0.360344 0.173010 0.274330
H132  H     H_    0.629254 0.398949 0.214207 0.124420
H133  H     H_    0.696453 0.378117 0.115413 0.127208
C161  C     C_3   0.671020 0.317185 0.211931 -0.363164
H134  H     H_    0.628278 0.299111 0.269235 0.219393
H135  H     H_    0.698183 0.279824 0.169633 0.204954
C162  C     C_3   0.710276 0.347693 0.230377 -1.020832
H136  H     H_    0.754343 0.363996 0.173205 0.276981
H137  H     H_    0.721320 0.315597 0.259744 0.270724
H138  H     H_    0.684711 0.385688 0.272210 0.270222
O23   O     O_3   0.739749 0.714262 0.137726 -0.608916
C163  C     C_3   0.759315 0.710943 0.185583 0.221319
H139  H     H_    0.761415 0.755983 0.205426 0.100649
H140  H     H_    0.805723 0.689558 0.151074 0.066763
C164  C     C_3   0.712597 0.673402 0.260988 -0.260502
H141  H     H_    0.665963 0.694114 0.296010 0.207413
H142  H     H_    0.710099 0.628438 0.241580 0.208506
C165  C     C_3   0.730548 0.667497 0.316104 -0.954564
H143  H     H_    0.777605 0.648087 0.282080 0.257969
H144  H     H_    0.697195 0.637685 0.367899 0.263699
H145  H     H_    0.729293 0.711566 0.340571 0.311289
O24   O     O_3   0.400158 0.328423 0.841210 -0.648546
C166  C     C_3   0.366001 0.364772 0.826765 0.250935
H146  H     H_    0.399437 0.395311 0.775985 0.122246
H147  H     H_    0.331581 0.393471 0.879348 0.141960
C167  C     C_3   0.333833 0.328072 0.801403 -0.356503
H148  H     H_    0.368658 0.300448 0.747720 0.213696
H149  H     H_    0.298793 0.298312 0.852119 0.203138
C168  C     C_3   0.301023 0.367995 0.780387 -1.005051
H150  H     H_    0.266103 0.396115 0.833388 0.272971
H151  H     H_    0.276837 0.340249 0.764419 0.272955
H152  H     H_    0.335084 0.396889 0.727686 0.269143
O25   O     O_3   0.674464 0.153063 0.005526 -0.573431
C169  C     C_3   0.618305 0.133019 0.024729 0.291731
H153  H     H_    0.610275 0.153493 0.983751 0.064801
H154  H     H_    0.578401 0.143250 0.089145 0.090760
C170  C     C_3   0.621320 0.066167 0.013800 -0.883672
H155  H     H_    0.578002 0.050129 0.026660 0.205420
H156  H     H_    0.661211 0.054312 0.950246 0.263945
H157  H     H_    0.626721 0.044202 0.056352 0.249377
O26   O     O_3   0.167726 0.897528 0.014089 -0.612210
C171  C     C_3   0.112821 0.913536 0.027056 0.288312
H158  H     H_    0.071079 0.896678 0.086789 0.119193
H159  H     H_    0.112968 0.896057 0.977374 0.077029
C172  C     C_3   0.108558 0.980761 0.027453 -0.876908
H160  H     H_    0.149171 0.999041 0.968216 0.260516
H161  H     H_    0.065574 0.993952 0.037404 0.203260
H162  H     H_    0.107522 0.999444 0.077128 0.260308
O27   O     O_3   0.307750 0.147877 0.998358 -0.574426
C173  C     C_3   0.359874 0.118918 0.981769 0.295280
H163  H     H_    0.368375 0.133452 0.024653 0.063147
H164  H     H_    0.402197 0.127470 0.918224 0.081046
C174  C     C_3   0.348273 0.052413 0.991641 -0.881013
H165  H     H_    0.388747 0.029151 0.979376 0.201594
H166  H     H_    0.306466 0.042079 0.054725 0.261618
H167  H     H_    0.341211 0.036320 0.948069 0.253852
O28   O     O_3   0.831036 0.896481 0.985763 -0.612036
C175  C     C_3   0.885862 0.912388 0.973050 0.293419
H168  H     H_    0.927623 0.895290 0.913630 0.116709
H169  H     H_    0.885353 0.895065 0.023146 0.076961
C176  C     C_3   0.890524 0.979603 0.971906 -0.881972
H170  H     H_    0.849890 0.998119 0.030810 0.260720
H171  H     H_    0.933449 0.992710 0.962158 0.203509
H172  H     H_    0.891933 0.998135 0.921807 0.259949
O29   O     O_3   0.182610 0.650717 0.003309 -0.573340
C177  C     C_3   0.128424 0.625507 0.021589 0.298796
H173  H     H_    0.119968 0.642397 0.979462 0.063932
H174  H     H_    0.087249 0.635081 0.085506 0.078655
C178  C     C_3   0.136083 0.558578 0.012007 -0.884019
H175  H     H_    0.094045 0.538317 0.025197 0.202238
H176  H     H_    0.176855 0.547244 0.948732 0.262715
H177  H     H_    0.142771 0.540193 0.055064 0.251088
O30   O     O_3   0.677841 0.399818 0.017452 -0.612392
C179  C     C_3   0.627462 0.422235 0.023542 0.290720
H178  H     H_    0.582536 0.406993 0.080884 0.108527
H179  H     H_    0.630498 0.408221 0.970327 0.076106
C180  C     C_3   0.628906 0.489605 0.024589 -0.867904
H180  H     H_    0.672922 0.506255 0.967651 0.260049
H181  H     H_    0.589446 0.507855 0.029324 0.202288
H182  H     H_    0.625235 0.504996 0.077602 0.260705
O31   O     O_3   0.814052 0.649740 0.998253 -0.573710
C181  C     C_3   0.868183 0.623534 0.978959 0.295074
H183  H     H_    0.879078 0.641292 0.018172 0.066798
H184  H     H_    0.908492 0.631060 0.913913 0.083984
C182  C     C_3   0.858265 0.556998 0.992892 -0.882128
H185  H     H_    0.900253 0.535949 0.978925 0.201640
H186  H     H_    0.818158 0.547733 0.057408 0.262461
H187  H     H_    0.849254 0.537624 0.952640 0.253807
O32   O     O_3   0.336989 0.393083 0.989784 -0.612036
C183  C     C_3   0.390691 0.403642 0.982239 0.292616
H188  H     H_    0.432768 0.386202 0.923405 0.117514
H189  H     H_    0.386553 0.382827 0.033580 0.076869
C184  C     C_3   0.398786 0.470097 0.984380 -0.888045
H190  H     H_    0.357876 0.488792 0.042892 0.260752
H191  H     H_    0.440916 0.478986 0.978566 0.203037
H192  H     H_    0.403814 0.492069 0.933233 0.260031
O33   O     O_3   0.175369 0.826705 0.526924 -0.683235
C185  C     C_3   0.145409 0.882362 0.548011 0.155267
H193  H     H_    0.147854 0.897512 0.495791 0.146906
H194  H     H_    0.169296 0.916899 0.557331 0.092638
C186  C     C_3   0.076978 0.877434 0.623762 -0.314493
H195  H     H_    0.054652 0.840129 0.616341 0.224396
H196  H     H_    0.073700 0.868263 0.678267 0.182022
C187  C     C_3   0.041983 0.934616 0.638106 -0.979617
H197  H     H_    0.063822 0.972548 0.645313 0.261812
H198  H     H_    0.993331 0.930336 0.694487 0.275881
H199  H     H_    0.041902 0.943473 0.586204 0.261973
O34   O     O_3   0.662534 0.268956 0.693168 -0.687973
C188  C     C_3   0.613664 0.235891 0.761224 0.168508
H200  H     H_    0.627322 0.226387 0.799895 0.120275
H201  H     H_    0.607251 0.191823 0.743663 0.113846
C189  C     C_3   0.552884 0.271302 0.812666 -0.287744
H202  H     H_    0.561007 0.314502 0.829977 0.198032
H203  H     H_    0.536533 0.280189 0.776901 0.213206
C190  C     C_3   0.502368 0.237482 0.889798 -1.044252
H204  H     H_    0.492020 0.195044 0.873747 0.264334
H205  H     H_    0.459482 0.264553 0.926665 0.260125
H206  H     H_    0.517270 0.228070 0.927104 0.265967
O35   O     O_3   0.824538 0.826709 0.474093 -0.684708
C191  C     C_3   0.853408 0.882913 0.454355 0.156341
H207  H     H_    0.850937 0.897391 0.506770 0.146606
H208  H     H_    0.828708 0.917329 0.446230 0.093116
C192  C     C_3   0.921800 0.879592 0.378173 -0.315192
H209  H     H_    0.944925 0.842197 0.384083 0.224289
H210  H     H_    0.924906 0.871503 0.323629 0.181071
C193  C     C_3   0.955886 0.937101 0.365460 -0.979601
H211  H     H_    0.933262 0.975111 0.359730 0.262277
H212  H     H_    0.004523 0.933995 0.308766 0.274540
H213  H     H_    0.956090 0.944968 0.417417 0.262063
O36   O     O_3   0.316559 0.250576 0.322616 -0.679845
C194  C     C_3   0.358807 0.212080 0.257005 0.183515
H214  H     H_    0.336530 0.197236 0.230540 0.128943
H215  H     H_    0.367819 0.171066 0.277595 0.120399
C195  C     C_3   0.419450 0.243845 0.189466 -0.317231
H216  H     H_    0.408638 0.284936 0.171299 0.204606
H217  H     H_    0.445168 0.256344 0.212104 0.198004
C196  C     C_3   0.460879 0.204185 0.114950 -1.061364
H218  H     H_    0.471614 0.162462 0.131977 0.267842
H219  H     H_    0.504998 0.227587 0.068169 0.261342
H220  H     H_    0.437583 0.193299 0.088445 0.268343
O37   O     O_3   0.677978 0.328415 0.520003 -0.699679
C197  C     C_3   0.696991 0.386243 0.486649 0.187750
H221  H     H_    0.748497 0.388919 0.442880 0.136354
H222  H     H_    0.678468 0.419983 0.535589 0.099513
C198  C     C_3   0.672174 0.399954 0.440724 -0.284283
H223  H     H_    0.690755 0.366671 0.391642 0.206983
H224  H     H_    0.620806 0.397003 0.483575 0.212384
C199  C     C_3   0.690909 0.461752 0.402805 -1.021786
H225  H     H_    0.672531 0.495984 0.450779 0.270725
H226  H     H_    0.671423 0.469949 0.370733 0.271910
H227  H     H_    0.742163 0.465415 0.357944 0.275794
O38   O     O_3   0.170037 0.761479 0.689640 -0.685717
C200  C     C_3   0.122022 0.728058 0.758042 0.188444
H228  H     H_    0.136893 0.718155 0.795241 0.116976
H229  H     H_    0.115331 0.684217 0.740268 0.117359
C201  C     C_3   0.061014 0.763119 0.811593 -0.303199
H230  H     H_    0.069066 0.805515 0.830570 0.198947
H231  H     H_    0.044067 0.773605 0.776898 0.199785
C202  C     C_3   0.010974 0.727759 0.887202 -1.055090
H232  H     H_    0.001859 0.685558 0.869216 0.264060
H233  H     H_    0.967412 0.753895 0.924653 0.260964
H234  H     H_    0.025832 0.717708 0.924398 0.264888
O39   O     O_3   0.339989 0.336541 0.447881 -0.682539
C203  C     C_3   0.337946 0.399211 0.452630 0.193873
H235  H     H_    0.290184 0.413845 0.503899 0.123615
H236  H     H_    0.352490 0.419710 0.394679 0.089157
C204  C     C_3   0.382060 0.420747 0.468316 -0.258444
H237  H     H_    0.365034 0.405197 0.529173 0.201310
H238  H     H_    0.428985 0.402027 0.421401 0.213538
C205  C     C_3   0.386505 0.488275 0.466123 -1.029467
H239  H     H_    0.402061 0.505628 0.406545 0.270394
H240  H     H_    0.420592 0.501946 0.474859 0.275917
H241  H     H_    0.340888 0.507833 0.515818 0.272414
O40   O     O_3   0.829619 0.762638 0.311274 -0.682710
C206  C     C_3   0.880490 0.734510 0.239415 0.189150
H242  H     H_    0.866209 0.724445 0.201594 0.120417
H243  H     H_    0.891766 0.691006 0.252365 0.113851
C207  C     C_3   0.937760 0.775140 0.189557 -0.312298
H244  H     H_    0.924851 0.818056 0.177764 0.200972
H245  H     H_    0.955117 0.784143 0.224082 0.199735
C208  C     C_3   0.989939 0.746775 0.108483 -1.044496
H246  H     H_    0.003835 0.704031 0.119068 0.260824
H247  H     H_    0.030756 0.776801 0.074219 0.260409
H248  H     H_    0.974679 0.738794 0.071341 0.264910

loop_
_geom_bond_atom_site_label_1
_geom_bond_atom_site_label_2
_ccdc_geom_bond_type
C204  C205  S    
C119  H33   S    
C57   N17   A    
N25   Ni6   S    
C143  C144  S    
O30   C179  S    
C30   C45   T    
C156  H122  S    
C108  O19   S    
C182  H185  S    
C141  H87   S    
C64   N24   A    
C3    N3    A    
C14   C21   T    
C7    C79   A    
C1    N1    A    
C172  H161  S    
C95   C99   A    
C146  C147  S    
C119  C120  S    
C133  H68   S    
C207  C208  S    
C91   O27   S    
C207  H244  S    
C52   C84   A    
N4    Ni1   S    
C38   C45   S    
C16   C104  S    
C54   O6    S    
C189  H202  S    
C89   C106  A    
C17   C76   S    
C131  H63   S    
C66   H10   S    
C153  H115  S    
C93   C110  A    
C97   C105  A    
C70   H14   S    
C133  C134  S    
C114  H20   S    
C176  H171  S    
C132  H64   S    
N16   Ni4   S    
C28   C83   S    
C129  H58   S    
N5    Ni3   S    
N29   Ni8   S    
N15   Ni3   S    
C160  H133  S    
C37   O34   S    
N30   Ni7   S    
C181  H183  S    
C116  H25   S    
C11   C20   T    
C131  C132  S    
C100  C108  A    
C121  H37   S    
C152  H113  S    
C151  C152  S    
C115  H22   S    
N14   Ni3   S    
C157  H125  S    
C124  H44   S    
C161  C162  S    
C53   O5    S    
C129  C130  S    
N14   N23   A    
C186  C187  S    
C169  H154  S    
O31   C181  S    
C128  H54   S    
C192  H210  S    
C10   C17   T    
C165  H144  S    
N22   Ni8   S    
O22   C160  S    
C153  H117  S    
C67   C74   A    
C158  C159  S    
C190  H205  S    
C26   C81   S    
C31   C48   T    
C208  H247  S    
C94   O30   S    
C170  H155  S    
C32   C47   T    
C169  C170  S    
C145  H97   S    
C5    C77   A    
C51   C83   A    
C64   C85   A    
C156  H124  S    
O38   C200  S    
C54   C86   A    
C182  H187  S    
C34   O37   S    
C122  H39   S    
C112  O23   S    
C62   N22   A    
C89   C101  A    
C70   C79   A    
C90   C105  A    
C91   C103  A    
C203  H235  S    
C157  C158  S    
C67   H11   S    
N12   N17   A    
N1    N28   A    
C166  H146  S    
C50   N10   A    
C144  H96   S    
O26   C171  S    
C94   C109  A    
C33   C38   D    
C98   C106  A    
N5    N32   A    
C35   C40   D    
C68   C73   A    
C142  H90   S    
C174  H165  S    
C2    H2    S    
C155  C156  S    
C117  C118  S    
C189  C190  S    
N23   Ni7   S    
C159  H129  S    
C20   C73   S    
C164  C165  S    
C184  H190  S    
C139  C140  S    
C14   C102  S    
C171  H158  S    
C92   C104  A    
C24   C77   S    
C194  C195  S    
O4    C119  S    
C132  H66   S    
C162  H136  S    
C53   C85   A    
C60   N20   A    
C198  H224  S    
C117  H27   S    
C61   N21   A    
C59   N19   A    
C206  C207  S    
C185  H194  S    
C178  H175  S    
C49   N9    A    
C118  H31   S    
N9    N20   A    
C59   C82   A    
C165  H143  S    
C4    N4    A    
C180  H180  S    
C5    N5    A    
C124  H46   S    
O11   C133  S    
C126  H49   S    
C33   C42   S    
C67   N27   A    
C27   C84   S    
C139  H82   S    
C128  H56   S    
C134  H69   S    
C6    C78   A    
C185  C186  S    
C113  H17   S    
N12   Ni2   S    
C149  H106  S    
C12   C19   T    
C195  C196  S    
C11   C99   S    
O12   C135  S    
C118  H30   S    
O24   C166  S    
C90   C102  A    
C65   N25   A    
N19   Ni5   S    
C52   N12   A    
C27   C44   T    
C199  H226  S    
C187  H197  S    
C168  H152  S    
C69   N29   A    
N26   Ni5   S    
C3    C75   A    
O9    C129  S    
C208  H246  S    
N2    Ni2   S    
C147  H102  S    
C202  H234  S    
C130  H59   S    
C195  H216  S    
C203  C204  S    
O16   C143  S    
C177  H174  S    
C147  H103  S    
C96   C111  A    
C197  H222  S    
C200  H229  S    
C55   N15   A    
C115  C116  S    
C191  H207  S    
C174  H167  S    
C104  C112  A    
C155  H120  S    
N3    Ni2   S    
O7    C125  S    
C159  H131  S    
C152  H114  S    
C151  H112  S    
C184  H192  S    
C144  H94   S    
C177  C178  S    
C60   C81   A    
C125  H48   S    
C194  H214  S    
C161  H135  S    
O6    C123  S    
N1    Ni1   S    
C30   C85   S    
C196  H219  S    
C175  H168  S    
C137  H78   S    
C111  O24   S    
C15   C24   T    
O36   C194  S    
C178  H177  S    
C123  H43   S    
C208  H248  S    
C202  H232  S    
C93   C97   A    
C110  O21   S    
C166  C167  S    
C125  C126  S    
C168  H151  S    
C173  H163  S    
C180  H182  S    
C204  H238  S    
C150  H110  S    
C95   O31   S    
N3    N26   A    
C52   O4    S    
C137  C138  S    
C134  H71   S    
C16   C23   T    
C123  C124  S    
C141  H88   S    
C149  C150  S    
C15   C103  S    
C36   O39   S    
C140  H85   S    
C135  H72   S    
C167  H148  S    
C124  H45   S    
C58   C83   A    
C109  O22   S    
C187  H199  S    
C96   C100  A    
C162  H138  S    
C207  H245  S    
C1    H1    S    
C55   C87   A    
C193  H211  S    
C154  C155  S    
C205  H239  S    
N6    Ni4   S    
C9    C18   T    
C141  C142  S    
C189  H203  S    
O33   C185  S    
C130  H61   S    
C153  H116  S    
C183  H188  S    
O37   C197  S    
C13   C101  S    
C113  C114  S    
O39   C203  S    
N13   N24   A    
C201  H230  S    
C51   N11   A    
N11   N18   A    
C176  H170  S    
C8    N8    A    
C34   C37   D    
N20   Ni6   S    
N21   Ni7   S    
C191  C192  S    
C93   O29   S    
C160  H132  S    
C55   O7    S    
N17   Ni5   S    
C116  H24   S    
C63   O15   S    
C18   C75   S    
C65   C76   A    
C121  H38   S    
C56   O8    S    
C22   C79   S    
C126  H51   S    
C95   C112  A    
C157  H126  S    
C188  C189  S    
C179  H178  S    
C94   C98   A    
C35   O40   S    
C101  C109  A    
C90   O26   S    
C107  O20   S    
C103  C111  A    
C143  H92   S    
O17   C145  S    
C49   C81   A    
C186  H196  S    
C156  H123  S    
C39   O36   S    
C121  C122  S    
C59   O11   S    
O23   C163  S    
C65   H9    S    
C158  H128  S    
C146  H100  S    
C119  H32   S    
C69   H13   S    
C150  H108  S    
C138  H79   S    
C71   H15   S    
C34   C41   S    
C145  H98   S    
C40   O35   S    
N24   Ni8   S    
O27   C173  S    
C182  H186  S    
N11   Ni1   S    
C50   O2    S    
C203  H236  S    
O20   C154  S    
C172  H162  S    
C66   N26   A    
C133  H67   S    
C114  H19   S    
C36   C39   D    
C70   N30   A    
C145  C146  S    
C60   O12   S    
C120  H36   S    
O35   C191  S    
C142  H89   S    
C7    H7    S    
C136  H76   S    
C181  H184  S    
C159  H130  S    
C131  H62   S    
C57   C84   A    
C164  H142  S    
C195  H217  S    
C63   N23   A    
C171  H159  S    
C201  C202  S    
C194  H215  S    
N4    N25   A    
C176  H172  S    
C132  H65   S    
C63   C86   A    
C25   C82   S    
C102  C110  A    
C129  H57   S    
C167  H149  S    
C7    N7    A    
C160  C161  S    
C89   O25   S    
C50   C82   A    
C33   O38   S    
O25   C169  S    
C116  H26   S    
C206  H243  S    
C9    C97   S    
C31   C88   S    
C91   C108  A    
C4    H4    S    
C19   C74   S    
C146  H99   S    
C171  C172  S    
C25   C42   T    
C115  H23   S    
C199  H227  S    
C92   O28   S    
C99   C107  A    
C62   C87   A    
C28   C43   T    
C29   C46   T    
C126  H50   S    
C1    C73   A    
C198  C199  S    
C167  C168  S    
C120  H35   S    
C169  H153  S    
C128  H55   S    
C3    H3    S    
C192  C193  S    
C49   O1    S    
O3    C117  S    
C136  H74   S    
C113  H18   S    
N28   Ni5   S    
C66   C75   A    
C21   C80   S    
C2    N2    A    
C163  H140  S    
C13   C22   T    
N10   Ni1   S    
C53   N13   A    
C23   C78   S    
C118  H29   S    
C106  O17   S    
C12   C100  S    
C165  H145  S    
C56   C88   A    
C105  O18   S    
O19   C151  S    
C56   N16   A    
C190  H206  S    
O34   C188  S    
C187  H198  S    
O2    C115  S    
C138  H81   S    
C170  H156  S    
C36   C43   S    
C199  H225  S    
C37   C46   S    
C172  H160  S    
C39   C48   S    
N8    Ni3   S    
C40   C47   S    
C202  H233  S    
O1    C113  S    
C164  H141  S    
C154  H118  S    
C68   H12   S    
O29   C177  S    
C125  H47   S    
C204  H237  S    
C148  H104  S    
C163  H139  S    
C197  C198  S    
C200  H228  S    
C72   H16   S    
C148  C149  S    
C191  H208  S    
O10   C131  S    
C142  H91   S    
C174  H166  S    
N9    Ni2   S    
C155  H121  S    
N27   Ni6   S    
C206  H242  S    
N31   Ni8   S    
C10   C98   S    
C198  H223  S    
N32   Ni7   S    
C184  H191  S    
C188  H201  S    
C96   O32   S    
O28   C175  S    
N15   N22   A    
N2    N27   A    
O13   C137  S    
C139  H83   S    
C2    C74   A    
C38   O33   S    
C144  H95   S    
N6    N31   A    
N18   Ni6   S    
C178  H176  S    
N7    N30   A    
C120  H34   S    
C149  H107  S    
C173  H164  S    
C166  H147  S    
C150  H109  S    
C180  H181  S    
C175  C176  S    
C192  H209  S    
C136  H75   S    
C193  H213  S    
O15   C141  S    
C32   C87   S    
C163  C164  S    
C5    H5    S    
C64   O16   S    
C62   O14   S    
C58   O10   S    
C135  H73   S    
C188  H200  S    
C72   C77   A    
C51   O3    S    
C61   C88   A    
C170  H157  S    
C173  C174  S    
C92   C107  A    
C134  H70   S    
C190  H204  S    
N7    Ni4   S    
N10   N19   A    
O8    C127  S    
C162  H137  S    
C193  H212  S    
C35   C44   S    
C154  H119  S    
C61   O13   S    
C29   C86   S    
C205  H240  S    
N13   Ni4   S    
N8    N29   A    
C147  H101  S    
C127  H52   S    
C127  H53   S    
C130  H60   S    
C140  H86   S    
C135  C136  S    
C183  H189  S    
O18   C148  S    
C8    H8    S    
C201  H231  S    
C177  H173  S    
C196  H218  S    
C122  H41   S    
C197  H221  S    
C200  C201  S    
N16   N21   A    
C54   N14   A    
C175  H169  S    
C68   N28   A    
C205  H241  S    
C57   O9    S    
C58   N18   A    
C127  C128  S    
C71   N31   A    
C72   N32   A    
C152  C153  S    
C151  H111  S    
C183  C184  S    
C138  H80   S    
C6    N6    A    
O32   C183  S    
C168  H150  S    
C148  H105  S    
C179  H179  S    
C161  H134  S    
C114  H21   S    
C185  H193  S    
C143  H93   S    
C186  H195  S    
C196  H220  S    
C4    C76   A    
C181  C182  S    
C137  H77   S    
O5    C121  S    
C123  H42   S    
C8    C80   A    
O21   C157  S    
O40   C206  S    
C69   C80   A    
C158  H127  S    
C140  H84   S    
C122  H40   S    
C117  H28   S    
C6    H6    S    
C71   C78   A    
C26   C41   T    
C179  C180  S    
O14   C139  S    
