data_mof_unit_31526.cif
_audit_creation_date              2012-10-26T19:35:39-0400
_audit_creation_method            fapswitch 2.2
_symmetry_space_group_name_H-M    P1
_symmetry_Int_Tables_number       1
_space_group_crystal_system       triclinic
_cell_length_a                    15.904417
_cell_length_b                    10.79397
_cell_length_c                    9.592915
_cell_angle_alpha                 89.170973
_cell_angle_beta                  89.497703
_cell_angle_gamma                 90.786412
_cell_volume                      1646.43929783

loop_
_atom_site_label
_atom_site_type_symbol
_atom_type_description
_atom_site_fract_x
_atom_site_fract_y
_atom_site_fract_z
_atom_type_partial_charge
C1    C     C_R   0.504209 0.262726 0.500831 0.528400
C2    C     C_R   0.515875 0.129827 0.504336 0.005663
C3    C     C_R   0.558104 0.065781 0.396266 0.224568
C4    C     C_R   0.340084 0.499826 0.500521 0.543396
C5    C     C_R   0.553115 0.936175 0.394831 -0.051921
C6    C     C_R   0.509698 0.870868 0.501168 -0.032739
C7    C     C_R   0.482967 0.934813 0.618079 -0.002099
C8    C     C_3   0.400888 0.928125 0.694677 -0.252932
C9    C     C_3   0.403774 0.068818 0.696456 -0.256410
C10   C     C_R   0.561977 0.560652 0.071129 0.133223
C11   C     C_R   0.441983 0.434315 0.077896 0.072018
C12   C     C_3   0.083943 0.499472 0.503061 0.001386
C13   C     C_R   0.441249 0.433466 0.930440 0.323636
C14   C     C_R   0.563050 0.558592 0.923898 0.185305
C15   C     C_3   0.586891 0.692281 0.911128 0.101053
C16   C     C_R   0.501556 0.737542 0.499487 0.552909
C17   C     C_3   0.582068 0.697060 0.069460 0.105892
C18   C     C_R   0.659915 0.500241 0.499504 0.543894
C19   C     C_3   0.970856 0.386766 0.530039 0.196376
C20   C     C_3   0.028225 0.421894 0.405690 0.224596
C21   C     C_1   0.250657 0.499719 0.501775 0.022218
C22   C     C_1   0.749329 0.500356 0.498482 0.041560
C23   C     C_3   0.972130 0.577506 0.596148 0.199112
C24   C     C_3   0.026721 0.463019 0.630395 -0.162084
C25   C     C_3   0.916034 0.500327 0.499017 0.078782
C26   C     C_3   0.029510 0.613499 0.472093 0.222463
C27   C     C_3   0.974260 0.535832 0.375020 0.203887
C28   C     C_1   0.175325 0.499619 0.502550 0.046805
C29   C     C_1   0.824651 0.500392 0.498375 0.096017
C30   C     C_R   0.485574 0.061915 0.619381 -0.003585
Cu1   Cu    Cu3+1 0.500000 0.499980 0.640670 0.998972
Cu2   Cu    Cu3+1 0.500000 0.500020 0.359330 0.998275
H1    H     H_    0.406958 0.884975 0.799974 0.150308
H2    H     H_    0.462285 0.741588 0.071160 0.324951
H3    H     H_    0.988639 0.215579 0.574353 0.349539
H4    H     H_    0.998427 0.588984 0.187348 0.357930
H5    H     H_    0.011066 0.784554 0.427901 0.359206
H6    H     H_    0.991788 0.694516 0.740908 0.347610
H7    H     H_    0.047935 0.433128 0.735401 0.152452
H8    H     H_    0.624102 0.205344 0.325126 0.344922
H9    H     H_    0.583562 0.887162 0.311333 0.202345
H10   H     H_    0.349115 0.889807 0.630327 0.155611
H11   H     H_    0.540249 0.750317 0.855575 0.146242
H12   H     H_    0.642494 0.720159 0.121040 0.180833
H13   H     H_    0.007855 0.304747 0.261320 0.358962
H14   H     H_    0.353541 0.112614 0.633497 0.146890
H15   H     H_    0.411664 0.106279 0.802927 0.177482
H16   H     H_    0.394432 0.382319 0.136143 0.164612
H17   H     H_    0.395454 0.340004 0.779238 0.370832
H18   H     H_    0.680190 0.797552 0.855458 0.342274
N1    N     N_R   0.500530 0.500930 0.147930 -0.275429
N2    N     N_R   0.500530 0.500890 0.852020 -0.272441
O1    O     O_R   0.500000 0.319640 0.618810 -0.528028
O2    O     O_3   0.377039 0.366497 0.871519 -0.706616
O3    O     O_3   0.669288 0.706871 0.860277 -0.664259
O4    O     O_3   0.515039 0.770247 0.116006 -0.702212
O5    O     O_3   0.938766 0.267698 0.557934 -0.657727
O6    O     O_3   0.946584 0.573347 0.243315 -0.663193
O7    O     O_3   0.061175 0.732568 0.442782 -0.667970
O8    O     O_3   0.941366 0.660512 0.694109 -0.642530
O9    O     O_3   0.603086 0.124799 0.290545 -0.660990
O10   O     O_R   0.500010 0.319680 0.381230 -0.493237
O11   O     O_R   0.379070 0.499970 0.618770 -0.498566
O12   O     O_R   0.379080 0.500010 0.381190 -0.499173
O13   O     O_R   0.499990 0.680320 0.618770 -0.509837
O14   O     O_R   0.500000 0.680360 0.381190 -0.453571
O15   O     O_R   0.620920 0.499990 0.618810 -0.454396
O16   O     O_R   0.620930 0.500030 0.381230 -0.507074
O17   O     O_3   0.058541 0.339603 0.306568 -0.664386

loop_
_geom_bond_atom_site_label_1
_geom_bond_atom_site_label_2
_ccdc_geom_bond_type
C23   C24   S    
Cu2   N1    S    
H2    O4    S    
C6    C7    A    
C20   C27   S    
C12   C24   S    
C25   C27   S    
C13   N2    A    
C26   O7    S    
C4    O12   A    
C19   C20   S    
C4    O11   A    
H3    O5    S    
Cu1   N2    S    
Cu2   O16   S    
C1    O10   A    
C12   C20   S    
C23   C25   S    
C2    C3    A    
C26   C27   S    
C17   H12   S    
Cu2   O10   S    
C9    H14   S    
C7    C30   A    
C18   C22   S    
C19   O5    S    
Cu1   O15   S    
C4    C21   S    
C11   C13   A    
C17   O4    S    
Cu2   O12   S    
C11   H16   S    
H5    O7    S    
C9    C30   S    
C12   C28   S    
H6    O8    S    
C10   N1    A    
C1    C2    S    
C22   C29   T    
C21   C28   T    
C8    H10   S    
C9    H15   S    
H4    O6    S    
C8    H1    S    
C3    O9    S    
C23   O8    S    
C25   C29   S    
C5    C6    A    
C19   C25   S    
C20   O17   S    
Cu1   O1    S    
C11   N1    A    
C2    C30   A    
C10   C17   S    
C18   O16   A    
H17   O2    S    
Cu1   O11   S    
C7    C8    S    
C24   H7    S    
C16   O14   A    
C15   H11   S    
Cu2   O14   S    
C13   O2    S    
C10   C14   A    
C23   C26   S    
Cu1   O13   S    
C1    O1    A    
C14   C15   S    
C19   C24   S    
C5    H9    S    
C16   O13   A    
C18   O15   A    
C15   C17   S    
H13   O17   S    
C6    C16   S    
Cu1   Cu2   S    
C14   N2    A    
H8    O9    S    
H18   O3    S    
C12   C26   S    
C8    C9    S    
C3    C5    A    
C27   O6    S    
C15   O3    S    
