data_mof_unit_38443.cif
_audit_creation_date              2013-03-05T16:33:11-0500
_audit_creation_method            fapswitch 2.2
_symmetry_space_group_name_H-M    P1
_symmetry_Int_Tables_number       1
_space_group_crystal_system       triclinic
_cell_length_a                    27.728949
_cell_length_b                    10.809499
_cell_length_c                    9.545749
_cell_angle_alpha                 89.884337
_cell_angle_beta                  89.934764
_cell_angle_gamma                 90.573827
_cell_volume                      2861.05382181

loop_
_atom_site_label
_atom_site_type_symbol
_atom_site_description
_atom_site_fract_x
_atom_site_fract_y
_atom_site_fract_z
_atom_type_partial_charge
O1    O     O_R   0.500000 0.319640 0.618810 -0.564044
O2    O     O_R   0.500010 0.319680 0.381230 -0.569488
C1    C     C_R   0.501583 0.262396 0.500260 0.851856
O3    O     O_R   0.430260 0.500000 0.618780 -0.563485
O4    O     O_R   0.430270 0.500040 0.381190 -0.564248
C2    C     C_R   0.407542 0.500761 0.500049 0.905241
Cu1   Cu    Cu3+1 0.500000 0.499980 0.640670 1.032634
Cu2   Cu    Cu3+1 0.500000 0.500020 0.359330 1.000620
O5    O     O_R   0.499990 0.680320 0.618770 -0.567939
O6    O     O_R   0.500000 0.680360 0.381190 -0.584598
O7    O     O_R   0.569730 0.499960 0.618810 -0.564576
O8    O     O_R   0.569740 0.500000 0.381220 -0.592631
C3    C     C_R   0.501082 0.737706 0.499999 0.814265
C4    C     C_R   0.592278 0.497985 0.499840 0.856407
C5    C     C_R   0.178507 0.444760 0.391362 0.571879
O9    O     O_2   0.205034 0.393516 0.288704 -0.469050
N1    N     N_R   0.201638 0.510840 0.492984 -0.457192
C6    C     C_R   0.177203 0.576327 0.591602 0.643844
C7    C     C_R   0.279944 0.597746 0.425763 -0.088767
C8    C     C_R   0.330136 0.595131 0.424789 0.186734
C9    C     C_R   0.327935 0.412073 0.575204 0.156195
C10   C     C_R   0.277055 0.413487 0.572820 -0.040483
C11   C     C_R   0.253361 0.508199 0.498865 0.183078
C12   C     C_R   0.101543 0.495916 0.498092 -0.049936
C13   C     C_R   0.127704 0.432658 0.392578 -0.089946
C14   C     C_R   0.101988 0.360864 0.292316 -0.012483
C15   C     C_R   0.126384 0.568182 0.599887 -0.086185
C16   C     C_R   0.354557 0.502627 0.500084 -0.163143
C17   C     C_R   0.644799 0.492195 0.499076 -0.145148
C18   C     C_R   0.973910 0.430362 0.389914 0.061949
C19   C     C_R   0.974016 0.517540 0.627327 -0.056647
C20   C     C_R   0.948494 0.474072 0.509057 0.078784
C21   C     C_R   0.947228 0.392831 0.271267 -0.194299
C22   C     C_R   0.897274 0.395296 0.271156 -0.068728
C23   C     C_R   0.871998 0.436021 0.388731 -0.016261
C24   C     C_R   0.897385 0.474015 0.509610 -0.084365
C25   C     C_R   0.871642 0.511850 0.630058 -0.116484
C26   C     C_R   0.820751 0.520490 0.619941 0.629118
N2    N     N_R   0.797288 0.482965 0.501290 -0.467622
C27   C     C_R   0.821603 0.439786 0.387627 0.612259
C28   C     C_R   0.719151 0.390245 0.560887 -0.140516
C29   C     C_R   0.668870 0.392208 0.561306 0.218316
C30   C     C_R   0.671266 0.586838 0.433109 -0.269568
C31   C     C_R   0.721579 0.584546 0.432662 0.367191
C32   C     C_R   0.745632 0.486200 0.497723 0.219103
O10   O     O_2   0.796939 0.401480 0.273546 -0.455899
C33   C     C_R   0.025094 0.426185 0.392948 0.020107
C34   C     C_R   0.050338 0.487187 0.501671 0.095369
C35   C     C_R   0.024455 0.540712 0.613409 0.065116
C36   C     C_R   0.051702 0.361857 0.291438 -0.219012
H1    H     H_    0.737857 0.313593 0.608861 0.190890
H2    H     H_    0.878490 0.365580 0.177492 0.213939
H3    H     H_    0.964032 0.364969 0.174647 0.179890
H4    H     H_    0.033915 0.304198 0.214666 0.175628
O11   O     O_2   0.202531 0.648752 0.680344 -0.469165
C37   C     C_R   0.099310 0.631770 0.703070 -0.010802
H5    H     H_    0.261273 0.669378 0.368517 0.191627
C38   C     C_R   0.948428 0.532780 0.755765 -0.088787
C39   C     C_R   0.897427 0.534225 0.756216 0.258545
O12   O     O_2   0.794570 0.568569 0.725150 -0.433810
C40   C     C_R   0.049211 0.620868 0.704461 -0.198833
H6    H     H_    0.652777 0.663165 0.383585 0.175258
H7    H     H_    0.029579 0.677164 0.778178 0.169710
C41   C     C_R   0.505999 0.063690 0.627305 0.103878
C42   C     C_R   0.507726 0.129659 0.501423 -0.067587
C43   C     C_R   0.517150 0.065188 0.376727 -0.119250
H8    H     H_    0.522537 0.113730 0.278607 0.189079
C44   C     C_R   0.516855 0.936091 0.376659 -0.137329
H9    H     H_    0.522560 0.888065 0.278837 0.166844
C45   C     C_R   0.506479 0.870865 0.500800 -0.080045
C46   C     C_R   0.504177 0.936466 0.626602 0.046167
C47   C     C_3   0.469360 0.930379 0.748018 -0.204669
C48   C     C_3   0.472282 0.073137 0.749881 -0.314969
H10   H     H_    0.438441 0.120106 0.720236 0.214777
C49   C     C_R   0.537446 0.450968 0.073671 0.218513
N3    N     N_R   0.500300 0.500930 0.147930 -0.217224
C50   C     C_R   0.461122 0.541139 0.074251 -0.037382
H11   H     H_    0.430160 0.576552 0.129193 0.200577
C51   C     C_R   0.461061 0.540706 0.925676 0.007671
H12   H     H_    0.429978 0.575322 0.870620 0.197995
N4    N     N_R   0.500310 0.500890 0.852020 -0.197834
C52   C     C_R   0.537575 0.452136 0.926215 0.277299
C53   C     C_3   0.588938 0.494247 0.920183 -0.464463
C54   C     C_3   0.589211 0.491411 0.079217 -0.286181
H13   H     H_    0.612471 0.424419 0.870294 0.243825
H14   H     H_    0.592965 0.589321 0.876689 0.238524
H15   H     H_    0.594280 0.584293 0.127357 0.168994
Br1   Br    Br    0.360907 0.287346 0.682643 -0.404938
C55   C     C_2   0.121131 0.705713 0.817229 0.952418
O13   O     O_2   0.112093 0.815842 0.827084 -0.562624
O14   O     O_R   0.149999 0.647922 0.917441 -0.669371
H16   H     H_    0.162136 0.707526 0.991637 0.353374
C56   C     C_2   0.974246 0.525811 0.892165 0.852819
O15   O     O_2   0.002133 0.440971 0.914040 -0.567206
O16   O     O_R   0.967848 0.617583 0.993373 -0.707365
H17   H     H_    0.987904 0.602881 0.080484 0.341866
Br2   Br    Br    0.864528 0.549375 0.935071 -0.316875
Br3   Br    Br    0.756509 0.717482 0.344979 -0.348634
C57   C     C_2   0.419801 0.882236 0.705373 0.884222
O17   O     O_2   0.400774 0.796186 0.768712 -0.556005
O18   O     O_R   0.395742 0.936808 0.592653 -0.707357
H18   H     H_    0.362586 0.899183 0.576597 0.381874
C58   C     C_2   0.248348 0.315519 0.644684 0.949186
O19   O     O_2   0.257601 0.206514 0.625320 -0.498178
O20   O     O_R   0.210237 0.347682 0.732912 -0.721161
H19   H     H_    0.193121 0.272802 0.774365 0.351279
C59   C     C_2   0.489719 0.866271 0.876708 0.887952
O21   O     O_2   0.528679 0.814259 0.871870 -0.583338
O22   O     O_R   0.463247 0.866701 0.001419 -0.695084
H20   H     H_    0.479375 0.817777 0.078582 0.328347
C60   C     C_2   0.495223 0.131461 0.877762 0.923567
O23   O     O_2   0.538680 0.151948 0.882346 -0.547027
O24   O     O_R   0.465872 0.162789 0.991037 -0.702283
H21   H     H_    0.484612 0.203528 0.069796 0.327927
C61   C     C_2   0.622302 0.394418 0.138080 0.949407
O25   O     O_2   0.665934 0.410999 0.132410 -0.520217
O26   O     O_R   0.603390 0.287122 0.200348 -0.743764
H22   H     H_    0.629417 0.230704 0.237598 0.351835
C62   C     C_2   0.125163 0.278378 0.189004 0.957295
O27   O     O_2   0.152165 0.196662 0.228572 -0.515073
O28   O     O_R   0.113764 0.289825 0.046973 -0.706266
H23   H     H_    0.131015 0.226990 0.986760 0.351585
Br4   Br    Br    0.634688 0.252708 0.638943 -0.446126
Br5   Br    Br    0.363569 0.723732 0.323536 -0.434683

loop_
_geom_bond_atom_site_label_1
_geom_bond_atom_site_label_2
_geom_bond_distance
_ccdc_geom_bond_type
C43   C44   1.395420 A    
O18   H18   1.013532 S    
C17   C29   1.406862 A    
O16   H17   1.014048 S    
C28   C29   1.394617 A    
C7    C8    1.392382 A    
C12   C15   1.422198 A    
C49   N3    1.366047 A    
N4    C52   1.363152 A    
Cu1   Cu2   2.685599 S    
C50   H11   1.079382 S    
C7    H5    1.083118 S    
Cu1   O7    1.944533 S    
C56   O15   1.223273 D    
C20   C24   1.417191 A    
C19   C38   1.426515 A    
C24   C25   1.415859 A    
C38   C56   1.488730 S    
C60   O23   1.223864 D    
C14   C36   1.394559 A    
C26   N2    1.367074 A    
Cu2   O6    1.960939 S    
O7    C4    1.296078 A    
C49   C54   1.497335 S    
C5    C13   1.413480 A    
C3    C45   1.445686 S    
C5    O9    1.347936 S    
Cu2   N3    2.017984 S    
N1    C6    1.362804 A    
C22   C23   1.396797 A    
C48   H10   1.108141 S    
C41   C46   1.375682 A    
C40   H7    1.081359 S    
O5    C3    1.291443 A    
C31   Br3   1.915483 S    
C2    C16   1.469542 S    
C33   C34   1.413171 A    
C44   H9    1.081545 S    
C61   O26   1.399221 S    
C41   C48   1.501187 S    
C54   H15   1.112717 S    
C45   C46   1.397559 A    
C55   O14   1.398372 S    
N2    C32   1.433590 S    
C62   O28   1.398019 S    
C43   H8    1.082147 S    
C9    Br1   1.930469 S    
C56   O16   1.398545 S    
C9    C10   1.411291 A    
C17   C30   1.401093 A    
C59   O22   1.397906 S    
C1    C42   1.446617 S    
C19   C35   1.424410 A    
O3    Cu1   1.945315 S    
C10   C11   1.410604 A    
C29   Br4   1.920074 S    
C48   C60   1.512989 S    
C33   C36   1.406488 A    
N3    C50   1.368830 A    
C50   C51   1.418279 A    
C21   H3    1.077692 S    
C35   C40   1.403533 A    
C12   C34   1.422444 A    
C18   C33   1.420770 A    
C12   C13   1.421030 A    
C58   O20   1.397669 S    
N2    C27   1.362479 A    
C51   N4    1.368538 A    
C15   C37   1.420413 A    
C8    C16   1.409530 A    
C38   C39   1.414440 A    
C10   C58   1.484789 S    
O1    C1    1.291780 A    
C23   C24   1.411966 A    
C7    C11   1.396080 A    
C30   C31   1.395585 A    
C25   C26   1.418562 A    
C53   C54   1.518377 S    
N1    C11   1.435943 S    
C47   C59   1.521172 S    
Cu2   O8    1.945309 S    
C21   C22   1.385716 A    
C60   O24   1.396859 S    
C36   H4    1.079483 S    
C14   C62   1.481257 S    
O28   H23   1.013903 S    
C25   C39   1.421143 A    
C6    O11   1.347869 S    
C26   O12   1.346748 S    
O3    C2    1.297356 A    
C34   C35   1.413008 A    
Cu1   N4    2.017566 S    
C9    C16   1.413784 A    
O8    C4    1.294204 A    
C42   C43   1.406095 A    
C54   C61   1.508304 S    
C39   Br2   1.942805 S    
C27   O10   1.350155 S    
C59   O21   1.223723 D    
O14   H16   1.013931 S    
C31   C32   1.404684 A    
O24   H21   1.013317 S    
Cu1   O5    1.960144 S    
C37   C55   1.479118 S    
C18   C21   1.411552 A    
C53   H13   1.110382 S    
O1    Cu1   1.960940 S    
C19   C20   1.411917 A    
O2    Cu2   1.960147 S    
C6    C15   1.413162 A    
C47   C48   1.544596 S    
O6    C3    1.293800 A    
O4    Cu2   1.944536 S    
C62   O27   1.223129 D    
C49   C52   1.407614 A    
C5    N1    1.362964 A    
O20   H19   1.013697 S    
C22   H2    1.082925 S    
C57   O17   1.223231 D    
C41   C42   1.396584 A    
O2    C1    1.293890 A    
C13   C14   1.421341 A    
C46   C47   1.508505 S    
O26   H22   1.013764 S    
C18   C20   1.421419 A    
O4    C2    1.297332 A    
C28   H1    1.083010 S    
C23   C27   1.398443 A    
C8    Br5   1.921652 S    
C51   H12   1.079729 S    
C53   H14   1.112148 S    
C44   C45   1.405687 A    
C52   C53   1.491874 S    
C58   O19   1.222775 D    
C28   C32   1.399922 A    
C37   C40   1.393051 A    
C4    C17   1.458350 S    
C55   O13   1.222779 D    
O22   H20   1.012995 S    
C57   O18   1.399195 S    
C61   O25   1.222402 D    
C30   H6    1.083734 S    
C47   C57   1.520796 S    
