data_mof_unit_62194.cif
_audit_creation_date              2012-12-10T20:46:32-0500
_audit_creation_method            fapswitch 2.2
_symmetry_space_group_name_H-M    P1
_symmetry_Int_Tables_number       1
_space_group_crystal_system       triclinic
_cell_length_a                    15.517628
_cell_length_b                    19.209977
_cell_length_c                    19.206616
_cell_angle_alpha                 94.467169
_cell_angle_beta                  101.751066
_cell_angle_gamma                 97.720259
_cell_volume                      5521.77931071

loop_
_atom_site_label
_atom_site_type_symbol
_atom_type_description
_atom_site_fract_x
_atom_site_fract_y
_atom_site_fract_z
_atom_type_partial_charge
C1    C     C_R   0.510381 0.312056 0.492752 0.557323
C2    C     C_R   0.883489 0.503185 0.521258 -0.125527
C3    C     C_R   0.879914 0.622522 0.572471 -0.008160
C4    C     C_R   0.490852 0.688230 0.505822 0.502825
C5    C     C_R   0.160245 0.449350 0.454174 0.022410
C6    C     C_R   0.486214 0.764146 0.505770 0.029956
C7    C     C_R   0.547702 0.807774 0.477723 -0.153039
C8    C     C_R   0.542663 0.879414 0.476054 -0.089038
C9    C     C_R   0.475523 0.908867 0.502489 0.226374
C10   C     C_R   0.413953 0.865130 0.529972 -0.111822
C11   C     C_R   0.419377 0.793388 0.532083 -0.148166
C12   C     C_R   0.031928 0.357111 0.430013 -0.136911
C13   C     C_R   0.442258 0.116179 0.479060 -0.101464
C14   C     C_R   0.438656 0.188160 0.479128 -0.199557
C15   C     C_R   0.524876 0.091551 0.487497 0.173914
C16   C     C_R   0.509750 0.508821 0.690741 0.500008
C17   C     C_R   0.517008 0.236674 0.488128 0.020890
C18   C     C_R   0.600023 0.212216 0.493944 0.245782
C19   C     C_R   0.602631 0.139686 0.493498 -0.076833
C20   C     C_R   0.484289 0.489867 0.231436 0.030348
C21   C     C_R   0.548604 0.532855 0.205622 -0.147275
C22   C     C_R   0.542069 0.533710 0.132396 -0.089812
C23   C     C_R   0.982288 0.402984 0.457908 -0.110831
C24   C     C_R   0.470584 0.491487 0.083392 0.225066
C25   C     C_R   0.405848 0.449349 0.109213 -0.107160
C26   C     C_R   0.412959 0.447870 0.182717 -0.144058
C27   C     C_R   0.446315 0.523803 0.870110 -0.090515
C28   C     C_R   0.490412 0.491259 0.308899 0.520023
C29   C     C_R   0.441949 0.524826 0.796908 -0.149568
C30   C     C_R   0.524500 0.510211 0.915424 0.224427
C31   C     C_R   0.514969 0.511490 0.768066 0.031731
C32   C     C_R   0.593143 0.499085 0.813579 -0.142009
C33   C     C_R   0.598051 0.499420 0.886779 -0.106786
C34   C     C_R   0.019289 0.474290 0.482668 0.036479
C35   C     C_R   0.741077 0.535672 0.535029 0.514509
C36   C     C_R   0.257966 0.466776 0.465096 0.487907
C37   C     C_R   0.967763 0.642118 0.566577 -0.104483
C38   C     C_R   0.837404 0.552963 0.547776 0.049469
C39   C     C_R   0.120392 0.379610 0.428999 -0.124477
C40   C     C_3   0.831729 0.676381 0.603354 -0.391903
C41   C     C_R   0.107986 0.498405 0.476531 0.031961
C42   C     C_R   0.971429 0.522566 0.513257 0.021874
C43   C     C_R   0.012363 0.593794 0.535211 0.036287
C44   C     C_R   0.096191 0.617355 0.523043 -0.137039
C45   C     C_R   0.142099 0.571013 0.492258 -0.112710
H1    H     H_    0.380597 0.080064 0.472601 0.150973
H2    H     H_    0.125993 0.672410 0.536293 0.106261
H3    H     H_    0.362028 0.414793 0.201385 0.139646
H4    H     H_    0.650687 0.489415 0.792613 0.142757
H5    H     H_    0.592351 0.567977 0.114232 0.139233
H6    H     H_    0.658897 0.489959 0.921260 0.126986
H7    H     H_    0.604032 0.566017 0.242047 0.140747
H8    H     H_    0.000410 0.696025 0.583936 0.108307
H9    H     H_    0.846620 0.451081 0.503200 0.146361
H10   H     H_    0.158723 0.341392 0.411023 0.138512
H11   H     H_    0.915153 0.380766 0.458904 0.129124
H12   H     H_    0.361750 0.886875 0.550081 0.120754
H13   H     H_    0.002341 0.302856 0.411238 0.132137
H14   H     H_    0.204054 0.593573 0.479870 0.143578
H15   H     H_    0.374651 0.206239 0.473835 0.130919
H16   H     H_    0.876609 0.727047 0.623867 0.125286
H17   H     H_    0.775832 0.687556 0.561739 0.153898
H18   H     H_    0.805111 0.655857 0.648493 0.127957
H19   H     H_    0.833858 0.259406 0.485946 0.358889
H20   H     H_    0.370720 0.760745 0.553545 0.134198
H21   H     H_    0.590885 0.911340 0.453572 0.142680
H22   H     H_    0.665682 0.120160 0.498642 0.176412
H23   H     H_    0.599799 0.786576 0.456941 0.137545
H24   H     H_    0.381098 0.534712 0.762757 0.137923
H25   H     H_    0.389115 0.533998 0.891259 0.138732
H26   H     H_    0.350154 0.417132 0.072193 0.126120
N1    N     N_2   0.466938 0.981495 0.501533 -0.240709
N2    N     N_2   0.532898 0.018965 0.488875 -0.242351
N3    N     N_2   0.461022 0.491286 0.008288 -0.244229
N4    N     N_2   0.532836 0.509114 0.990114 -0.247573
O1    O     O_3   0.500000 0.500000 0.500000 -0.446493
O2    O     O_R   0.703360 0.489010 0.567610 -0.504561
O3    O     O_R   0.300660 0.429640 0.429680 -0.551485
O4    O     O_R   0.695340 0.566530 0.487850 -0.546044
O5    O     O_R   0.300650 0.514820 0.514850 -0.548522
O6    O     O_2   0.686490 0.324663 0.448309 -0.302835
O7    O     O_2   0.732752 0.305882 0.574463 -0.261369
O8    O     O_3   0.779374 0.224003 0.479204 -0.540807
O9    O     O_R   0.453370 0.540700 0.651360 -0.543425
O10   O     O_R   0.442100 0.444740 0.334100 -0.537760
O11   O     O_R   0.561930 0.354050 0.543340 -0.474485
O12   O     O_R   0.542600 0.660510 0.471200 -0.553485
O13   O     O_R   0.453390 0.335660 0.446330 -0.546223
O14   O     O_R   0.442080 0.649780 0.539130 -0.549049
O15   O     O_R   0.561920 0.473910 0.663190 -0.547090
O16   O     O_R   0.542610 0.540650 0.351350 -0.541855
S1    S     S_3+6 0.701103 0.269862 0.499490 0.005931
Zn1   Zn    Zn3+2 0.425320 0.550450 0.550460 0.923314
Zn2   Zn    Zn3+2 0.580410 0.455020 0.567370 1.008808
Zn3   Zn    Zn3+2 0.568940 0.565780 0.453410 0.941484
Zn4   Zn    Zn3+2 0.425330 0.428750 0.428760 0.954457

loop_
_geom_bond_atom_site_label_1
_geom_bond_atom_site_label_2
_ccdc_geom_bond_type
O13   Zn4   S    
C8    H21   S    
C27   C29   A    
C34   C42   A    
C9    N1    S    
O7    S1    D    
C7    C8    A    
C4    O12   A    
C16   C31   S    
C15   C19   A    
O8    S1    S    
C12   C23   A    
C40   H18   S    
C16   O15   A    
O1    Zn3   S    
C13   H1    S    
O10   Zn4   S    
C5    C36   S    
O2    Zn2   S    
C16   O9    A    
C40   H17   S    
C18   C19   A    
O11   Zn2   S    
O1    Zn2   S    
C7    H23   S    
O6    S1    D    
C39   H10   S    
C3    C38   A    
O3    Zn4   S    
C8    C9    A    
O12   Zn3   S    
C19   H22   S    
C25   H26   S    
C9    C10   A    
C44   H2    S    
C26   H3    S    
C22   H5    S    
C12   H13   S    
C1    O13   A    
C13   C14   A    
C27   C30   A    
C14   C17   A    
C34   C41   A    
O15   Zn2   S    
C29   H24   S    
N3    N4    D    
C23   H11   S    
C10   H12   S    
C24   C25   A    
C4    C6    S    
C36   O5    A    
C6    C11   A    
C20   C28   S    
C25   C26   A    
C35   O2    A    
C40   H16   S    
C37   C43   A    
C43   C44   A    
H19   O8    S    
O4    Zn3   S    
O1    Zn1   S    
C2    C38   A    
C31   C32   A    
C23   C34   A    
C35   C38   S    
C17   C18   A    
C27   H25   S    
C15   N2    S    
C3    C40   S    
C5    C39   A    
C2    H9    S    
C22   C24   A    
C42   C43   A    
C44   C45   A    
C4    O14   A    
C1    O11   A    
C5    C41   A    
C45   H14   S    
C30   C33   A    
N1    N2    D    
C6    C7    A    
C33   H6    S    
C14   H15   S    
C1    C17   S    
C18   S1    S    
C32   C33   A    
C12   C39   A    
C13   C15   A    
C37   H8    S    
C29   C31   A    
C36   O3    A    
O1    Zn4   S    
C30   N4    S    
C24   N3    S    
C20   C26   A    
C2    C42   A    
C35   O4    A    
C28   O16   A    
O9    Zn1   S    
O14   Zn1   S    
C32   H4    S    
C10   C11   A    
O16   Zn3   S    
C20   C21   A    
C3    C37   A    
C28   O10   A    
C41   C45   A    
O5    Zn1   S    
C21   C22   A    
C21   H7    S    
C11   H20   S    
