data_mof_unit_64898.cif
_audit_creation_date              2012-12-10T19:17:18-0500
_audit_creation_method            fapswitch 2.2
_symmetry_space_group_name_H-M    P1
_symmetry_Int_Tables_number       1
_space_group_crystal_system       triclinic
_cell_length_a                    22.166255
_cell_length_b                    22.418177
_cell_length_c                    14.948101
_cell_angle_alpha                 89.86566
_cell_angle_beta                  90.232852
_cell_angle_gamma                 89.973594
_cell_volume                      7428.03282205

loop_
_atom_site_label
_atom_site_type_symbol
_atom_type_description
_atom_site_fract_x
_atom_site_fract_y
_atom_site_fract_z
_atom_type_partial_charge
C1    C     C_R   0.081185 0.419212 0.500158 0.912271
C2    C     C_1   0.831011 0.656191 0.500290 0.127934
C3    C     C_3   0.291625 0.207426 0.749789 -0.211798
C4    C     C_1   0.213003 0.691700 0.332762 0.359135
C5    C     C_1   0.198036 0.731539 0.666626 0.372143
C6    C     C_1   0.196798 0.268238 0.332259 0.373324
C7    C     C_1   0.212416 0.305875 0.666884 0.360471
C8    C     C_1   0.684971 0.239698 0.338947 0.429732
C9    C     C_1   0.737868 0.172962 0.656894 0.335636
C10   C     C_1   0.697572 0.769247 0.332249 0.372611
C11   C     C_1   0.709856 0.803492 0.667976 0.356170
C12   C     C_3   0.683576 0.398654 0.617738 -0.270473
C13   C     C_1   0.332644 0.841967 0.498182 0.127968
C14   C     C_3   0.735873 0.415250 0.428609 -0.258101
C15   C     C_3   0.740073 0.567180 0.542449 -0.311943
C16   C     C_3   0.664252 0.605517 0.387219 -0.196719
C17   C     C_3   0.165091 0.895166 0.601972 -0.204645
C18   C     C_3   0.242648 0.928811 0.445055 -0.313788
C19   C     C_3   0.242245 0.070191 0.553353 -0.312818
C20   C     C_3   0.164179 0.103758 0.395812 -0.203434
C21   C     C_3   0.066794 0.756572 0.534845 -0.294545
C22   C     C_3   0.105448 0.828471 0.377067 -0.165626
C23   C     C_3   0.104186 0.170082 0.619354 -0.164459
C24   C     C_1   0.331842 0.157079 0.500682 0.127583
C25   C     C_3   0.066201 0.243107 0.461311 -0.296672
C26   C     C_3   0.607560 0.239072 0.647700 -0.287562
C27   C     C_3   0.585536 0.329433 0.498133 -0.253169
C28   C     C_3   0.603625 0.666835 0.615681 -0.164140
C29   C     C_3   0.565125 0.742184 0.460772 -0.291584
C30   C     C_3   0.113987 0.436034 0.837047 -0.178357
C31   C     C_3   0.111510 0.373750 0.088319 -0.228787
C32   C     C_3   0.126689 0.612270 0.913765 -0.230938
C33   C     C_3   0.120793 0.550651 0.165155 -0.177499
C34   C     C_3   0.623135 0.955433 0.836217 -0.180405
C35   C     C_1   0.874183 0.375579 0.499506 -0.228803
C36   C     C_3   0.632475 0.895151 0.087947 -0.226968
C37   C     C_3   0.605155 0.132063 0.913743 -0.228364
C38   C     C_3   0.609742 0.071309 0.165332 -0.176863
C39   C     C_3   0.054205 0.659564 0.086871 -0.235370
C40   C     C_3   0.999577 0.630504 0.835015 -0.202466
C41   C     C_3   0.982655 0.371329 0.164723 -0.221924
C42   C     C_3   0.034163 0.335713 0.913936 -0.240698
C43   C     C_3   0.524794 0.166519 0.086413 -0.240668
C44   C     C_3   0.476973 0.128320 0.834523 -0.217650
C45   C     C_3   0.506579 0.870281 0.165287 -0.203718
C46   C     C_1   0.871605 0.621860 0.499614 -0.213626
C47   C     C_3   0.561999 0.843779 0.914237 -0.231565
C48   C     C_3   0.832535 0.468054 0.085417 -0.253958
C49   C     C_3   0.885717 0.435271 0.834818 -0.192912
C50   C     C_3   0.894482 0.579014 0.163371 -0.187017
C51   C     C_3   0.838319 0.553633 0.911288 -0.262074
C52   C     C_3   0.341217 0.938896 0.085949 -0.259072
C53   C     C_3   0.398313 0.917216 0.834875 -0.186649
C54   C     C_3   0.382344 0.059130 0.164158 -0.190406
C55   C     C_3   0.331374 0.025362 0.912401 -0.253590
C56   C     C_1   0.372652 0.876967 0.499456 -0.213576
C57   C     C_1   0.372140 0.122420 0.499721 -0.210828
C58   C     C_3   0.026078 0.438075 0.054076 0.774237
C59   C     C_3   0.033759 0.441847 0.946893 0.765686
C60   C     C_3   0.040716 0.554272 0.053799 0.766216
C61   C     C_R   0.081275 0.580659 0.500030 0.912560
C62   C     C_3   0.033828 0.558921 0.946431 0.771765
C63   C     C_3   0.536857 0.943541 0.054115 0.770344
C64   C     C_3   0.543407 0.948356 0.946824 0.765216
C65   C     C_3   0.530506 0.060488 0.053714 0.765839
C66   C     C_3   0.523057 0.063724 0.946303 0.773400
C67   C     C_3   0.999474 0.500341 0.089251 -0.420618
C68   C     C_3   0.999657 0.500389 0.910755 -0.421509
C69   C     C_3   0.499585 0.000207 0.089295 -0.421097
C70   C     C_3   0.499596 0.000256 0.910779 -0.419702
C71   C     C_3   0.931259 0.500514 0.945760 0.775316
C72   C     C_R   0.581049 0.919052 0.500183 0.912009
C73   C     C_3   0.931666 0.508775 0.053050 0.773028
C74   C     C_3   0.432232 0.988744 0.946025 0.772532
C75   C     C_3   0.431312 0.996656 0.053362 0.774551
C76   C     C_1   0.999760 0.500209 0.809367 0.238147
C77   C     C_1   0.999593 0.500212 0.190632 0.238249
C78   C     C_1   0.499706 0.000149 0.809378 0.238480
C79   C     C_1   0.499692 0.000115 0.190641 0.238327
C80   C     C_R   0.919012 0.419097 0.499924 0.893254
C81   C     C_R   0.918802 0.580749 0.499827 0.892348
C82   C     C_R   0.419011 0.919026 0.499923 0.889126
C83   C     C_R   0.581192 0.080773 0.500075 0.915573
C84   C     C_R   0.418907 0.080846 0.499838 0.896087
C85   C     C_3   0.804687 0.248042 0.578763 0.321015
C86   C     C_3   0.789041 0.261063 0.402508 0.338057
C87   C     C_3   0.786688 0.735552 0.594530 0.305872
C88   C     C_3   0.793768 0.742635 0.416254 0.341203
C89   C     C_3   0.294757 0.757001 0.584429 0.341168
C90   C     C_3   0.289538 0.760532 0.405718 0.305947
C91   C     C_3   0.288983 0.237948 0.593540 0.304530
C92   C     C_3   0.293602 0.242229 0.414902 0.336053
C93   C     C_3   0.247048 0.703764 0.416748 -0.172293
C94   C     C_1   0.158313 0.666690 0.499727 0.055676
C95   C     C_3   0.238228 0.713573 0.592122 -0.217255
C96   C     C_3   0.237087 0.285782 0.407317 -0.218234
C97   C     C_3   0.246296 0.294639 0.582946 -0.172751
C98   C     C_3   0.732403 0.217241 0.401093 -0.209597
C99   C     C_3   0.760571 0.192565 0.568416 -0.175561
C100  C     C_3   0.737123 0.786035 0.408562 -0.218017
C101  C     C_3   0.744485 0.792658 0.584513 -0.169596
C102  C     C_1   0.123439 0.626732 0.499976 -0.214076
C103  C     C_1   0.122933 0.372696 0.500349 -0.214093
C104  C     C_1   0.624928 0.125464 0.500408 -0.204478
C105  C     C_1   0.157494 0.332421 0.500060 0.054370
C106  C     C_1   0.622308 0.872062 0.500536 -0.214076
C107  C     C_3   0.789531 0.293351 0.498113 -0.168434
C108  C     C_3   0.783138 0.700311 0.501428 -0.159835
C109  C     C_3   0.284962 0.797608 0.496987 -0.160826
C110  C     C_3   0.284078 0.201312 0.501937 -0.158635
C111  C     C_3   0.202168 0.714841 0.499181 -0.160792
C112  C     C_3   0.201231 0.284086 0.500029 -0.160315
C113  C     C_3   0.707021 0.210563 0.501237 -0.176534
C114  C     C_3   0.700278 0.783108 0.500392 -0.158902
C115  C     C_3   0.169230 0.778559 0.486424 0.808598
C116  C     C_1   0.661689 0.163732 0.501160 0.061474
C117  C     C_3   0.168304 0.220334 0.511650 0.808664
C118  C     C_3   0.676400 0.272400 0.531964 0.817601
C119  C     C_3   0.667407 0.719082 0.509653 0.806969
C120  C     C_3   0.725226 0.324662 0.516380 0.873048
C121  C     C_3   0.718071 0.668465 0.492595 0.871500
C122  C     C_3   0.219738 0.829507 0.501910 0.872725
C123  C     C_3   0.218851 0.169423 0.496416 0.872738
C124  C     C_1   0.256330 0.652026 0.619041 0.145063
C125  C     C_1   0.282122 0.647777 0.429181 0.131026
C126  C     C_1   0.281131 0.350812 0.571640 0.130395
C127  C     C_1   0.656554 0.831496 0.500493 0.053865
C128  C     C_1   0.255144 0.347442 0.381253 0.147008
C129  C     C_1   0.792562 0.138198 0.537218 0.140253
C130  C     C_1   0.746452 0.158399 0.359607 0.157177
C131  C     C_1   0.779791 0.848710 0.575201 0.128384
C132  C     C_1   0.755256 0.848038 0.384474 0.144910
C133  C     C_1   0.870312 0.229903 0.576194 0.116110
C134  C     C_1   0.846380 0.226196 0.388831 0.116133
C135  C     C_1   0.851149 0.752086 0.616255 0.116104
C136  C     C_1   0.852032 0.776055 0.427779 0.133138
C137  C     C_1   0.353268 0.723561 0.576572 0.133896
C138  C     C_1   0.835882 0.338854 0.498354 0.106769
C139  C     C_1   0.354213 0.743497 0.387288 0.117254
C140  C     C_1   0.353699 0.255051 0.612354 0.114511
C141  C     C_1   0.352103 0.275652 0.423335 0.136878
C142  C     C_3   0.831503 0.320597 0.280986 -0.287091
C143  C     C_3   0.827359 0.263326 0.736659 -0.198146
C144  C     C_3   0.822437 0.733043 0.261501 -0.262987
C145  C     C_3   0.786662 0.702470 0.749613 -0.220776
C146  C     C_3   0.291297 0.790149 0.249115 -0.223479
C147  C     C_3   0.321466 0.769586 0.739770 -0.265037
C148  C     C_3   0.320533 0.229616 0.259882 -0.250758
H1    H     H_    0.843003 0.283792 0.234414 0.179312
H2    H     H_    0.792610 0.749891 0.769196 0.142308
H3    H     H_    0.036853 0.612603 0.793740 0.167645
H4    H     H_    0.003558 0.679815 0.833720 0.153182
H5    H     H_    0.956116 0.619280 0.802258 0.204215
H6    H     H_    0.022232 0.383564 0.206384 0.170072
H7    H     H_    0.979206 0.321980 0.166038 0.149633
H8    H     H_    0.941404 0.388816 0.197031 0.197212
H9    H     H_    0.083698 0.337686 0.921715 0.154154
H10   H     H_    0.025564 0.309597 0.852262 0.163090
H11   H     H_    0.013379 0.310191 0.969357 0.199938
H12   H     H_    0.574356 0.167213 0.079130 0.150383
H13   H     H_    0.830232 0.678257 0.755783 0.163559
H14   H     H_    0.514769 0.192042 0.148067 0.164975
H15   H     H_    0.502641 0.190978 0.030795 0.200148
H16   H     H_    0.517000 0.117287 0.793489 0.164579
H17   H     H_    0.471933 0.177540 0.833041 0.145130
H18   H     H_    0.436330 0.109537 0.801650 0.205915
H19   H     H_    0.543009 0.889906 0.206860 0.168411
H20   H     H_    0.512987 0.821215 0.166613 0.153974
H21   H     H_    0.462651 0.879450 0.197634 0.203630
H22   H     H_    0.610445 0.854101 0.922119 0.152449
H23   H     H_    0.558090 0.816660 0.852521 0.170688
H24   H     H_    0.754631 0.681886 0.797386 0.172768
H25   H     H_    0.545985 0.815054 0.969664 0.198887
H26   H     H_    0.816736 0.438748 0.030541 0.204274
H27   H     H_    0.815313 0.513921 0.076613 0.151255
H28   H     H_    0.811387 0.450944 0.147435 0.149091
H29   H     H_    0.917412 0.403721 0.802717 0.204771
H30   H     H_    0.882637 0.476086 0.793015 0.166300
H31   H     H_    0.840613 0.413870 0.833476 0.155786
H32   H     H_    0.886927 0.538844 0.205253 0.165725
H33   H     H_    0.851953 0.605071 0.163979 0.153341
H34   H     H_    0.929415 0.607001 0.195868 0.205980
H35   H     H_    0.297380 0.742284 0.232247 0.143185
H36   H     H_    0.815181 0.510325 0.919130 0.151688
H37   H     H_    0.819973 0.573804 0.849054 0.157103
H38   H     H_    0.826285 0.584494 0.966182 0.199611
H39   H     H_    0.330851 0.907728 0.030578 0.199491
H40   H     H_    0.315898 0.981033 0.077995 0.150891
H41   H     H_    0.323789 0.917624 0.147712 0.157118
H42   H     H_    0.434397 0.890663 0.802776 0.204920
H43   H     H_    0.389069 0.957109 0.793029 0.169032
H44   H     H_    0.356884 0.889565 0.833719 0.151650
H45   H     H_    0.381426 0.018076 0.205639 0.164428
H46   H     H_    0.334955 0.814125 0.243136 0.163556
H47   H     H_    0.336166 0.078197 0.165078 0.154929
H48   H     H_    0.412323 0.092152 0.196862 0.209215
H49   H     H_    0.316128 0.978742 0.920101 0.149861
H50   H     H_    0.309590 0.042392 0.850471 0.160512
H51   H     H_    0.314306 0.053461 0.967672 0.200491
H52   H     H_    0.259763 0.809654 0.199220 0.172881
H53   H     H_    0.371306 0.774379 0.742247 0.169251
H54   H     H_    0.309126 0.721833 0.747077 0.144964
H55   H     H_    0.302513 0.793636 0.797987 0.177166
H56   H     H_    0.370522 0.226219 0.259746 0.171274
H57   H     H_    0.871020 0.332743 0.322951 0.156949
H58   H     H_    0.306762 0.276902 0.251070 0.142448
H59   H     H_    0.303400 0.204333 0.201375 0.182953
H60   H     H_    0.297716 0.255198 0.767292 0.139350
H61   H     H_    0.335334 0.183409 0.755466 0.159242
H62   H     H_    0.260380 0.187617 0.799411 0.179212
H63   H     H_    0.657862 0.416233 0.559984 0.141370
H64   H     H_    0.702265 0.438137 0.652755 0.159881
H65   H     H_    0.653621 0.376248 0.666472 0.203599
H66   H     H_    0.701201 0.448982 0.410835 0.142157
H67   H     H_    0.760552 0.432327 0.487858 0.162719
H68   H     H_    0.819965 0.360085 0.239626 0.182163
H69   H     H_    0.767701 0.413147 0.371866 0.208066
H70   H     H_    0.706013 0.531170 0.547913 0.147027
H71   H     H_    0.774566 0.559146 0.595116 0.193773
H72   H     H_    0.761864 0.563033 0.476082 0.178446
H73   H     H_    0.636929 0.594283 0.446566 0.155772
H74   H     H_    0.682299 0.563279 0.359547 0.135268
H75   H     H_    0.634206 0.625167 0.335435 0.208580
H76   H     H_    0.133445 0.875800 0.651452 0.210773
H77   H     H_    0.139715 0.906906 0.540616 0.154535
H78   H     H_    0.182624 0.937095 0.631378 0.138913
H79   H     H_    0.871193 0.287302 0.734803 0.157061
H80   H     H_    0.262298 0.935843 0.512563 0.177088
H81   H     H_    0.209531 0.964932 0.432625 0.148223
H82   H     H_    0.278785 0.933594 0.394399 0.195882
H83   H     H_    0.209439 0.033882 0.565745 0.148222
H84   H     H_    0.278597 0.065700 0.604178 0.197145
H85   H     H_    0.261671 0.063187 0.485924 0.175808
H86   H     H_    0.139049 0.091801 0.456979 0.154339
H87   H     H_    0.181802 0.061935 0.366334 0.138737
H88   H     H_    0.132290 0.123114 0.346257 0.210881
H89   H     H_    0.059166 0.723477 0.588936 0.183415
H90   H     H_    0.835059 0.214476 0.742273 0.139119
H91   H     H_    0.063350 0.733511 0.469454 0.187043
H92   H     H_    0.029565 0.789569 0.538117 0.194723
H93   H     H_    0.093997 0.857167 0.434584 0.159363
H94   H     H_    0.062870 0.809344 0.350476 0.141556
H95   H     H_    0.124826 0.856812 0.323458 0.200945
H96   H     H_    0.123481 0.141190 0.672619 0.199938
H97   H     H_    0.092480 0.141932 0.561220 0.159890
H98   H     H_    0.061737 0.189242 0.645901 0.147297
H99   H     H_    0.062305 0.265300 0.527282 0.191288
H100  H     H_    0.028642 0.210646 0.455669 0.198366
H101  H     H_    0.803254 0.277842 0.797732 0.183019
H102  H     H_    0.059558 0.276974 0.407922 0.178542
H103  H     H_    0.618145 0.198253 0.686272 0.177161
H104  H     H_    0.578448 0.225853 0.590665 0.193733
H105  H     H_    0.580238 0.267955 0.692043 0.163163
H106  H     H_    0.583672 0.340431 0.569954 0.153003
H107  H     H_    0.538861 0.317139 0.478567 0.193349
H108  H     H_    0.597283 0.369114 0.457522 0.200749
H109  H     H_    0.623150 0.637324 0.667991 0.200965
H110  H     H_    0.592108 0.639464 0.556664 0.158182
H111  H     H_    0.561045 0.685314 0.642832 0.144210
H112  H     H_    0.872404 0.729394 0.261683 0.168744
H113  H     H_    0.561806 0.764212 0.526948 0.187483
H114  H     H_    0.527936 0.709241 0.456075 0.196311
H115  H     H_    0.557357 0.776141 0.407838 0.182834
H116  H     H_    0.123825 0.479184 0.803943 0.204773
H117  H     H_    0.080833 0.411259 0.795673 0.169794
H118  H     H_    0.156571 0.410139 0.836673 0.165785
H119  H     H_    0.144692 0.374669 0.033119 0.201020
H120  H     H_    0.080057 0.335884 0.080774 0.148537
H121  H     H_    0.137720 0.364851 0.150298 0.167379
H122  H     H_    0.159476 0.607258 0.969409 0.201178
H123  H     H_    0.809005 0.780570 0.254886 0.144732
H124  H     H_    0.100184 0.653687 0.921044 0.147919
H125  H     H_    0.153805 0.617977 0.852129 0.165801
H126  H     H_    0.126497 0.506647 0.198021 0.205197
H127  H     H_    0.090065 0.578228 0.206310 0.171088
H128  H     H_    0.165579 0.572656 0.166388 0.160809
H129  H     H_    0.626998 0.999633 0.803396 0.205455
H130  H     H_    0.593549 0.926649 0.794766 0.170310
H131  H     H_    0.668764 0.935118 0.835464 0.157100
H132  H     H_    0.664981 0.901801 0.032719 0.201394
H133  H     H_    0.608223 0.852429 0.080286 0.147008
H134  H     H_    0.805349 0.709263 0.201582 0.178761
H135  H     H_    0.659806 0.890838 0.149956 0.166190
H136  H     H_    0.638478 0.132735 0.969168 0.205648
H137  H     H_    0.571785 0.168279 0.921276 0.141801
H138  H     H_    0.630568 0.142468 0.851985 0.174455
H139  H     H_    0.623838 0.029156 0.198181 0.209215
H140  H     H_    0.574218 0.092526 0.206465 0.164379
H141  H     H_    0.649383 0.101481 0.166634 0.155664
H142  H     H_    0.103113 0.651560 0.079705 0.153875
H143  H     H_    0.048906 0.686454 0.148534 0.167650
H144  H     H_    0.036787 0.687496 0.031251 0.198681
N1    N     N_1   0.999850 0.500000 0.731150 -0.140031
N2    N     N_1   0.756978 0.112847 0.326786 -0.179581
N3    N     N_1   0.807291 0.892422 0.569063 -0.157771
N4    N     N_1   0.769112 0.896152 0.365164 -0.172312
N5    N     N_1   0.920678 0.216192 0.575251 -0.238733
N6    N     N_1   0.890313 0.199452 0.376839 -0.202779
N7    N     N_1   0.900518 0.764468 0.633692 -0.221137
N8    N     N_1   0.897018 0.801854 0.435120 -0.212930
N9    N     N_1   0.398427 0.697770 0.572077 -0.213864
N10   N     N_1   0.403761 0.730705 0.372286 -0.223362
N11   N     N_1   0.403276 0.267879 0.627627 -0.225108
N12   N     N_1   0.999850 0.500000 0.268850 -0.140732
N13   N     N_1   0.397225 0.301469 0.428277 -0.199887
N14   N     N_1   0.186324 0.682118 0.267608 -0.252617
N15   N     N_1   0.166961 0.745184 0.725221 -0.216723
N16   N     N_1   0.165661 0.254885 0.273225 -0.217840
N17   N     N_1   0.185835 0.314632 0.732048 -0.251078
N18   N     N_1   0.648294 0.256914 0.289885 -0.190020
N19   N     N_1   0.721328 0.156843 0.726218 -0.246679
N20   N     N_1   0.666984 0.756543 0.272274 -0.216686
N21   N     N_1   0.682751 0.812217 0.732705 -0.251724
N22   N     N_1   0.499850 0.000000 0.731150 -0.140530
N23   N     N_1   0.499850 1.000000 0.268850 -0.140264
N24   N     N_1   0.270160 0.604273 0.640558 -0.178498
N25   N     N_1   0.309464 0.604096 0.437760 -0.153586
N26   N     N_1   0.308283 0.394626 0.563911 -0.155252
N27   N     N_1   0.268940 0.395289 0.360407 -0.176569
N28   N     N_1   0.817681 0.095654 0.514149 -0.152341
O1    O     O_R   0.061440 0.438650 0.574260 -0.613038
O2    O     O_R   0.938580 0.438650 0.425740 -0.627992
O3    O     O_R   0.938580 0.561350 0.574260 -0.617093
O4    O     O_R   0.938580 0.561350 0.425740 -0.610347
O5    O     O_R   0.438580 0.938650 0.574260 -0.609959
O6    O     O_R   0.438580 0.938650 0.425740 -0.619004
O7    O     O_R   0.438580 0.061350 0.574260 -0.619957
O8    O     O_R   0.438580 0.061350 0.425740 -0.608619
O9    O     O_3   0.780533 0.305246 0.333185 -0.574373
O10   O     O_3   0.791968 0.279079 0.660891 -0.534132
O11   O     O_3   0.798712 0.704905 0.338872 -0.552866
O12   O     O_R   0.061440 0.438650 0.425740 -0.615040
O13   O     O_3   0.763130 0.695885 0.661787 -0.542633
O14   O     O_3   0.266931 0.798853 0.335739 -0.543102
O15   O     O_3   0.298709 0.796235 0.660274 -0.551987
O16   O     O_3   0.297235 0.203151 0.338840 -0.552932
O17   O     O_3   0.266790 0.199238 0.663052 -0.545189
O18   O     O_3   0.732402 0.361112 0.594978 -0.569631
O19   O     O_3   0.706682 0.359275 0.440070 -0.609190
O20   O     O_3   0.711278 0.622541 0.559146 -0.597807
O21   O     O_3   0.713075 0.644993 0.403427 -0.599151
O22   O     O_3   0.214142 0.855437 0.589375 -0.597550
O23   O     O_R   0.061440 0.561350 0.574260 -0.615084
O24   O     O_3   0.213114 0.873443 0.432344 -0.596979
O25   O     O_3   0.212331 0.125378 0.565754 -0.596729
O26   O     O_3   0.213105 0.143621 0.408824 -0.597118
O27   O     O_3   0.122137 0.786507 0.551154 -0.659219
O28   O     O_3   0.146079 0.781205 0.396502 -0.612504
O29   O     O_3   0.145015 0.217278 0.601171 -0.613176
O30   O     O_3   0.121310 0.212612 0.446159 -0.658810
O31   O     O_3   0.661624 0.269947 0.625409 -0.604530
O32   O     O_3   0.623610 0.280875 0.476843 -0.642306
O33   O     O_3   0.644099 0.714558 0.599022 -0.612253
O34   O     O_R   0.061440 0.561350 0.425740 -0.612400
O35   O     O_3   0.620465 0.712531 0.443792 -0.659533
O36   O     O_3   0.097138 0.445269 0.927615 -0.586704
O37   O     O_3   0.083516 0.430158 0.097517 -0.600482
O38   O     O_3   0.091925 0.559705 0.904090 -0.600403
O39   O     O_3   0.103138 0.543135 0.074321 -0.586045
O40   O     O_3   0.605201 0.962338 0.926836 -0.585167
O41   O     O_3   0.594943 0.945876 0.097102 -0.598686
O42   O     O_3   0.580207 0.074305 0.904082 -0.599390
O43   O     O_3   0.593894 0.060539 0.074507 -0.585064
O44   O     O_3   0.018812 0.607411 0.096416 -0.602540
O45   O     O_R   0.561440 0.938650 0.574260 -0.613220
O46   O     O_3   0.999231 0.611487 0.925859 -0.583672
O47   O     O_3   0.985100 0.390178 0.073892 -0.579597
O48   O     O_3   0.005546 0.391795 0.903786 -0.602037
O49   O     O_3   0.499303 0.108986 0.096009 -0.601399
O50   O     O_3   0.479872 0.109626 0.925440 -0.581571
O51   O     O_3   0.505160 0.889264 0.074450 -0.583907
O52   O     O_3   0.524045 0.894185 0.904202 -0.602018
O53   O     O_3   0.895889 0.463530 0.095691 -0.601177
O54   O     O_3   0.902484 0.444629 0.925645 -0.586106
O55   O     O_3   0.910232 0.567809 0.072808 -0.587638
O56   O     O_R   0.561440 0.938650 0.425740 -0.614727
O57   O     O_3   0.901750 0.549904 0.902407 -0.598070
O58   O     O_3   0.404376 0.945706 0.095936 -0.597298
O59   O     O_3   0.413586 0.928882 0.925638 -0.588400
O60   O     O_3   0.399591 0.050924 0.073475 -0.588200
O61   O     O_3   0.394487 0.032502 0.903070 -0.598827
O62   O     O_R   0.561440 0.061350 0.574260 -0.619482
O63   O     O_R   0.561440 0.061350 0.425740 -0.611423
O64   O     O_R   0.938580 0.438650 0.574260 -0.607821
Zn1   Zn    Zn3+2 0.000010 0.500000 0.599130 0.949504
Zn2   Zn    Zn3+2 0.000010 0.500000 0.400870 0.944010
Zn3   Zn    Zn3+2 0.500010 1.000000 0.599130 0.947137
Zn4   Zn    Zn3+2 0.500010 1.000000 0.400870 0.951103

loop_
_geom_bond_atom_site_label_1
_geom_bond_atom_site_label_2
_ccdc_geom_bond_type
C95   C124  S    
C16   H74   S    
C42   H11   S    
C86   O9    S    
C72   O56   A    
C120  O19   S    
C59   O48   S    
C123  O25   S    
C89   O15   S    
C146  H35   S    
C88   C108  S    
C33   H126  S    
C94   C111  S    
C82   O5    A    
C60   C62   S    
C64   O40   S    
C72   O45   A    
C139  N10   T    
C36   O41   S    
C104  C116  T    
C71   O57   S    
C55   H51   S    
C83   O63   A    
C20   H88   S    
O45   Zn3   S    
C48   O53   S    
C52   H39   S    
C146  H46   S    
C144  O11   S    
C143  H101  S    
C53   H42   S    
C41   H8    S    
C113  C118  S    
C3    H62   S    
C34   H130  S    
C22   H95   S    
C5    C95   S    
C49   H29   S    
N23   Zn4   S    
C54   H48   S    
C99   C129  S    
C39   H143  S    
C24   C110  S    
C119  O33   S    
C18   H82   S    
C37   H137  S    
C71   C73   S    
C97   C112  S    
C22   O28   S    
C11   N21   T    
C106  C127  T    
C65   O43   S    
C132  N4    T    
C62   O38   S    
C3    O17   S    
C64   O52   S    
C110  C123  S    
C28   H111  S    
C11   C101  S    
C15   H70   S    
C37   H136  S    
C105  C112  S    
C72   C106  S    
C74   O61   S    
C107  C120  S    
C114  C127  S    
C90   C93   S    
C7    C97   S    
C5    N15   T    
C55   O61   S    
C143  H79   S    
C97   C126  S    
C47   H23   S    
C100  C132  S    
C9    N19   T    
C33   H128  S    
C81   O3    A    
C10   N20   T    
C130  N2    T    
C62   C68   S    
C146  O14   S    
C23   H98   S    
C147  H55   S    
C76   N1    T    
C66   C70   S    
C145  H13   S    
C107  C138  S    
C2    C108  S    
C52   H41   S    
C146  H52   S    
C53   H44   S    
C118  C120  S    
C50   O55   S    
C58   C67   S    
C94   C102  T    
C53   O59   S    
C8    N18   T    
C118  O31   S    
C22   H93   S    
C34   O40   S    
C4    N14   T    
O2    Zn2   S    
C21   H89   S    
C19   O25   S    
C35   C80   S    
C67   C77   S    
C38   H140  S    
C55   H49   S    
C36   H135  S    
C115  O27   S    
C142  H1    S    
C122  O24   S    
C36   H133  S    
C120  O18   S    
C141  N13   T    
C75   O58   S    
C92   C96   S    
C40   H4    S    
C134  N6    T    
C26   O31   S    
C8    C98   S    
O63   Zn4   S    
C13   C109  S    
C66   O50   S    
C148  H59   S    
C87   C101  S    
C17   H77   S    
C63   C69   S    
C60   C67   S    
C24   C57   T    
C27   H108  S    
C1    C103  S    
C117  O29   S    
C145  H2    S    
C13   C56   T    
C145  H24   S    
C33   O39   S    
C43   O49   S    
C50   H34   S    
C85   O10   S    
C86   C134  S    
O8    Zn4   S    
C48   H26   S    
C119  C121  S    
C31   H119  S    
C147  H53   S    
C100  C114  S    
C121  O20   S    
O7    Zn3   S    
C38   H141  S    
C91   C140  S    
C70   C74   S    
C85   C99   S    
C135  N7    T    
C29   H114  S    
C103  C105  T    
C30   H117  S    
C92   C141  S    
C26   H104  S    
C21   H91   S    
C28   H110  S    
C40   H5    S    
C69   C79   S    
C15   H71   S    
C148  H56   S    
O56   Zn4   S    
C52   O58   S    
C122  O22   S    
C12   H63   S    
C63   C64   S    
C26   H105  S    
C45   H21   S    
C56   C82   S    
C92   O16   S    
C68   C76   S    
C60   O39   S    
C6    C96   S    
C48   H27   S    
C44   O50   S    
C51   H38   S    
C147  O15   S    
C92   C110  S    
O62   Zn3   S    
C66   O42   S    
N1    Zn1   S    
C82   O6    A    
C44   H17   S    
C27   H106  S    
C73   O53   S    
C4    C93   S    
C129  N28   T    
C52   H40   S    
C90   C109  S    
C49   H31   S    
C20   O26   S    
C48   H28   S    
C3    H61   S    
C34   H131  S    
C30   O36   S    
C32   H122  S    
C49   O54   S    
C62   O46   S    
C108  C121  S    
C12   O18   S    
C58   O37   S    
O3    Zn1   S    
C78   N22   T    
C91   C110  S    
C90   O14   S    
C112  C117  S    
C51   O57   S    
C32   O38   S    
C14   H66   S    
C45   O51   S    
C36   H132  S    
C125  N25   T    
C32   H125  S    
C71   O54   S    
C137  N9    T    
C67   C73   S    
C19   H84   S    
C148  H58   S    
C37   O42   S    
C101  C114  S    
C16   H73   S    
C42   H10   S    
C79   N23   T    
C12   H65   S    
C123  O26   S    
C77   N12   T    
C87   C135  S    
C88   C136  S    
C51   H36   S    
C98   C113  S    
C33   H127  S    
C58   C59   S    
C28   O33   S    
C89   C95   S    
C73   O55   S    
C96   C128  S    
C25   H102  S    
C61   O34   A    
N22   Zn3   S    
C20   H87   S    
C98   C130  S    
C57   C84   S    
C91   C97   S    
C10   C100  S    
C53   H43   S    
C47   H25   S    
C18   H80   S    
C93   C111  S    
C31   O37   S    
C34   H129  S    
C89   C137  S    
C41   O47   S    
C32   H124  S    
C118  O32   S    
C22   H94   S    
C49   H30   S    
C42   O48   S    
C54   H47   S    
C61   O23   A    
C39   H144  S    
C18   H81   S    
C37   H138  S    
C99   C113  S    
C1    O1    A    
C63   O41   S    
C63   O51   S    
O23   Zn1   S    
C145  O13   S    
C74   O59   S    
C88   O11   S    
C59   O36   S    
C14   O19   S    
C68   C71   S    
C65   C69   S    
C69   C75   S    
C47   O52   S    
C86   C98   S    
C93   C125  S    
C29   O35   S    
C142  H68   S    
C75   O60   S    
C74   C75   S    
C133  N5    T    
C16   H75   S    
C40   O46   S    
C44   H16   S    
C23   H96   S    
C27   H107  S    
C18   O24   S    
C85   C133  S    
C43   H15   S    
C23   H97   S    
C70   C78   S    
C80   O2    A    
C86   C107  S    
O64   Zn1   S    
C90   C139  S    
C2    C46   T    
C81   O4    A    
C96   C112  S    
C3    H60   S    
C35   C138  T    
C21   O27   S    
C109  C122  S    
C55   H50   S    
C7    N17   T    
C83   O62   A    
C89   C109  S    
C143  O10   S    
C142  H57   S    
C124  N24   T    
C54   O60   S    
C1    O12   A    
O12   Zn2   S    
C87   C108  S    
C31   H121  S    
C29   H113  S    
C14   H69   S    
C15   O20   S    
C30   H118  S    
C64   C70   S    
C113  C116  S    
C128  N27   T    
C9    C99   S    
C54   H45   S    
C39   H142  S    
C143  H90   S    
N12   Zn2   S    
C65   O49   S    
C19   H85   S    
C45   H20   S    
C38   H139  S    
C115  O28   S    
C83   C104  S    
C144  H123  S    
C12   H64   S    
C43   H12   S    
C126  N26   T    
C87   O13   S    
C6    N16   T    
C17   O22   S    
C40   H3    S    
C50   H32   S    
C25   H100  S    
C51   H37   S    
C59   C68   S    
C46   C81   S    
C17   H78   S    
O5    Zn3   S    
O34   Zn2   S    
O6    Zn4   S    
C131  N3    T    
C44   H18   S    
O4    Zn2   S    
C45   H19   S    
C117  O30   S    
C140  N11   T    
C25   H99   S    
C65   C66   S    
C20   H86   S    
C84   O7    A    
C50   H33   S    
C148  O16   S    
C88   C100  S    
C142  O9    S    
C101  C131  S    
C16   O21   S    
C47   H22   S    
C41   H6    S    
C38   O43   S    
C31   H120  S    
C147  H54   S    
C43   H14   S    
C114  C119  S    
C121  O21   S    
O1    Zn1   S    
C60   O44   S    
C91   O17   S    
C61   C102  S    
C117  C123  S    
C119  O35   S    
C25   O30   S    
C17   H76   S    
C95   C111  S    
C144  H134  S    
C27   O32   S    
C29   H115  S    
C14   H67   S    
C30   H116  S    
C39   O44   S    
C144  H112  S    
C26   H103  S    
C58   O47   S    
C42   H9    S    
C136  N8    T    
C21   H92   S    
C28   H109  S    
C115  C122  S    
C111  C115  S    
C80   O64   A    
C41   H7    S    
C15   H72   S    
C85   C107  S    
C19   H83   S    
C84   O8    A    
C23   O29   S    
