data_mof_unit_32814.cif
_audit_creation_date              2012-12-10T16:58:26-0500
_audit_creation_method            fapswitch 2.2
_symmetry_space_group_name_H-M    P1
_symmetry_Int_Tables_number       1
_space_group_crystal_system       triclinic
_cell_length_a                    7.77942
_cell_length_b                    8.554428
_cell_length_c                    23.416482
_cell_angle_alpha                 91.652791
_cell_angle_beta                  85.228907
_cell_angle_gamma                 93.522969
_cell_volume                      1549.55587847

loop_
_atom_site_label
_atom_site_type_symbol
_atom_type_description
_atom_site_fract_x
_atom_site_fract_y
_atom_site_fract_z
_atom_type_partial_charge
C1    C     C_R   0.545635 0.794672 0.498552 0.959469
C2    C     C_R   0.454365 0.205328 0.501447 0.959224
C3    C     C_R   0.662875 0.486963 0.756580 -0.113696
C4    C     C_R   0.646570 0.484500 0.233227 -0.108501
C5    C     C_R   0.660106 0.484533 0.697487 -0.188052
C6    C     C_R   0.648900 0.483213 0.292240 -0.180756
C7    C     C_R   0.504744 0.503020 0.672779 -0.136232
C8    C     C_R   0.495795 0.500362 0.327233 -0.146221
C9    C     C_R   0.352465 0.525042 0.707820 -0.192466
C10   C     C_R   0.340224 0.518835 0.302501 -0.181872
C11   C     C_R   0.353810 0.528604 0.767134 0.516213
C12   C     C_R   0.336451 0.521122 0.243263 0.517767
C13   C     C_R   0.511107 0.508307 0.791412 0.165990
C14   C     C_R   0.491935 0.503242 0.208599 0.161795
C15   C     C_2   0.569816 0.958066 0.497665 -0.359661
C16   C     C_2   0.430184 0.041933 0.502332 -0.360160
C17   C     C_R   0.501399 0.500667 0.610613 0.888583
C18   C     C_R   0.498660 0.499739 0.389388 0.890442
C19   C     C_R   0.450303 0.367137 0.119349 0.544878
C20   C     C_R   0.567646 0.640834 0.880187 0.555661
C21   C     C_R   0.547818 0.637722 0.120113 0.552567
C22   C     C_R   0.470176 0.370235 0.879428 0.552485
C23   C     C_R   0.556424 0.640094 0.060451 -0.039275
C24   C     C_R   0.466866 0.366521 0.938969 -0.039518
C25   C     C_R   0.509049 0.502236 0.029771 -0.097327
C26   C     C_R   0.515053 0.504175 0.969629 -0.098249
C27   C     C_R   0.455058 0.362944 0.059220 -0.058337
C28   C     C_R   0.568189 0.643686 0.940194 -0.058674
C29   C     C_R   0.611356 0.777204 0.031283 -0.255375
C30   C     C_R   0.414396 0.228778 0.968081 -0.252291
C31   C     C_R   0.618102 0.780849 0.971363 0.454194
C32   C     C_R   0.407653 0.225129 0.027997 0.453407
H1    H     H_    0.648848 0.882609 0.055074 0.214339
H2    H     H_    0.377407 0.123242 0.944280 0.214730
H3    H     H_    0.782874 0.471482 0.775544 0.192100
H4    H     H_    0.765155 0.470824 0.206338 0.185695
H5    H     H_    0.779256 0.467665 0.671273 0.192311
H6    H     H_    0.770459 0.468696 0.310340 0.194354
H7    H     H_    0.231667 0.540273 0.689286 0.184667
H8    H     H_    0.221003 0.532416 0.329085 0.195033
H9    H     H_    0.701821 0.008790 0.493165 0.191832
H10   H     H_    0.298179 0.991209 0.506832 0.191842
N1    N     N_R   0.495236 0.503045 0.147821 -0.386166
N2    N     N_R   0.517671 0.506192 0.851851 -0.385597
N3    N     N_2   0.950330 0.457950 0.484560 0.176154
N4    N     N_2   0.049670 0.542050 0.515440 0.176020
O1    O     O_R   0.389250 0.738570 0.503790 -0.634790
O2    O     O_R   0.610750 0.261430 0.496210 -0.635160
O3    O     O_R   0.678390 0.711620 0.493890 -0.576112
O4    O     O_R   0.321610 0.288380 0.506110 -0.576479
O5    O     O_R   0.355400 0.513520 0.588790 -0.645048
O6    O     O_R   0.644600 0.486480 0.411210 -0.640185
O7    O     O_R   0.644550 0.486570 0.578900 -0.578420
O8    O     O_R   0.355450 0.513430 0.421100 -0.581436
O9    O     O_2   0.401684 0.237562 0.149553 -0.438659
O10   O     O_2   0.614440 0.770865 0.850036 -0.437494
O11   O     O_2   0.591263 0.768715 0.150497 -0.500401
O12   O     O_2   0.424881 0.239726 0.849062 -0.499146
Zn1   Zn    Zn3+2 0.306930 0.518000 0.506610 1.044557
Zn2   Zn    Zn3+2 0.693070 0.482000 0.493390 1.046360
O13   O     O_3   0.672780 0.916871 0.943010 -0.689358
H11   H     H_    0.703456 0.000411 0.971271 0.331673
O14   O     O_3   0.354214 0.088770 0.056317 -0.690278
H12   H     H_    0.324785 0.004899 0.028029 0.330727
O15   O     O_3   0.200131 0.551910 0.799359 -0.750556
H13   H     H_    0.220050 0.558639 0.840552 0.339970
O16   O     O_3   0.180036 0.541449 0.221373 -0.756919
H14   H     H_    0.196479 0.546754 0.179104 0.342923
O17   O     O_3   0.030622 0.357422 0.448193 -0.660024
H15   H     H_    0.936738 0.302403 0.428020 0.336016
O18   O     O_3   0.969380 0.642578 0.551807 -0.660602
H16   H     H_    0.063264 0.697593 0.571981 0.335515

loop_
_geom_bond_atom_site_label_1
_geom_bond_atom_site_label_2
_ccdc_geom_bond_type
C22   O12   S    
C11   O15   S    
C6    H6    S    
N3    Zn2   S    
C21   O11   S    
C1    C15   S    
C5    H5    S    
N4    Zn1   S    
C25   C27   A    
C2    C16   S    
C31   O13   S    
C26   C28   A    
C3    C13   A    
C3    H3    S    
C20   O10   S    
C17   O5    A    
C2    O4    A    
C27   C32   A    
C3    C5    A    
C18   O6    A    
O18   H16   S    
C29   C31   A    
N3    N4    D    
C30   C32   A    
C11   C13   A    
C9    C11   A    
N4    O18   S    
O17   H15   S    
O3    Zn2   S    
C10   C12   A    
O4    Zn1   S    
C23   C29   A    
C4    C6    A    
C20   N2    A    
O7    Zn2   S    
C24   C26   A    
O2    Zn2   S    
C8    C18   S    
C24   C30   A    
O8    Zn1   S    
C21   C23   A    
C4    C14   A    
O13   H11   S    
C8    C10   A    
C12   O16   S    
C22   C24   A    
O5    Zn1   S    
C30   H2    S    
O14   H12   S    
O1    Zn1   S    
C15   C16   D    
C20   C28   A    
C17   O7    A    
C9    H7    S    
C23   C25   A    
C19   C27   A    
C4    H4    S    
C15   H9    S    
C10   H8    S    
O15   H13   S    
C1    O3    A    
C19   O9    S    
C28   C31   A    
C7    C9    A    
C18   O8    A    
C5    C7    A    
C1    O1    A    
C6    C8    A    
O6    Zn2   S    
C2    O2    A    
C25   C26   A    
C21   N1    A    
C16   H10   S    
N3    O17   S    
C32   O14   S    
C13   N2    S    
C22   N2    A    
O16   H14   S    
C29   H1    S    
C12   C14   A    
C14   N1    S    
C7    C17   S    
C19   N1    A    
