data_mof_unit_16668.cif
_audit_creation_date              2012-12-10T17:48:52-0500
_audit_creation_method            fapswitch 2.2
_symmetry_space_group_name_H-M    P1
_symmetry_Int_Tables_number       1
_space_group_crystal_system       triclinic
_cell_length_a                    10.795166
_cell_length_b                    14.71517
_cell_length_c                    14.664451
_cell_angle_alpha                 64.774495
_cell_angle_beta                  103.913434
_cell_angle_gamma                 101.977406
_cell_volume                      2030.82242542

loop_
_atom_site_label
_atom_site_type_symbol
_atom_type_description
_atom_site_fract_x
_atom_site_fract_y
_atom_site_fract_z
_atom_type_partial_charge
C1    C     C_R   0.476942 0.120352 0.311082 0.885152
C2    C     C_3   0.878104 0.997183 0.500377 -0.207745
C3    C     C_3   0.958784 0.979186 0.610078 0.107950
C4    C     C_3   0.934050 0.103396 0.424283 0.070300
C5    C     C_R   0.451153 0.189655 0.200727 -0.260981
C6    C     C_R   0.530260 0.811195 0.798406 -0.328276
C7    C     C_R   0.359865 0.219718 0.021878 0.411961
C8    C     C_R   0.397563 0.151782 0.123997 0.277749
C9    C     C_R   0.475676 0.295527 0.172963 0.342538
C10   C     C_R   0.427340 0.363104 0.073364 -0.074161
C11   C     C_R   0.377489 0.324932 0.996481 -0.148904
C12   C     C_R   0.260769 0.999859 0.501091 0.914217
C13   C     C_R   0.433537 0.468785 0.046919 -0.003527
C14   C     C_R   0.420872 0.536502 0.943010 -0.020739
C15   C     C_R   0.360349 0.496640 0.867921 0.455279
C16   C     C_R   0.342791 0.392474 0.895061 -0.156920
C17   C     C_R   0.440403 0.508430 0.120147 -0.212601
C18   C     C_R   0.454806 0.612465 0.093915 0.528082
C19   C     C_R   0.479889 0.679957 0.995740 -0.190705
C20   C     C_R   0.465187 0.641168 0.919547 -0.175208
C21   C     C_R   0.521467 0.784023 0.973160 0.489171
C22   C     C_R   0.550326 0.848629 0.875708 0.226536
C23   C     C_R   0.525018 0.879807 0.688686 0.821642
C24   C     C_R   0.504426 0.705921 0.825138 0.422479
C25   C     C_R   0.765988 0.314248 0.603568 0.383587
C26   C     C_R   0.711829 0.221339 0.598098 -0.118127
C27   C     C_R   0.504322 0.272474 0.542543 0.662996
C28   C     C_R   0.554898 0.374702 0.527993 -0.246619
C29   C     C_R   0.688553 0.394135 0.562600 -0.071027
C30   C     C_R   0.476707 0.456205 0.483647 -0.074361
C31   C     C_R   0.529228 0.551606 0.487899 -0.071602
C32   C     C_R   0.664747 0.571791 0.508028 0.259830
C33   C     C_R   0.742833 0.493104 0.552435 0.471589
C34   C     C_R   0.739798 0.999278 0.499792 0.830152
C35   C     C_R   0.350720 0.448603 0.427591 0.343676
C36   C     C_R   0.266885 0.518788 0.406907 0.431432
C37   C     C_R   0.315259 0.610065 0.420491 -0.084741
C38   C     C_R   0.446724 0.627382 0.461434 -0.137535
C39   C     C_R   0.236313 0.687458 0.387410 0.372864
C40   C     C_R   0.291636 0.782374 0.388455 0.483432
C41   C     C_R   0.489331 0.718459 0.478627 0.022508
C42   C     C_3   0.036113 0.916166 0.464336 0.274969
C43   C     C_3   0.891070 0.914125 0.461960 0.700756
C44   C     C_3   0.104369 0.988334 0.608574 0.304009
C45   C     C_3   0.078625 0.104005 0.423165 0.104966
C46   C     C_3   0.123299 0.999144 0.501620 -0.291384
Cu1   Cu    Cu3+1 0.465900 0.918260 0.475680 1.015096
Cu2   Cu    Cu3+1 0.534100 0.081740 0.524320 0.993938
H1    H     H_    0.149782 0.060985 0.615513 0.074304
H2    H     H_    0.946624 0.040414 0.632032 0.132613
H3    H     H_    0.298868 0.364779 0.835648 0.209329
H4    H     H_    0.047360 0.946808 0.383116 0.197087
H5    H     H_    0.424968 0.459652 0.196833 0.199819
H6    H     H_    0.581210 0.727870 0.524934 0.205796
H7    H     H_    0.772250 0.162185 0.623760 0.159129
H8    H     H_    0.137192 0.163230 0.449859 0.199289
H9    H     H_    0.877369 0.118500 0.345897 0.191488
N1    N     N_R   0.585360 0.204570 0.560800 -0.230059
N2    N     N_R   0.414550 0.795430 0.439160 -0.249503
O1    O     O_R   0.455060 0.022100 0.338110 -0.552118
O2    O     O_R   0.512640 0.160150 0.379180 -0.538028
O3    O     O_R   0.288900 0.930980 0.479450 -0.539755
O4    O     O_R   0.346480 0.069030 0.520520 -0.556583
O5    O     O_R   0.487360 0.839850 0.620820 -0.536588
O6    O     O_R   0.544940 0.977900 0.661890 -0.581861
O7    O     O_R   0.653520 0.930970 0.479480 -0.566701
O8    O     O_R   0.711100 0.069020 0.520550 -0.567102
O9    O     O_3   0.075423 0.817928 0.499471 -0.553851
C47   C     C_3   0.100903 0.763998 0.606143 -0.057832
H10   H     H_    0.032914 0.772188 0.646972 0.229037
H11   H     H_    0.202453 0.783577 0.636688 0.185769
H12   H     H_    0.090676 0.682463 0.621740 0.161334
O10   O     O_3   0.922301 0.181162 0.452389 -0.742757
H13   H     H_    0.935069 0.246009 0.392790 0.324754
O11   O     O_3   0.522635 0.665878 0.759910 -0.523826
C48   C     C_3   0.651780 0.647135 0.783119 -0.261202
H14   H     H_    0.675472 0.590565 0.862803 0.156228
H15   H     H_    0.718751 0.718199 0.771075 0.151772
H16   H     H_    0.666238 0.615350 0.730609 0.186611
O12   O     O_3   0.604775 0.946251 0.860685 -0.710569
H17   H     H_    0.674661 0.963071 0.820877 0.331844
O13   O     O_3   0.447897 0.646963 0.166355 -0.547466
C49   C     C_3   0.317218 0.651577 0.161864 -0.277191
H18   H     H_    0.268061 0.693187 0.082488 0.136086
H19   H     H_    0.311406 0.693428 0.207758 0.195202
H20   H     H_    0.265388 0.574305 0.194270 0.190510
O14   O     O_3   0.309523 0.183277 0.945959 -0.600231
C50   C     C_3   0.175071 0.160752 0.941153 -0.364072
H21   H     H_    0.129134 0.229491 0.920918 0.183712
H22   H     H_    0.149477 0.100932 0.014305 0.185448
H23   H     H_    0.134759 0.131723 0.880234 0.185927
O15   O     O_3   0.385075 0.048604 0.150253 -0.730612
H24   H     H_    0.356360 0.033510 0.088339 0.345630
O16   O     O_3   0.553246 0.333019 0.242349 -0.575005
C51   C     C_3   0.682140 0.345233 0.230128 -0.227423
H25   H     H_    0.696979 0.401258 0.152295 0.154476
H26   H     H_    0.713504 0.271734 0.245822 0.144468
H27   H     H_    0.744209 0.374562 0.286275 0.200756
O17   O     O_3   0.303325 0.555023 0.770672 -0.686935
H28   H     H_    0.280593 0.616070 0.772368 0.317158
O18   O     O_3   0.551892 0.819079 0.050908 -0.518604
C52   C     C_3   0.465659 0.886950 0.034578 -0.177003
H29   H     H_    0.365063 0.863791 0.004031 0.094196
H30   H     H_    0.498442 0.964878 0.983256 0.207287
H31   H     H_    0.464749 0.888677 0.109288 0.187760
O19   O     O_3   0.874502 0.513556 0.578437 -0.628662
H32   H     H_    0.895830 0.581290 0.580985 0.363750
O20   O     O_3   0.217224 0.860518 0.338051 -0.734230
H33   H     H_    0.274201 0.922921 0.309242 0.384701
O21   O     O_3   0.139182 0.502982 0.364624 -0.655047
H34   H     H_    0.115568 0.431150 0.374004 0.352276
O22   O     O_3   0.894398 0.328636 0.644557 -0.648169
H35   H     H_    0.933198 0.265035 0.669093 0.306548
O23   O     O_3   0.375481 0.238809 0.544958 -0.550822
C53   C     C_3   0.350375 0.225494 0.640285 -0.288749
H36   H     H_    0.377405 0.296192 0.654425 0.165092
H37   H     H_    0.400648 0.163152 0.703717 0.167840
H38   H     H_    0.245671 0.205133 0.640324 0.177171
O24   O     O_3   0.820353 0.942666 0.359752 -0.610525
C54   C     C_3   0.828869 0.881179 0.309458 -0.171980
H39   H     H_    0.730950 0.860943 0.272598 0.193048
H40   H     H_    0.873093 0.810668 0.359838 0.228861
H41   H     H_    0.886312 0.925691 0.247610 0.163265
O25   O     O_3   0.725365 0.668348 0.468163 -0.715105
H42   H     H_    0.672152 0.705316 0.401865 0.342126
O26   O     O_3   0.311910 0.383425 0.378000 -0.754225
H43   H     H_    0.388949 0.370148 0.362310 0.342760
O27   O     O_3   0.107301 0.671469 0.348268 -0.639398
H44   H     H_    0.061033 0.725789 0.342193 0.368609
O28   O     O_3   0.841555 0.814741 0.521896 -0.673887
H45   H     H_    0.797920 0.812631 0.574660 0.341106
O29   O     O_3   0.164525 0.906945 0.689911 -0.574958
C55   C     C_3   0.210775 0.927880 0.778330 -0.278623
H46   H     H_    0.239981 0.857294 0.842938 0.168464
H47   H     H_    0.135640 0.953435 0.799275 0.171005
H48   H     H_    0.297063 0.985134 0.767524 0.170376
O30   O     O_3   0.918420 0.885931 0.684919 -0.738611
H49   H     H_    0.840912 0.894963 0.703969 0.290937
O31   O     O_3   0.094277 0.122586 0.322732 -0.600679
C56   C     C_3   0.153115 0.221661 0.273775 -0.273720
H50   H     H_    0.254268 0.230594 0.312145 0.204625
H51   H     H_    0.098345 0.279044 0.271549 0.175124
H52   H     H_    0.154893 0.234921 0.193714 0.174074

loop_
_geom_bond_atom_site_label_1
_geom_bond_atom_site_label_2
_ccdc_geom_bond_type
C44   H1    S    
O14   C50   S    
O26   H43   S    
C35   O26   S    
O10   H13   S    
C32   O25   S    
C19   C20   A    
C16   H3    S    
O27   H44   S    
C34   O7    A    
Cu1   O3    S    
O23   C53   S    
C51   H27   S    
C7    C8    A    
C45   C46   S    
C7    C11   A    
O18   C52   S    
C30   C35   A    
C49   H18   S    
C1    C5    S    
C36   C37   A    
C19   C21   A    
C48   H15   S    
C30   C31   A    
O19   H32   S    
C15   C16   A    
C6    C22   A    
C29   C33   A    
C45   O31   S    
O20   H33   S    
C52   H31   S    
C18   C19   A    
C42   C46   S    
C47   H11   S    
C20   C24   A    
O21   H34   S    
C25   O22   S    
Cu1   O1    S    
C7    O14   S    
C51   H25   S    
C45   H8    S    
C54   H40   S    
O9    C47   S    
C53   H37   S    
C4    H9    S    
C55   H48   S    
C48   H16   S    
C3    O30   S    
Cu2   O6    S    
C9    C10   A    
Cu1   O7    S    
C54   H41   S    
C40   O20   S    
C21   O18   S    
C2    C34   S    
C40   N2    A    
C21   C22   A    
C26   H7    S    
C42   O9    S    
C52   H29   S    
O22   H35   S    
C3    H2    S    
C44   C46   S    
C4    C45   S    
C25   C29   A    
C3    C44   S    
Cu1   Cu2   S    
C14   C20   A    
C56   H50   S    
C41   N2    A    
C38   C41   A    
C12   C46   S    
C1    O1    A    
C39   C40   A    
C12   O4    A    
O29   C55   S    
Cu2   O4    S    
C25   C26   A    
C27   N1    A    
C35   C36   A    
C47   H12   S    
C2    C4    S    
O11   C48   S    
C5    C9    A    
C37   C38   A    
C12   O3    A    
C11   C16   A    
C31   C32   A    
C50   H23   S    
C2    C43   S    
O24   C54   S    
C53   H38   S    
C6    C24   A    
C17   C18   A    
O16   C51   S    
C48   H14   S    
C56   H52   S    
C52   H30   S    
C26   N1    A    
C4    O10   S    
C8    O15   S    
C23   O5    A    
C49   H19   S    
C50   H22   S    
C36   O21   S    
C55   H46   S    
C42   C43   S    
C17   H5    S    
Cu1   O5    S    
C54   H39   S    
C28   C29   A    
C39   O27   S    
C43   O28   S    
C33   O19   S    
C15   O17   S    
O12   H17   S    
C10   C13   A    
C1    O2    A    
C34   O8    A    
C5    C8    A    
O31   C56   S    
C51   H26   S    
C24   O11   S    
Cu2   N1    S    
C56   H51   S    
C44   O29   S    
O30   H49   S    
O17   H28   S    
C13   C17   A    
C32   C33   A    
C23   O6    A    
C31   C38   A    
C28   C30   A    
O28   H45   S    
C22   O12   S    
C37   C39   A    
Cu2   O2    S    
C6    C23   S    
O15   H24   S    
C18   O13   S    
C2    C3    S    
Cu2   O8    S    
C47   H10   S    
C41   H6    S    
C10   C11   A    
Cu1   N2    S    
C27   O23   S    
C49   H20   S    
C50   H21   S    
O13   C49   S    
C42   H4    S    
C27   C28   A    
C55   H47   S    
C14   C15   A    
C13   C14   A    
C9    O16   S    
C53   H36   S    
C43   O24   S    
O25   H42   S    
