data_mof_unit_16915.cif
_audit_creation_date              2012-12-10T17:17:30-0500
_audit_creation_method            fapswitch 2.2
_symmetry_space_group_name_H-M    P1
_symmetry_Int_Tables_number       1
_space_group_crystal_system       triclinic
_cell_length_a                    10.188897
_cell_length_b                    10.844952
_cell_length_c                    12.269266
_cell_angle_alpha                 90.660091
_cell_angle_beta                  109.200607
_cell_angle_gamma                 96.041772
_cell_volume                      1271.66627704

loop_
_atom_site_label
_atom_site_type_symbol
_atom_type_description
_atom_site_fract_x
_atom_site_fract_y
_atom_site_fract_z
_atom_type_partial_charge
C1    C     C_R   0.050443 0.732194 0.490017 0.956050
C2    C     C_R   0.202373 0.509073 0.839566 -0.249879
C3    C     C_2   0.074369 0.863492 0.475892 -0.383783
C4    C     C_R   0.132784 0.507516 0.714509 0.902173
C5    C     C_2   0.971802 0.932009 0.472280 -0.141698
C6    C     C_2   0.911246 0.134766 0.499195 -0.377202
C7    C     C_2   0.994401 0.063897 0.469170 -0.150629
C8    C     C_2   0.432714 0.511172 0.509821 -0.128384
C9    C     C_2   0.567339 0.488581 0.490411 -0.147918
C10   C     C_R   0.946586 0.267447 0.504840 0.930128
C11   C     C_R   0.865683 0.486977 0.285971 0.870097
C12   C     C_R   0.418515 0.489092 0.994386 0.091370
C13   C     C_R   0.722881 0.324653 0.993999 -0.223308
C14   C     C_R   0.787161 0.460922 0.164740 -0.063309
C15   C     C_R   0.156888 0.580968 0.914262 0.530144
C16   C     C_R   0.241825 0.604052 0.029198 -0.234254
C17   C     C_R   0.372139 0.561157 0.068529 -0.284624
C18   C     C_3   0.931303 0.575380 0.908298 -0.267098
C19   C     C_R   0.324703 0.450122 0.884066 0.011769
C20   C     C_R   0.555087 0.454042 0.026372 0.103457
C21   C     C_R   0.588737 0.363672 0.958361 0.170291
C22   C     C_R   0.487131 0.312034 0.857453 -0.251220
C23   C     C_R   0.356607 0.354790 0.820443 -0.165517
C24   C     C_R   0.659905 0.508310 0.123777 -0.266047
C25   C     C_R   0.821313 0.371261 0.098783 -0.222407
H1    H     H_    0.920472 0.333423 0.130553 0.159773
H2    H     H_    0.749361 0.254733 0.943478 0.141157
H3    H     H_    0.643083 0.584650 0.172973 0.150433
H4    H     H_    0.432852 0.583073 0.158164 0.161335
H5    H     H_    0.209394 0.660445 0.087005 0.161073
H6    H     H_    0.280182 0.310937 0.742413 0.169850
H7    H     H_    0.085308 0.103049 0.447948 0.187307
H8    H     H_    0.956922 0.586029 0.003543 0.159433
H9    H     H_    0.912347 0.475252 0.879826 0.160843
H10   H     H_    0.832280 0.616151 0.867550 0.186690
H11   H     H_    0.871997 0.891769 0.478066 0.189615
H12   H     H_    0.820636 0.095183 0.520458 0.149842
H13   H     H_    0.173944 0.904170 0.470163 0.148023
H14   H     H_    0.564831 0.415504 0.428348 0.168070
H15   H     H_    0.435237 0.584199 0.571931 0.168650
H16   H     H_    0.684627 0.621801 0.603551 0.168441
H17   H     H_    0.315414 0.378076 0.396566 0.159521
H18   H     H_    0.509186 0.240080 0.806122 0.147633
N1    N     N_2   0.313640 0.446500 0.454900 -0.194055
N2    N     N_2   0.686360 0.553430 0.545150 -0.189944
O1    O     O_R   0.936910 0.692950 0.509080 -0.602834
O2    O     O_R   0.138320 0.658600 0.480130 -0.610687
O3    O     O_R   0.002900 0.525670 0.675280 -0.556572
O4    O     O_R   0.204310 0.491320 0.646330 -0.615473
O5    O     O_R   0.861680 0.341400 0.519870 -0.613398
O6    O     O_R   0.063090 0.307050 0.490920 -0.619217
O7    O     O_R   0.795690 0.508680 0.353670 -0.611651
O8    O     O_R   0.997100 0.474330 0.324720 -0.615423
O9    O     O_3   0.036885 0.639181 0.872534 -0.598912
Zn1   Zn    Zn3+2 0.865520 0.522940 0.519330 0.954351
Zn2   Zn    Zn3+2 0.134480 0.477060 0.480670 0.927920

loop_
_geom_bond_atom_site_label_1
_geom_bond_atom_site_label_2
_ccdc_geom_bond_type
O1    Zn1   S    
C6    C10   S    
O3    Zn1   S    
C2    C4    S    
C15   O9    S    
C9    N2    D    
C6    C7    D    
C11   O7    A    
O4    Zn2   S    
C17   H4    S    
C18   H10   S    
N1    Zn2   S    
C19   C23   A    
C22   H18   S    
C11   O8    A    
O7    Zn1   S    
C4    O4    A    
C12   C20   A    
C2    C19   A    
C6    H12   S    
C13   C21   A    
C21   C22   A    
C12   C17   A    
C2    C15   A    
C18   H9    S    
C13   C25   A    
C16   C17   A    
H17   N1    S    
C10   O6    A    
C12   C19   A    
C1    O2    A    
C11   C14   S    
C14   C25   A    
C8    N1    D    
C18   H8    S    
C1    O1    A    
C18   O9    S    
C16   H5    S    
C15   C16   A    
C10   O5    A    
C5    H11   S    
C24   H3    S    
C9    H14   S    
C20   C21   A    
N2    Zn1   S    
O6    Zn2   S    
C4    O3    A    
O8    Zn2   S    
C14   C24   A    
C5    C7    S    
H16   N2    S    
C22   C23   A    
O2    Zn2   S    
C7    H7    S    
C8    H15   S    
C3    C5    D    
C25   H1    S    
C20   C24   A    
C13   H2    S    
O5    Zn1   S    
C3    H13   S    
C8    C9    S    
C1    C3    S    
C23   H6    S    
