data_mof_unit_57887.cif
_audit_creation_date              2012-12-11T15:08:32-0500
_audit_creation_method            fapswitch 2.2
_symmetry_space_group_name_H-M    P1
_symmetry_Int_Tables_number       1
_space_group_crystal_system       triclinic
_cell_length_a                    26.796952
_cell_length_b                    7.093409
_cell_length_c                    11.861831
_cell_angle_alpha                 89.453646
_cell_angle_beta                  102.431124
_cell_angle_gamma                 87.385948
_cell_volume                      2199.13262093

loop_
_atom_site_label
_atom_site_type_symbol
_atom_type_description
_atom_site_fract_x
_atom_site_fract_y
_atom_site_fract_z
_atom_type_partial_charge
O1    O     O_R   0.437360 0.505910 0.042120 -0.537017
O2    O     O_R   0.562640 0.005910 0.957880 -0.534417
O3    O     O_R   0.542480 0.176660 0.157100 -0.543557
O4    O     O_R   0.457520 0.676660 0.842900 -0.544319
C1    C     C_R   0.558712 0.339942 0.195591 0.686026
C2    C     C_R   0.441329 0.847887 0.804788 0.687629
O5    O     O_R   0.436520 0.176250 0.054800 -0.536355
O6    O     O_R   0.563480 0.676250 0.945200 -0.538430
O7    O     O_R   0.455920 0.005040 0.854840 -0.539554
O8    O     O_R   0.544080 0.505040 0.145160 -0.541375
C3    C     C_R   0.417617 0.348897 0.066856 0.686518
C4    C     C_R   0.582639 0.840882 0.933733 0.686490
O9    O     O_3   0.506490 0.338900 0.934520 -0.373042
O10   O     O_3   0.493510 0.838900 0.065480 -0.374332
V1    V     V_3+5 0.498800 0.064400 0.012150 1.405775
V2    V     V_3+5 0.501200 0.564400 0.987850 1.403545
C5    C     C_R   0.689533 0.630862 0.813604 -0.206752
C6    C     C_R   0.311720 0.573670 0.189396 -0.203755
H1    H     H_    0.783616 0.521509 0.808581 0.130538
H2    H     H_    0.218206 0.690834 0.194179 0.132215
H3    H     H_    0.694651 0.535592 0.745810 0.133320
H4    H     H_    0.307043 0.666971 0.258588 0.135339
C7    C     C_R   0.633970 0.829336 0.903650 -0.084663
C8    C     C_R   0.366406 0.375527 0.096207 -0.082708
C9    C     C_R   0.864162 0.989138 0.197918 -0.170568
C10   C     C_R   0.134744 0.225793 0.805969 -0.173983
C11   C     C_R   0.817434 0.027251 0.228332 -0.118506
C12   C     C_R   0.181342 0.178705 0.777007 -0.118388
C13   C     C_R   0.772326 0.965183 0.160372 -0.167041
C14   C     C_R   0.226915 0.239361 0.843913 -0.167561
C15   C     C_R   0.773263 0.855311 0.062189 0.074200
C16   C     C_R   0.226717 0.354626 0.940311 0.073443
C17   C     C_R   0.822102 0.802908 0.037089 0.069175
C18   C     C_R   0.178214 0.413796 0.964422 0.068930
C19   C     C_R   0.727437 0.801330 0.985155 0.063676
C20   C     C_R   0.272864 0.406767 0.016908 0.063874
C21   C     C_R   0.732291 0.678037 0.894894 0.126195
C22   C     C_R   0.268701 0.529849 0.107821 0.125042
C23   C     C_R   0.780165 0.614116 0.878843 -0.204174
C24   C     C_R   0.221181 0.598106 0.123696 -0.202946
C25   C     C_R   0.824221 0.681041 0.945518 -0.208652
C26   C     C_R   0.176732 0.536833 0.055761 -0.206822
C27   C     C_R   0.676995 0.865710 0.992253 -0.239780
C28   C     C_R   0.322929 0.339902 0.008907 -0.237019
C29   C     C_R   0.642482 0.729682 0.804941 0.009061
C30   C     C_R   0.358999 0.478447 0.194598 0.003400
C31   C     C_R   0.867391 0.879088 0.101893 -0.103685
C32   C     C_R   0.132380 0.342411 0.899536 -0.099744
H5    H     H_    0.669959 0.942544 0.065795 0.112774
H6    H     H_    0.329361 0.261066 0.935591 0.111152
H7    H     H_    0.898142 0.048144 0.249093 0.116665
H8    H     H_    0.100210 0.169344 0.755562 0.115002
H9    H     H_    0.737321 0.004241 0.187035 0.114962
H10   H     H_    0.261684 0.193586 0.818302 0.115611
H11   H     H_    0.815975 0.110615 0.303584 0.141837
H12   H     H_    0.182296 0.089953 0.703687 0.140622
H13   H     H_    0.859620 0.635457 0.922864 0.150608
H14   H     H_    0.141428 0.586128 0.077735 0.148706
C33   C     C_R   0.090861 0.841949 0.312197 -0.037735
C34   C     C_R   0.909606 0.377900 0.686245 -0.037971
C35   C     C_R   0.405660 0.870396 0.692344 -0.038183
C36   C     C_R   0.594399 0.331755 0.308866 -0.044231
C37   C     C_R   0.108650 0.703838 0.504664 -0.164421
C38   C     C_R   0.891966 0.497991 0.489313 -0.166037
C39   C     C_R   0.074359 0.749570 0.401089 -0.169100
C40   C     C_R   0.926104 0.461340 0.594341 -0.167072
C41   C     C_R   0.142054 0.888616 0.327368 -0.224446
C42   C     C_R   0.858575 0.329271 0.671968 -0.223921
C43   C     C_R   0.178227 0.839010 0.430907 0.081915
C44   C     C_R   0.822552 0.369416 0.566582 0.081934
C45   C     C_R   0.160378 0.745062 0.519738 0.132539
C46   C     C_R   0.840322 0.456481 0.475357 0.131561
C47   C     C_R   0.231463 0.875289 0.448113 0.055969
C48   C     C_R   0.769406 0.332140 0.550106 0.056795
C49   C     C_R   0.265956 0.815819 0.553844 0.050788
C50   C     C_R   0.734766 0.386331 0.443427 0.049728
C51   C     C_R   0.245980 0.722849 0.639045 -0.202470
C52   C     C_R   0.754634 0.473574 0.356131 -0.204848
C53   C     C_R   0.194300 0.689203 0.622210 -0.209696
C54   C     C_R   0.806341 0.506344 0.371767 -0.209259
C55   C     C_R   0.251294 0.969425 0.363106 -0.214618
C56   C     C_R   0.749832 0.242054 0.636846 -0.215198
C57   C     C_R   0.302733 0.003824 0.379704 -0.225766
C58   C     C_R   0.698324 0.210379 0.622099 -0.226052
C59   C     C_R   0.336448 0.950755 0.482573 0.145697
C60   C     C_R   0.664288 0.261527 0.519314 0.143445
C61   C     C_R   0.319066 0.855090 0.571496 0.082787
C62   C     C_R   0.681564 0.348884 0.427415 0.080503
C63   C     C_R   0.387217 0.001926 0.499068 -0.155321
C64   C     C_R   0.613227 0.216267 0.506161 -0.146422
C65   C     C_R   0.420013 0.975687 0.606121 -0.189716
C66   C     C_R   0.579891 0.238725 0.399623 -0.189876
C67   C     C_R   0.355608 0.808322 0.675312 -0.238168
C68   C     C_R   0.644857 0.389127 0.322628 -0.237820
H15   H     H_    0.180783 0.617199 0.690159 0.144814
H16   H     H_    0.819791 0.573749 0.302164 0.144946
H17   H     H_    0.346014 0.733023 0.746428 0.104331
H18   H     H_    0.654705 0.454180 0.248433 0.105722
H19   H     H_    0.457164 0.036369 0.621668 0.118544
H20   H     H_    0.542075 0.184269 0.387944 0.124524
H21   H     H_    0.316031 0.077515 0.312009 0.139026
H22   H     H_    0.685158 0.140946 0.691470 0.139558
H23   H     H_    0.094964 0.631352 0.572152 0.113054
H24   H     H_    0.905640 0.564793 0.419877 0.113397
H25   H     H_    0.035032 0.709809 0.389364 0.104121
H26   H     H_    0.965267 0.502553 0.605002 0.104844
H27   H     H_    0.152541 0.955172 0.254450 0.101343
H28   H     H_    0.847897 0.271023 0.747044 0.100941
H29   H     H_    0.269306 0.673803 0.720491 0.131500
H30   H     H_    0.731154 0.519094 0.274081 0.131874
H31   H     H_    0.228082 0.020503 0.282108 0.133561
H32   H     H_    0.773329 0.192184 0.717830 0.133352
H33   H     H_    0.400860 0.072126 0.430873 0.134282
H34   H     H_    0.599786 0.151897 0.576596 0.136213
O11   O     O_R   0.955980 0.206520 0.854760 -0.534973
O12   O     O_R   0.044020 0.706520 0.145240 -0.540534
O13   O     O_R   0.063490 0.536770 0.945200 -0.544203
O14   O     O_R   0.936510 0.036770 0.054800 -0.538007
C69   C     C_R   0.082861 0.364796 0.936150 0.681394
C70   C     C_R   0.916801 0.872127 0.063248 0.681387
O15   O     O_R   0.957530 0.536190 0.842880 -0.543580
O16   O     O_R   0.042470 0.036190 0.157120 -0.537923
O17   O     O_R   0.937350 0.707210 0.042130 -0.541915
O18   O     O_R   0.062650 0.207210 0.957870 -0.534274
C71   C     C_R   0.943373 0.371410 0.801915 0.683241
C72   C     C_R   0.056613 0.864174 0.197768 0.686833
O19   O     O_3   0.993540 0.373870 0.065440 -0.371818
O20   O     O_3   0.006460 0.873870 0.934560 -0.371234
V3    V     V_3+5 0.001200 0.648440 0.987860 1.406724
V4    V     V_3+5 0.998800 0.148440 0.012140 1.422534
C73   C     C_R   0.610829 0.757082 0.684146 0.075979
C74   C     C_R   0.636236 0.761243 0.590425 -0.132311
C75   C     C_R   0.609164 0.777680 0.476336 -0.076624
C76   C     C_R   0.556289 0.800378 0.452595 -0.113878
C77   C     C_R   0.530664 0.805237 0.543006 -0.166910
C78   C     C_R   0.557229 0.781156 0.658112 -0.147726
H35   H     H_    0.677540 0.754623 0.604378 0.118373
H36   H     H_    0.629376 0.778281 0.406556 0.120849
H37   H     H_    0.535020 0.814041 0.364064 0.122723
H38   H     H_    0.489669 0.816183 0.521387 0.145930
H39   H     H_    0.535510 0.776992 0.724535 0.099787
C79   C     C_R   0.393211 0.462236 0.312567 0.077246
C80   C     C_R   0.446626 0.466308 0.332473 -0.154570
C81   C     C_R   0.475847 0.454132 0.445500 -0.165045
C82   C     C_R   0.452903 0.442669 0.539914 -0.103142
C83   C     C_R   0.400065 0.441076 0.522101 -0.082932
C84   C     C_R   0.370528 0.447153 0.409923 -0.138608
H40   H     H_    0.465958 0.484449 0.262689 0.112789
H41   H     H_    0.516565 0.462169 0.461423 0.151593
H42   H     H_    0.476133 0.436582 0.626799 0.121495
H43   H     H_    0.381959 0.430119 0.594982 0.123488
H44   H     H_    0.329612 0.437262 0.399876 0.119396

loop_
_geom_bond_atom_site_label_1
_geom_bond_atom_site_label_2
_ccdc_geom_bond_type
C22   C24   A    
C37   C39   A    
O16   C72   A    
C7    C29   A    
C11   C13   A    
C58   H22   S    
O1    C3    A    
O2    C4    A    
O20   V3    S    
C26   H14   S    
C2    O7    A    
C45   C53   A    
C82   C83   A    
C12   H12   S    
O3    V1    S    
C77   C78   A    
C30   C79   S    
C69   O18   A    
C33   C72   S    
O5    C3    A    
C14   H10   S    
C4    C7    S    
C81   H41   S    
C48   C50   A    
C16   C20   A    
C2    C35   S    
C34   C71   S    
C19   C21   A    
C58   C60   A    
O13   C69   A    
H2    C24   S    
C60   C62   A    
C68   H18   S    
C80   C81   A    
C3    C8    S    
C46   C54   A    
C7    C27   A    
C47   C55   A    
C43   C45   A    
C33   C41   A    
O12   V3    S    
C55   H31   S    
C74   C75   A    
C18   C26   A    
C44   C48   A    
C15   C17   A    
C43   C47   A    
C63   C65   A    
C19   C27   A    
C9    C31   A    
C82   H42   S    
C70   O17   A    
C10   C32   A    
C24   C26   A    
C34   C40   A    
C75   H36   S    
O6    V2    S    
O12   C72   A    
O17   V3    S    
C47   C49   A    
C64   H34   S    
C77   H38   S    
C48   C56   A    
C6    C30   A    
C39   H25   S    
C55   C57   A    
C32   C69   S    
C63   H33   S    
C51   C53   A    
C80   H40   S    
C62   C68   A    
C59   C61   A    
C50   C52   A    
C23   C25   A    
C73   C78   A    
C60   C64   A    
C76   H37   S    
C59   C63   A    
C27   H5    S    
C74   H35   S    
C5    H3    S    
C5    C29   A    
C36   C66   A    
C41   C43   A    
C16   C18   A    
C53   H15   S    
O4    V2    S    
O19   V3    S    
O15   C71   A    
C78   H39   S    
O14   V4    S    
C10   H8    S    
C64   C66   A    
O10   V1    S    
O6    C4    A    
O18   V4    S    
C52   H30   S    
O1    V2    S    
C5    C21   A    
C51   H29   S    
O2    V1    S    
C49   C51   A    
H1    C23   S    
C37   H23   S    
C31   C70   S    
C57   C59   A    
C37   C45   A    
C29   C73   S    
C56   C58   A    
C36   C68   A    
C75   C76   A    
C17   C31   A    
C15   C19   A    
C20   C28   A    
O4    C2    A    
C54   H16   S    
C73   C74   A    
C67   H17   S    
O13   V3    S    
C66   H20   S    
C83   C84   A    
C28   H6    S    
C38   H24   S    
C50   C62   A    
C57   H21   S    
C6    H4    S    
C79   C84   A    
O15   V3    S    
C81   C82   A    
O3    C1    A    
O20   V4    S    
C76   C77   A    
C9    C11   A    
C56   H32   S    
C11   H11   S    
C10   C12   A    
C9    H7    S    
O11   C71   A    
C17   C25   A    
C12   C14   A    
C84   H44   S    
C6    C22   A    
O19   V4    S    
C8    C30   A    
C1    O8    A    
C21   C23   A    
O8    V2    S    
C33   C39   A    
C20   C22   A    
C14   C16   A    
C41   H27   S    
C40   H26   S    
C13   H9    S    
C8    C28   A    
C61   C67   A    
O5    V1    S    
C1    C36   S    
C52   C54   A    
C38   C46   A    
O7    V1    S    
O14   C70   A    
C25   H13   S    
C83   H43   S    
C18   C32   A    
C34   C42   A    
C13   C15   A    
O9    V2    S    
C42   C44   A    
C79   C80   A    
C44   C46   A    
C42   H28   S    
C65   H19   S    
C35   C67   A    
O16   V4    S    
C49   C61   A    
C35   C65   A    
C38   C40   A    
O11   V4    S    
