data_mof_unit_64244.cif
_audit_creation_date              2012-12-10T22:08:22-0500
_audit_creation_method            fapswitch 2.2
_symmetry_space_group_name_H-M    P1
_symmetry_Int_Tables_number       1
_space_group_crystal_system       triclinic
_cell_length_a                    15.985293
_cell_length_b                    16.119807
_cell_length_c                    29.887553
_cell_angle_alpha                 91.136335
_cell_angle_beta                  90.415536
_cell_angle_gamma                 90.441533
_cell_volume                      7699.46538433

loop_
_atom_site_label
_atom_site_type_symbol
_atom_type_description
_atom_site_fract_x
_atom_site_fract_y
_atom_site_fract_z
_atom_type_partial_charge
C1    C     C_R   0.618626 0.999253 0.559385 0.897639
C2    C     C_R   0.381374 0.000747 0.440615 0.897639
C3    C     C_R   0.918738 0.825105 0.174304 0.418762
C4    C     C_R   0.081261 0.174897 0.825695 0.418761
C5    C     C_R   0.064220 0.919924 0.188297 -0.177463
C6    C     C_R   0.935781 0.080075 0.811704 -0.177462
C7    C     C_R   0.062615 0.857178 0.155698 -0.230693
C8    C     C_R   0.937385 0.142820 0.844302 -0.230694
C9    C     C_R   0.925044 0.099342 0.190404 -0.201322
C10   C     C_R   0.074956 0.900659 0.809597 -0.201322
C11   C     C_R   0.925524 0.162262 0.159265 -0.156108
C12   C     C_R   0.074475 0.837739 0.840735 -0.156109
C13   C     C_R   0.119236 0.937103 0.287136 -0.248518
C14   C     C_R   0.880762 0.062896 0.712865 -0.248519
C15   C     C_R   0.183663 0.934763 0.318576 -0.150496
C16   C     C_R   0.816335 0.065237 0.681425 -0.150497
C17   C     C_R   0.865807 0.074857 0.287063 -0.108313
C18   C     C_R   0.134195 0.925144 0.712938 -0.108311
C19   C     C_R   0.803022 0.071236 0.318928 -0.216653
C20   C     C_R   0.196979 0.928765 0.681073 -0.216652
C21   C     C_3   0.995816 0.009811 0.248596 -0.028860
C22   C     C_3   0.004183 0.990189 0.751404 -0.028859
C23   C     C_R   0.617396 0.000650 0.440715 0.892165
C24   C     C_R   0.382604 0.999350 0.559285 0.892164
C25   C     C_R   0.072296 0.010228 0.280740 0.004769
C26   C     C_R   0.927704 0.989772 0.719260 0.004768
C27   C     C_R   0.201628 0.004468 0.345151 0.087129
C28   C     C_R   0.798371 0.995532 0.654849 0.087130
C29   C     C_R   0.920742 0.007591 0.280529 0.052786
C30   C     C_R   0.079258 0.992409 0.719471 0.052788
C31   C     C_R   0.794324 0.001184 0.345173 0.050931
C32   C     C_R   0.205676 0.998816 0.654827 0.050931
C33   C     C_R   0.996349 0.084002 0.217097 0.167290
C34   C     C_R   0.003651 0.915998 0.782903 0.167289
C35   C     C_R   0.998163 0.208828 0.153013 0.158594
C36   C     C_R   0.001837 0.791171 0.846987 0.158595
C37   C     C_R   0.994055 0.935007 0.215616 0.029662
C38   C     C_R   0.005945 0.064993 0.784384 0.029661
C39   C     C_R   0.990255 0.809596 0.148805 0.060290
C40   C     C_R   0.009745 0.190405 0.851195 0.060290
C41   C     C_1   0.731833 0.000616 0.378857 0.039014
C42   C     C_1   0.268167 0.999384 0.621143 0.039014
C43   C     C_1   0.679664 0.000449 0.407277 -0.120354
C44   C     C_1   0.320336 0.999551 0.592723 -0.120354
C45   C     C_R   0.090574 0.080057 0.309495 0.386696
C46   C     C_R   0.909427 0.919944 0.690505 0.386696
C47   C     C_1   0.265295 0.001596 0.378610 -0.022324
C48   C     C_1   0.734704 0.998404 0.621390 -0.022324
C49   C     C_1   0.318270 0.000721 0.407045 -0.146903
C50   C     C_1   0.681729 0.999279 0.592955 -0.146904
C51   C     C_1   0.998962 0.272515 0.120787 -0.055697
C52   C     C_1   0.001038 0.727484 0.879213 -0.055697
C53   C     C_1   0.999482 0.325679 0.093491 -0.151674
C54   C     C_1   0.000518 0.674321 0.906509 -0.151673
C55   C     C_1   0.990333 0.745139 0.115384 0.027181
C56   C     C_1   0.009667 0.254860 0.884616 0.027181
C57   C     C_1   0.991134 0.690319 0.087800 -0.128540
C58   C     C_1   0.008866 0.309681 0.912200 -0.128540
C59   C     C_R   0.993744 0.624132 0.055832 0.890152
C60   C     C_R   0.006256 0.375868 0.944168 0.890151
C61   C     C_R   0.999496 0.388119 0.060823 0.898855
C62   C     C_R   0.000504 0.611881 0.939177 0.898856
C63   C     C_R   0.155529 0.076578 0.340661 -0.186183
C64   C     C_R   0.844472 0.923423 0.659338 -0.186184
C65   C     C_R   0.910756 0.937377 0.307617 -0.225619
C66   C     C_R   0.089243 0.062622 0.692382 -0.225621
C67   C     C_R   0.847957 0.933720 0.339468 0.418509
C68   C     C_R   0.152042 0.066279 0.660531 0.418510
C69   C     C_R   0.070569 0.128870 0.208171 -0.116611
C70   C     C_R   0.929431 0.871128 0.791828 -0.116613
C71   C     C_R   0.070824 0.191769 0.177019 -0.145262
C72   C     C_R   0.929176 0.808229 0.822980 -0.145263
C73   C     C_R   0.920388 0.888007 0.206948 -0.237334
C74   C     C_R   0.079611 0.111995 0.793051 -0.237335
H1    H     H_    0.169040 0.130017 0.362200 0.187652
H2    H     H_    0.830962 0.869984 0.637799 0.187652
H3    H     H_    0.952538 0.885154 0.304002 0.187617
H4    H     H_    0.047460 0.114845 0.695996 0.187618
H5    H     H_    0.129167 0.115023 0.224553 0.138243
H6    H     H_    0.870833 0.884974 0.775445 0.138244
H7    H     H_    0.862792 0.900883 0.224370 0.182344
H8    H     H_    0.137207 0.099120 0.775628 0.182344
H9    H     H_    0.120555 0.957124 0.192325 0.155033
H10   H     H_    0.879446 0.042874 0.807677 0.155033
H11   H     H_    0.868757 0.062250 0.193746 0.149331
H12   H     H_    0.131242 0.937753 0.806256 0.149331
H13   H     H_    0.104785 0.879796 0.269317 0.179969
H14   H     H_    0.895212 0.120203 0.730685 0.179969
H15   H     H_    0.872485 0.132047 0.269230 0.193807
H16   H     H_    0.127518 0.867954 0.730771 0.193805
H17   H     H_    0.128053 0.226242 0.171169 0.146468
H18   H     H_    0.871948 0.773754 0.828829 0.146468
H19   H     H_    0.117767 0.846147 0.135627 0.163538
H20   H     H_    0.882234 0.153850 0.864375 0.163538
H21   H     H_    0.869621 0.173917 0.139723 0.150160
H22   H     H_    0.130378 0.826085 0.860278 0.150160
H23   H     H_    0.218227 0.877853 0.322849 0.162227
H24   H     H_    0.781770 0.122146 0.677152 0.162227
H25   H     H_    0.762244 0.124025 0.323767 0.170014
H26   H     H_    0.237758 0.875977 0.676234 0.170013
O1    O     O_R   0.591150 0.068800 0.545430 -0.610982
O2    O     O_R   0.408850 0.931200 0.454570 -0.610982
O3    O     O_R   0.588750 0.931200 0.454570 -0.595256
O4    O     O_R   0.411250 0.068800 0.545430 -0.595256
O5    O     O_R   0.590220 0.070350 0.455860 -0.617367
O6    O     O_R   0.409780 0.929650 0.544140 -0.617366
O7    O     O_R   0.589680 0.929650 0.544140 -0.608402
O8    O     O_R   0.410320 0.070350 0.455860 -0.608401
O9    O     O_R   0.065580 0.596830 0.043410 -0.620679
O10   O     O_R   0.934420 0.403170 0.956590 -0.620678
O11   O     O_R   0.928990 0.412290 0.044840 -0.610082
O12   O     O_R   0.071010 0.587710 0.955160 -0.610083
O13   O     O_R   0.069930 0.417270 0.047240 -0.612943
O14   O     O_R   0.930070 0.582730 0.952760 -0.612944
O15   O     O_R   0.924640 0.591850 0.041010 -0.593409
O16   O     O_R   0.075360 0.408150 0.958990 -0.593409
Zn1   Zn    Zn3+2 0.500990 0.093570 0.500870 1.025702
Zn2   Zn    Zn3+2 0.499010 0.906430 0.499130 1.025702
Zn3   Zn    Zn3+2 0.094790 0.503330 0.001610 1.009806
Zn4   Zn    Zn3+2 0.905210 0.496670 0.998390 1.009806
Cl1   Cl    Cl    0.839208 0.844473 0.372234 -0.557946
Cl2   Cl    Cl    0.160790 0.155526 0.627764 -0.557946
Cl3   Cl    Cl    0.825475 0.767931 0.165552 -0.579655
Cl4   Cl    Cl    0.174523 0.232073 0.834445 -0.579655
Cl5   Cl    Cl    0.033736 0.173440 0.309674 -0.620683
Cl6   Cl    Cl    0.966267 0.826561 0.690325 -0.620681

loop_
_geom_bond_atom_site_label_1
_geom_bond_atom_site_label_2
_ccdc_geom_bond_type
C16   C28   A    
C66   C68   A    
C5    C37   A    
C17   C29   A    
C19   C31   A    
C47   C49   T    
C22   C34   S    
C31   C67   A    
C15   H23   S    
C62   O14   A    
C20   C32   A    
C5    H9    S    
C57   C59   S    
C21   C33   S    
C2    O2    A    
C58   C60   S    
C23   O5    A    
C23   C43   S    
C4    Cl4   S    
C2    O8    A    
C69   C71   A    
C21   C25   S    
C6    H10   S    
C9    H11   S    
O13   Zn3   S    
C53   C61   S    
C39   C55   S    
C4    C40   A    
C52   C54   T    
C65   C67   A    
O5    Zn1   S    
C6    C38   A    
C18   C30   A    
C12   C36   A    
C31   C41   S    
C1    C50   S    
C34   C70   A    
O7    Zn2   S    
C4    C74   A    
C36   C52   S    
C33   C69   A    
C32   C68   A    
C62   O12   A    
C48   C50   T    
C35   C71   A    
O6    Zn2   S    
C9    C33   A    
C41   C43   T    
C13   C25   A    
C42   C44   T    
C74   H8    S    
C66   H4    S    
C67   Cl1   S    
C73   H7    S    
C3    Cl3   S    
C7    H19   S    
C23   O3    A    
C65   H3    S    
C70   H6    S    
C18   H16   S    
C17   H15   S    
O10   Zn4   S    
C5    C7    A    
C19   H25   S    
C6    C8    A    
C54   C62   S    
C40   C56   S    
C21   C29   S    
C45   C63   A    
C59   O9    A    
C46   C64   A    
O11   Zn4   S    
C24   O4    A    
C2    C49   S    
C15   C27   A    
C20   H26   S    
C13   H13   S    
C64   H2    S    
C21   C37   S    
C10   C34   A    
C14   C26   A    
C9    C11   A    
C30   C66   A    
C10   C12   A    
C1    O7    A    
C29   C65   A    
C28   C64   A    
C1    O1    A    
C55   C57   T    
C61   O13   A    
C24   C44   S    
C14   C16   A    
C69   H5    S    
O3    Zn2   S    
C24   O6    A    
C68   Cl2   S    
C61   O11   A    
C8    H20   S    
C25   C45   A    
O9    Zn3   S    
O4    Zn1   S    
C38   C74   A    
C27   C47   S    
C37   C73   A    
C10   H12   S    
C32   C42   S    
C22   C30   S    
O8    Zn1   S    
C46   Cl6   S    
C12   H22   S    
O2    Zn2   S    
O12   Zn3   S    
C70   C72   A    
O16   Zn3   S    
O1    Zn1   S    
C13   C15   A    
C14   H14   S    
C35   C51   S    
C16   H24   S    
C63   H1    S    
C60   O10   A    
C72   H18   S    
C11   C35   A    
C17   C19   A    
C28   C48   S    
C56   C58   T    
C18   C20   A    
C3    C73   A    
C60   O16   A    
C26   C46   A    
C3    C39   A    
C71   H17   S    
C59   O15   A    
O15   Zn4   S    
C22   C26   S    
C45   Cl5   S    
C7    C39   A    
C27   C63   A    
C11   H21   S    
C8    C40   A    
C51   C53   T    
O14   Zn4   S    
C36   C72   A    
C22   C38   S    
