data_mof_unit_60119.cif
_audit_creation_date              2013-03-05T16:01:29-0500
_audit_creation_method            fapswitch 2.2
_symmetry_space_group_name_H-M    P1
_symmetry_Int_Tables_number       1
_space_group_crystal_system       triclinic
_cell_length_a                    21.435824
_cell_length_b                    29.189332
_cell_length_c                    29.18474
_cell_angle_alpha                 90.001024
_cell_angle_beta                  90.008542
_cell_angle_gamma                 89.949619
_cell_volume                      18260.8081887

loop_
_atom_site_label
_atom_site_type_symbol
_atom_site_description
_atom_site_fract_x
_atom_site_fract_y
_atom_site_fract_z
_atom_type_partial_charge
O1    O     O_R   1.000000 0.964340 0.063140 -0.587336
O2    O     O_R   1.000000 0.964340 0.936860 -0.619133
O3    O     O_R   0.500000 0.464340 0.563140 -0.584761
O4    O     O_R   0.500000 0.464340 0.436860 -0.593753
O5    O     O_R   1.000000 0.035640 0.063120 -0.617278
O6    O     O_R   0.000000 0.035640 0.936880 -0.582881
O7    O     O_R   0.500000 0.535640 0.563120 -0.617181
O8    O     O_R   0.500000 0.535640 0.436880 -0.612489
C1    C     C_R   0.000067 0.999998 0.086740 0.942582
C2    C     C_R   0.999966 0.999996 0.913260 0.937710
C3    C     C_R   0.499971 0.499997 0.586740 0.937261
C4    C     C_R   0.500129 0.499997 0.413260 0.946755
O9    O     O_R   0.093030 0.964340 0.000000 -0.637513
O10   O     O_R   0.906970 0.964340 0.000000 -0.608160
O11   O     O_R   0.593030 0.464340 0.500000 -0.599742
O12   O     O_R   0.406970 0.464340 0.500000 -0.612383
O13   O     O_R   0.093040 0.035640 0.000000 -0.598897
O14   O     O_R   0.906960 0.035640 0.000000 -0.631762
O15   O     O_R   0.593040 0.535640 0.500000 -0.636515
O16   O     O_R   0.406960 0.535640 0.500000 -0.630017
C5    C     C_R   0.122582 0.999924 0.999780 0.996213
C6    C     C_R   0.877435 0.000031 0.000391 1.000665
C7    C     C_R   0.622580 0.500015 0.500232 0.995464
C8    C     C_R   0.377443 0.500025 0.499763 1.003526
Zn1   Zn    Zn3+2 0.000000 0.952380 0.000000 0.981939
Zn2   Zn    Zn3+2 0.500000 0.452380 0.500000 1.012014
Zn3   Zn    Zn3+2 1.000000 0.047600 0.000000 0.991958
Zn4   Zn    Zn3+2 0.500000 0.547600 0.500000 0.960136
C9    C     C_3   0.227462 0.954561 0.002449 -0.242771
C10   C     C_3   0.770966 0.971582 0.967005 -0.214973
C11   C     C_3   0.771809 0.044115 0.991965 -0.304034
C12   C     C_3   0.229605 0.023147 0.036465 -0.317911
C13   C     C_3   0.727391 0.545312 0.498134 -0.242539
C14   C     C_3   0.271839 0.543282 0.511472 -0.259470
C15   C     C_3   0.270929 0.469058 0.530823 -0.257637
C16   C     C_3   0.729602 0.477174 0.463230 -0.317917
C17   C     C_3   0.269029 0.978901 0.038005 0.234527
C18   C     C_3   0.731012 0.014940 0.959735 0.240956
C19   C     C_3   0.768961 0.521418 0.462255 0.234538
C20   C     C_3   0.230971 0.511738 0.541323 0.241301
H1    H     H_    0.208307 0.919334 0.005034 0.165242
H2    H     H_    0.789093 0.948140 0.940169 0.151030
H3    H     H_    0.790244 0.078944 0.984940 0.171474
H4    H     H_    0.212010 0.042999 0.066230 0.158047
H5    H     H_    0.708191 0.580581 0.496013 0.165219
H6    H     H_    0.290345 0.577380 0.521388 0.164870
H7    H     H_    0.288939 0.443496 0.555698 0.158652
H8    H     H_    0.712006 0.457721 0.433215 0.157893
C21   C     C_3   0.311155 0.997198 0.999859 -0.173536
C22   C     C_3   0.689005 0.001445 0.999928 -0.215721
C23   C     C_3   0.811145 0.502607 0.500148 -0.173476
C24   C     C_3   0.189020 0.501384 0.500134 -0.215954
C25   C     C_3   0.269447 0.974051 0.964080 0.110321
C26   C     C_3   0.729231 0.958963 0.008333 0.130608
C27   C     C_3   0.730125 0.029339 0.032469 0.117092
C28   C     C_3   0.271480 0.040716 0.997089 0.138008
C29   C     C_3   0.769431 0.525305 0.536237 0.110770
C30   C     C_3   0.230236 0.531629 0.469883 0.115781
C31   C     C_3   0.229277 0.459619 0.488608 0.128164
C32   C     C_3   0.771540 0.459075 0.502362 0.137718
C33   C     C_3   0.230575 0.017774 0.960901 0.309714
C34   C     C_3   0.769661 0.986669 0.041259 0.312809
C35   C     C_3   0.730630 0.481564 0.538858 0.309339
C36   C     C_3   0.269792 0.489763 0.457952 0.313692
C37   C     C_3   0.189028 0.999461 0.999500 -0.196585
C38   C     C_3   0.811015 0.000264 0.000623 -0.199382
C39   C     C_3   0.689023 0.500396 0.500511 -0.196419
C40   C     C_3   0.311044 0.500233 0.499554 -0.199330
C41   C     C_1   0.999979 0.000008 0.137409 -0.176443
C42   C     C_1   0.000016 0.000010 0.862592 -0.182665
C43   C     C_1   0.500010 0.500008 0.637408 -0.183267
C44   C     C_1   0.500050 0.500008 0.362590 -0.172714
C45   C     C_1   0.999923 0.000008 0.179609 0.019041
C46   C     C_1   0.000044 0.000018 0.820392 0.017108
C47   C     C_1   0.500029 0.500009 0.679608 0.016849
C48   C     C_1   0.499993 0.500008 0.320390 0.020247
C49   C     C_1   0.999903 0.000004 0.229435 0.017472
C50   C     C_1   0.000053 0.000019 0.770567 0.016957
C51   C     C_1   0.500030 0.500008 0.729433 0.016780
C52   C     C_1   0.499964 0.500005 0.270565 0.017777
C53   C     C_1   0.999913 0.000000 0.271637 0.014216
C54   C     C_1   0.000048 0.000015 0.728364 0.013887
C55   C     C_1   0.500020 0.500005 0.771635 0.013722
C56   C     C_1   0.499966 0.500002 0.228362 0.014410
C57   C     C_1   0.999945 0.999996 0.321465 0.009153
C58   C     C_1   0.000033 0.000007 0.678536 0.009185
C59   C     C_1   0.500004 0.500000 0.821463 0.009079
C60   C     C_1   0.499985 0.499997 0.178535 0.009179
C61   C     C_1   0.999973 0.999993 0.363669 -0.195988
C62   C     C_1   0.000018 1.000000 0.636332 -0.195853
C63   C     C_1   0.499995 0.499995 0.863668 -0.195936
C64   C     C_1   0.500001 0.499994 0.136330 -0.196027
O17   O     O_R   0.500000 0.063090 0.964350 -0.595729
O18   O     O_R   0.500000 0.063090 0.035650 -0.605209
O19   O     O_R   0.000000 0.563090 0.464350 -0.605137
O20   O     O_R   1.000000 0.563090 0.535650 -0.606301
C65   C     C_R   0.499924 0.086705 0.000001 0.892070
C66   C     C_R   0.999960 0.586706 0.499997 0.889727
O21   O     O_R   0.406990 0.999940 0.964350 -0.617972
O22   O     O_R   0.593010 0.999940 0.035650 -0.606387
O23   O     O_R   0.593010 0.999940 0.964350 -0.611189
O24   O     O_R   0.406990 0.999940 0.035650 -0.604275
O25   O     O_R   0.906990 0.499940 0.464350 -0.605194
O26   O     O_R   0.093010 0.499940 0.535650 -0.619753
O27   O     O_R   0.093010 0.499940 0.464350 -0.609419
O28   O     O_R   0.906990 0.499940 0.535650 -0.617933
C67   C     C_R   0.377654 0.996779 0.999974 0.929200
C68   C     C_R   0.622498 0.001514 0.999968 0.919716
C69   C     C_R   0.877639 0.503027 0.500024 0.930217
C70   C     C_R   0.122506 0.501467 0.500043 0.928418
Zn5   Zn    Zn3+2 0.500000 0.999950 0.952390 0.989560
Zn6   Zn    Zn3+2 0.500000 0.999950 0.047610 0.991479
Zn7   Zn    Zn3+2 1.000000 0.499950 0.452390 0.990624
Zn8   Zn    Zn3+2 1.000000 0.499950 0.547610 0.984392
O29   O     O_R   0.500000 0.936790 0.964340 -0.597690
O30   O     O_R   0.500000 0.936790 0.035660 -0.604036
O31   O     O_R   1.000000 0.436790 0.464340 -0.597432
O32   O     O_R   1.000000 0.436790 0.535660 -0.591515
C71   C     C_R   0.500029 0.913186 0.000004 0.898299
C72   C     C_R   0.999983 0.413188 0.499998 0.905446
O33   O     O_R   0.052540 0.063140 0.500000 -0.590892
O34   O     O_R   0.947460 0.063140 0.500000 -0.591006
O35   O     O_R   0.552540 0.563140 0.000000 -0.591468
O36   O     O_R   0.447460 0.563140 0.000000 -0.591802
C73   C     C_R   0.999976 0.085629 0.499999 0.877019
C74   C     C_R   0.499976 0.585629 0.000003 0.876013
O37   O     O_R   0.052540 0.999990 0.436840 -0.592497
O38   O     O_R   0.947460 0.999990 0.563160 -0.592119
O39   O     O_R   0.947460 0.999990 0.436840 -0.589582
O40   O     O_R   0.052540 0.999990 0.563160 -0.589897
O41   O     O_R   0.552540 0.499990 0.936840 -0.589903
O42   O     O_R   0.447460 0.499990 0.063160 -0.589505
O43   O     O_R   0.447460 0.499990 0.936840 -0.592168
O44   O     O_R   0.552540 0.499990 0.063160 -0.592580
C75   C     C_R   0.999994 0.999990 0.414348 0.876518
C76   C     C_R   0.000005 0.999992 0.585652 0.876707
C77   C     C_R   0.499997 0.499991 0.914348 0.876749
C78   C     C_R   0.500003 0.499991 0.085652 0.876516
Zn9   Zn    Zn3+2 0.070140 0.999990 0.500000 0.977360
Zn10  Zn    Zn3+2 0.929860 0.999990 0.500000 0.978344
Zn11  Zn    Zn3+2 0.570140 0.499990 0.000000 0.977144
Zn12  Zn    Zn3+2 0.429860 0.499990 0.000000 0.978270
O45   O     O_R   0.052520 0.936840 0.500000 -0.591842
O46   O     O_R   0.947480 0.936840 0.500000 -0.591286
O47   O     O_R   0.552520 0.436840 0.000000 -0.591352
O48   O     O_R   0.447480 0.436840 0.000000 -0.590480
C79   C     C_R   0.000022 0.914339 0.499997 0.876259
C80   C     C_R   0.500022 0.414339 0.000000 0.877309
C81   C     C_1   0.499906 0.137378 0.000005 -0.217694
C82   C     C_1   0.999926 0.637378 0.499982 -0.212990
C83   C     C_1   0.499906 0.179580 0.000007 0.007176
C84   C     C_1   0.999922 0.679579 0.499970 0.005540
C85   C     C_1   0.499936 0.229410 0.000008 0.010436
C86   C     C_1   0.999952 0.729410 0.499965 0.008207
C87   C     C_1   0.999991 0.771614 0.499969 0.007734
C88   C     C_1   0.499977 0.271614 0.000007 0.010127
C89   C     C_1   0.000035 0.821448 0.499978 0.005675
C90   C     C_1   0.500028 0.321448 0.000005 0.008177
C91   C     C_1   0.000053 0.863654 0.499988 -0.198120
C92   C     C_1   0.500051 0.363654 0.000003 -0.196034
C93   C     C_1   0.499991 0.862529 0.000021 -0.210629
C94   C     C_1   0.999958 0.362529 0.499993 -0.213880
C95   C     C_1   0.499967 0.820335 0.000035 0.008161
C96   C     C_1   0.999938 0.320335 0.499989 0.011286
C97   C     C_1   0.499947 0.770518 0.000040 0.009158
C98   C     C_1   0.999920 0.270518 0.499988 0.012207
C99   C     C_1   0.999911 0.228321 0.499989 0.010960
C100  C     C_1   0.499933 0.728321 0.000036 0.008231
C101  C     C_1   0.999913 0.178500 0.499992 0.008447
C102  C     C_1   0.499925 0.678500 0.000025 0.005743
C103  C     C_1   0.999929 0.136301 0.499996 -0.195867
C104  C     C_1   0.499933 0.636301 0.000014 -0.198115
N1    N     N_2   0.290984 0.958389 0.080203 -0.286699
H9    H     H_    0.258184 0.959471 0.106007 0.223950
C105  C     C_3   0.319584 0.913748 0.075403 -0.740630
H10   H     H_    0.340910 0.903528 0.108527 0.239393
H11   H     H_    0.356815 0.914389 0.048978 0.240921
H12   H     H_    0.283916 0.887884 0.065792 0.223827
N2    N     N_2   0.707714 0.030605 0.915921 -0.277058
H13   H     H_    0.676857 0.057550 0.918932 0.227693
C106  C     C_3   0.755186 0.038489 0.881672 -0.766883
H14   H     H_    0.732744 0.048506 0.848877 0.242927
H15   H     H_    0.782636 0.006766 0.875676 0.242582
H16   H     H_    0.786881 0.066486 0.892759 0.232692
N3    N     N_2   0.790849 0.542469 0.420324 -0.286999
H17   H     H_    0.757986 0.541809 0.394544 0.223810
C107  C     C_3   0.819511 0.586984 0.425713 -0.741157
H18   H     H_    0.840700 0.597653 0.392697 0.239195
H19   H     H_    0.856861 0.585889 0.452041 0.241170
H20   H     H_    0.783913 0.612767 0.435782 0.224001
N4    N     N_2   0.207721 0.524056 0.586206 -0.277737
H21   H     H_    0.177221 0.551368 0.585281 0.232600
C108  C     C_3   0.255179 0.528930 0.621039 -0.775093
H22   H     H_    0.232760 0.536567 0.654471 0.242549
H23   H     H_    0.287300 0.557453 0.612189 0.231218
H24   H     H_    0.282167 0.496634 0.624627 0.245039
N5    N     N_2   0.292870 0.948319 0.925316 -0.294757
H25   H     H_    0.322581 0.967101 0.904892 0.264578
C109  C     C_3   0.245982 0.923929 0.899435 -0.722547
H26   H     H_    0.268786 0.904060 0.871646 0.235417
H27   H     H_    0.212363 0.948367 0.883851 0.264736
H28   H     H_    0.220616 0.899531 0.921883 0.236215
N6    N     N_2   0.703481 0.914073 0.017481 -0.299419
H29   H     H_    0.672605 0.913909 0.044559 0.251508
C110  C     C_3   0.748626 0.877341 0.019492 -0.707943
H30   H     H_    0.724023 0.844237 0.024318 0.233811
H31   H     H_    0.781132 0.882601 0.048659 0.267145
H32   H     H_    0.775498 0.875483 0.987018 0.235862
N7    N     N_2   0.705778 0.059858 0.067239 -0.269661
H33   H     H_    0.670586 0.080700 0.055145 0.218939
C111  C     C_3   0.752496 0.084820 0.092743 -0.692143
H34   H     H_    0.729551 0.104896 0.120316 0.233390
H35   H     H_    0.777833 0.108800 0.069786 0.215491
H36   H     H_    0.786228 0.060890 0.108884 0.275116
N8    N     N_2   0.297640 0.086307 0.993962 -0.282884
H37   H     H_    0.333724 0.091591 0.016711 0.221556
C112  C     C_3   0.252425 0.123055 0.994329 -0.683954
H38   H     H_    0.276610 0.156201 0.988718 0.233221
H39   H     H_    0.228046 0.124305 0.027902 0.217214
H40   H     H_    0.217715 0.118363 0.966502 0.276853
N9    N     N_2   0.792819 0.550517 0.575339 -0.294241
H41   H     H_    0.822509 0.531439 0.595545 0.264722
C113  C     C_3   0.745902 0.574624 0.601502 -0.722997
H42   H     H_    0.768671 0.594083 0.629579 0.235397
H43   H     H_    0.712253 0.550028 0.616722 0.264731
H44   H     H_    0.720577 0.599359 0.579361 0.236260
N10   N     N_2   0.206099 0.564451 0.437190 -0.297519
H45   H     H_    0.176091 0.550007 0.413688 0.262773
C114  C     C_3   0.252468 0.593705 0.416361 -0.717115
H46   H     H_    0.229116 0.618763 0.393433 0.234487
H47   H     H_    0.285778 0.573025 0.395792 0.265739
H48   H     H_    0.278276 0.613066 0.443058 0.236745
N11   N     N_2   0.203701 0.415451 0.476205 -0.279648
H49   H     H_    0.167657 0.405428 0.497325 0.218559
C115  C     C_3   0.249383 0.379690 0.469224 -0.685523
H50   H     H_    0.225636 0.348214 0.456941 0.233577
H51   H     H_    0.273722 0.371811 0.501907 0.217010
H52   H     H_    0.284076 0.390157 0.443019 0.276750
N12   N     N_2   0.797775 0.413437 0.504888 -0.283496
H53   H     H_    0.833847 0.408434 0.482063 0.221143
C116  C     C_3   0.752615 0.376718 0.504051 -0.684011
H54   H     H_    0.776855 0.343489 0.509213 0.232993
H55   H     H_    0.728201 0.375925 0.470474 0.217430
H56   H     H_    0.717929 0.381059 0.531950 0.276850
N13   N     N_R   0.210584 0.038873 0.918062 0.194757
O49   O     O_R   0.151663 0.042532 0.908155 -0.414029
O50   O     O_R   0.252091 0.053320 0.888983 -0.375141
N14   N     N_R   0.790021 0.970916 0.086240 0.194261
O51   O     O_R   0.748788 0.960566 0.117216 -0.374404
O52   O     O_R   0.849050 0.967499 0.095878 -0.421921
N15   N     N_R   0.710724 0.459924 0.581431 0.194772
O53   O     O_R   0.651825 0.456253 0.591365 -0.413494
O54   O     O_R   0.752289 0.445035 0.610275 -0.375292
N16   N     N_R   0.290297 0.477870 0.411843 0.194682
O55   O     O_R   0.249171 0.469685 0.380140 -0.374503
O56   O     O_R   0.349356 0.475550 0.402010 -0.425806

loop_
_geom_bond_atom_site_label_1
_geom_bond_atom_site_label_2
_geom_bond_distance
_ccdc_geom_bond_type
C11   C38   1.551304 S    
C35   N15   1.457915 S    
O27   C70   1.219309 A    
C21   C25   1.531966 S    
O43   C77   1.303605 A    
C61   C75   1.479042 S    
C59   C63   1.231736 T    
C87   C89   1.454605 S    
C13   H5    1.110092 S    
Zn12  O48   1.881279 S    
C19   C23   1.530047 S    
N12   H53   1.030978 S    
O3    C3    1.248047 A    
C52   C56   1.231672 T    
C64   C78   1.479042 S    
C71   C93   1.478657 S    
C113  H44   1.110303 S    
Zn7   O31   1.876305 S    
N15   O53   1.299970 A    
C105  H11   1.110077 S    
C43   C47   1.231599 T    
C29   N9    1.447627 S    
N1    H9    1.030822 S    
C112  H40   1.109913 S    
O7    C3    1.248049 A    
C108  H22   1.110230 S    
C10   C26   1.546522 S    
C13   C39   1.549853 S    
O43   Zn12  1.881575 S    
C22   C26   1.529534 S    
C33   N13   1.457894 S    
C11   H3    1.110164 S    
O28   Zn8   2.024018 S    
C32   C35   1.527636 S    
C14   C20   1.541384 S    
C36   C40   1.532833 S    
O27   Zn7   2.024016 S    
C95   C97   1.454146 S    
O37   C75   1.303603 A    
C114  H48   1.110377 S    
C81   C83   1.231845 T    
O48   C80   1.303294 A    
C107  H19   1.110028 S    
C3    C43   1.478730 S    
N3    C107  1.446354 S    
C11   C27   1.543648 S    
O42   C78   1.303539 A    
C26   N6    1.447124 S    
C23   C69   1.425416 S    
C27   C34   1.527557 S    
C62   C76   1.479059 S    
C10   C18   1.542163 S    
O9    Zn1   2.024804 S    
C15   C31   1.546314 S    
C116  H54   1.110201 S    
C80   C92   1.479458 S    
C7    C39   1.424327 S    
N5    C109  1.445188 S    
N10   H45   1.030684 S    
O16   C8    1.217468 A    
C6    C38   1.423786 S    
C107  H20   1.110893 S    
N16   O56   1.299861 A    
C114  H47   1.110822 S    
O33   C73   1.303541 A    
C63   C77   1.479062 S    
O24   Zn6   2.024018 S    
C105  H10   1.110036 S    
C28   N8    1.447431 S    
O20   C66   1.248175 A    
C42   C46   1.231599 T    
C109  H28   1.110336 S    
C115  H50   1.110184 S    
C41   C45   1.231603 T    
C23   C29   1.532027 S    
C20   C24   1.531385 S    
C24   C70   1.425780 S    
O4    C4    1.248078 A    
N11   H49   1.031016 S    
C36   N16   1.457549 S    
O41   Zn11  1.881465 S    
C72   C94   1.478703 S    
C5    C37   1.424397 S    
O23   C68   1.217401 A    
O11   C7    1.219356 A    
C4    C44   1.478794 S    
C15   H7    1.110044 S    
C109  H26   1.110242 S    
O12   C8    1.218396 A    
O39   C75   1.303548 A    
N13   O49   1.299960 A    
C90   C92   1.231971 T    
C96   C98   1.454143 S    
C115  H51   1.111100 S    
O36   Zn12  1.881846 S    
C31   N11   1.447374 S    
C25   C33   1.526383 S    
O46   C79   1.303300 A    
O40   Zn9   1.881572 S    
N6    C110  1.444874 S    
C93   C95   1.231595 T    
C114  H46   1.110208 S    
N14   O52   1.299930 A    
C29   C35   1.526302 S    
C105  H12   1.110922 S    
C94   C96   1.231601 T    
N1    C105  1.446358 S    
C30   C36   1.527031 S    
C35   C39   1.532630 S    
O19   C66   1.247984 A    
O22   C68   1.219173 A    
C34   C38   1.533219 S    
N4    H21   1.030942 S    
O13   Zn3   2.024409 S    
C60   C64   1.231725 T    
O24   C67   1.219809 A    
O1    C1    1.248067 A    
C113  H42   1.110216 S    
C21   C67   1.425504 S    
C58   C62   1.231736 T    
O31   C72   1.248064 A    
C14   C40   1.550601 S    
C57   C61   1.231727 T    
O11   Zn2   2.024804 S    
C20   N4    1.446848 S    
C26   C34   1.526277 S    
O18   C65   1.248033 A    
C108  H23   1.111330 S    
C112  H38   1.110219 S    
C106  H14   1.110221 S    
C16   C19   1.543504 S    
O13   C5    1.219330 A    
O7    Zn4   1.874932 S    
C99   C101  1.454245 S    
C116  H55   1.111101 S    
C56   C60   1.454206 S    
O15   C7    1.217031 A    
N8    H37   1.030995 S    
N4    C108  1.445160 S    
C111  H34   1.110157 S    
O5    C1    1.248037 A    
N16   O55   1.300170 A    
O41   C77   1.303556 A    
C24   C31   1.530420 S    
C33   C37   1.532668 S    
C27   N7    1.447402 S    
N9    H41   1.030621 S    
C17   C21   1.530134 S    
C50   C54   1.231678 T    
C34   N14   1.457643 S    
O6    Zn3   1.874923 S    
Zn8   O32   1.876293 S    
C49   C53   1.231672 T    
O8    C4    1.248024 A    
C108  H24   1.110559 S    
O21   Zn5   2.024121 S    
O35   Zn11  1.881196 S    
C113  H43   1.110873 S    
N7    H33   1.030985 S    
C31   C36   1.526590 S    
O9    C5    1.217088 A    
Zn9   O45   1.881930 S    
N12   C116  1.445077 S    
C32   N12   1.447414 S    
C13   C19   1.541437 S    
C12   C17   1.543446 S    
C85   C88   1.231916 T    
C14   C30   1.544148 S    
O15   Zn4   2.024409 S    
N11   C115  1.445104 S    
C86   C87   1.231919 T    
C10   C38   1.549701 S    
C24   C30   1.530048 S    
C16   C39   1.548910 S    
O17   Zn5   1.875770 S    
C9    C37   1.549833 S    
C2    C42   1.478733 S    
C111  H35   1.111116 S    
N15   O54   1.300181 A    
C84   C86   1.454523 S    
O22   Zn6   2.024118 S    
C97   C100  1.231688 T    
O29   C71   1.248231 A    
N13   O50   1.300209 A    
N6    H29   1.030908 S    
C98   C99   1.231691 T    
O8    Zn4   1.874923 S    
C115  H52   1.109884 S    
O26   Zn8   2.024118 S    
C48   C52   1.454127 S    
O2    C2    1.248034 A    
O16   Zn4   2.025016 S    
O17   C65   1.248071 A    
O45   C79   1.303473 A    
Zn6   O30   1.876293 S    
O47   C80   1.303482 A    
N14   O51   1.300176 A    
O26   C70   1.217348 A    
O36   C74   1.303642 A    
C79   C91   1.479458 S    
C66   C82   1.479067 S    
C110  H32   1.110445 S    
C65   C81   1.479111 S    
C110  H30   1.110216 S    
C13   C29   1.545495 S    
C18   N2    1.446720 S    
C106  H16   1.111320 S    
C9    H1    1.110110 S    
O14   C6    1.217444 A    
C22   C68   1.425626 S    
O3    Zn2   1.875496 S    
O40   C76   1.303573 A    
O14   Zn3   2.025016 S    
Zn10  O46   1.881279 S    
C1    C41   1.478775 S    
O35   C74   1.303528 A    
O12   Zn2   2.024202 S    
C55   C59   1.454220 S    
O44   C78   1.303610 A    
O4    Zn2   1.875511 S    
O1    Zn1   1.875496 S    
C11   C18   1.541364 S    
C18   C22   1.530661 S    
Zn11  O47   1.881930 S    
C112  H39   1.111122 S    
O42   Zn12  1.881462 S    
O21   C67   1.218692 A    
C22   C27   1.530610 S    
O30   C71   1.248009 A    
O28   C69   1.218500 A    
O25   C69   1.219833 A    
C116  H56   1.109900 S    
C25   N5    1.447607 S    
O33   Zn9   1.881196 S    
O34   C73   1.303633 A    
C88   C90   1.454605 S    
C15   C20   1.541999 S    
O38   Zn10  1.881462 S    
O34   Zn10  1.881846 S    
C107  H18   1.110024 S    
N9    C113  1.445199 S    
C21   C28   1.530173 S    
C54   C58   1.454223 S    
O44   Zn11  1.881572 S    
C51   C55   1.231678 T    
O5    Zn3   1.874932 S    
O10   C6    1.218675 A    
N3    H17   1.030805 S    
O25   Zn7   2.024121 S    
C9    C25   1.545561 S    
C15   C40   1.549817 S    
O19   Zn7   1.875770 S    
C44   C48   1.231602 T    
C14   H6    1.110135 S    
O23   Zn5   2.024016 S    
C100  C102  1.454248 S    
N7    C111  1.445292 S    
C12   C28   1.546098 S    
C16   H8    1.110099 S    
O2    Zn1   1.875511 S    
C82   C84   1.231837 T    
C83   C85   1.454520 S    
O10   Zn1   2.024202 S    
N5    H25   1.030642 S    
C73   C103  1.479084 S    
O32   C72   1.248119 A    
O20   Zn8   1.875782 S    
N8    C112  1.445087 S    
C74   C104  1.479087 S    
O6    C2    1.248058 A    
C8    C40   1.423348 S    
C17   N1    1.447757 S    
N2    H13   1.030964 S    
C19   N3    1.447754 S    
O39   Zn10  1.881575 S    
C106  H15   1.110588 S    
C111  H36   1.109790 S    
C12   H4    1.110117 S    
C89   C91   1.231971 T    
O38   C76   1.303587 A    
C46   C50   1.454130 S    
C9    C17   1.541519 S    
C109  H27   1.110883 S    
C45   C49   1.454133 S    
C28   C33   1.527545 S    
C10   H2    1.110025 S    
Zn5   O29   1.876305 S    
C23   C32   1.530157 S    
C102  C104  1.231749 T    
N10   C114  1.445106 S    
C16   C32   1.546098 S    
C110  H31   1.110706 S    
C47   C51   1.454130 S    
O37   Zn9   1.881465 S    
O18   Zn6   1.875782 S    
C53   C57   1.454209 S    
C30   N10   1.447407 S    
C12   C37   1.548920 S    
N2    C106  1.445111 S    
C101  C103  1.231752 T    
