data_mof_unit_44405.cif
_audit_creation_date              2013-03-05T15:48:39-0500
_audit_creation_method            fapswitch 2.2
_symmetry_space_group_name_H-M    P1
_symmetry_Int_Tables_number       1
_space_group_crystal_system       triclinic
_cell_length_a                    10.109651
_cell_length_b                    10.415027
_cell_length_c                    23.485852
_cell_angle_alpha                 89.591155
_cell_angle_beta                  82.017773
_cell_angle_gamma                 94.040031
_cell_volume                      2442.47612842

loop_
_atom_site_label
_atom_site_type_symbol
_atom_site_description
_atom_site_fract_x
_atom_site_fract_y
_atom_site_fract_z
_atom_type_partial_charge
O1    O     O_R   0.431060 0.692470 0.504730 -0.579806
O2    O     O_R   0.568940 0.307530 0.495270 -0.582730
O3    O     O_R   0.651120 0.659650 0.489640 -0.590071
O4    O     O_R   0.348880 0.340350 0.510360 -0.583711
C1    C     C_R   0.554459 0.735745 0.497612 0.901597
C2    C     C_R   0.445606 0.264211 0.504932 0.915744
O5    O     O_R   0.389950 0.516450 0.591390 -0.600922
O6    O     O_R   0.610050 0.483550 0.408610 -0.583256
O7    O     O_R   0.610020 0.483630 0.576300 -0.607913
O8    O     O_R   0.389980 0.516370 0.423700 -0.612270
C3    C     C_R   0.500969 0.497898 0.610849 1.035975
C4    C     C_R   0.499562 0.503910 0.389383 0.937649
Zn1   Zn    Zn3+2 0.353060 0.521920 0.510080 1.065441
Zn2   Zn    Zn3+2 0.646940 0.478080 0.489920 1.070642
C5    C     C_R   0.468349 0.396019 0.122697 0.677466
C6    C     C_R   0.498773 0.623020 0.880201 0.681591
N1    N     N_R   0.477236 0.511889 0.149282 -0.339901
N2    N     N_R   0.490001 0.507099 0.853684 -0.341382
C7    C     C_R   0.484322 0.626202 0.119901 0.660236
C8    C     C_R   0.476690 0.392863 0.883401 0.659197
C9    C     C_R   0.486333 0.627415 0.060406 -0.041383
C10   C     C_R   0.472205 0.391752 0.943000 -0.042800
C11   C     C_R   0.477874 0.509463 0.031714 -0.075830
C12   C     C_R   0.481164 0.509736 0.971647 -0.075211
C13   C     C_R   0.466798 0.391476 0.063015 -0.064517
C14   C     C_R   0.494146 0.627701 0.940233 -0.066997
C15   C     C_R   0.497941 0.743960 0.029372 -0.219179
C16   C     C_R   0.458778 0.275247 0.974120 -0.219592
C17   C     C_R   0.502645 0.745668 0.969448 0.503294
C18   C     C_R   0.455728 0.273540 0.033948 0.502793
O9    O     O_2   0.462578 0.286461 0.154252 -0.412738
O10   O     O_2   0.512408 0.732395 0.848125 -0.398905
O11   O     O_2   0.490090 0.738103 0.148438 -0.480196
O12   O     O_2   0.467294 0.280939 0.855071 -0.471469
H1    H     H_    0.504459 0.834475 0.051627 0.202059
H2    H     H_    0.451032 0.184739 0.951936 0.202613
C19   C     C_R   0.613034 0.474275 0.758249 0.299642
C20   C     C_R   0.606263 0.547655 0.229256 0.300951
C21   C     C_R   0.615784 0.465700 0.698621 0.383796
C22   C     C_R   0.612028 0.552496 0.288417 0.374725
C23   C     C_R   0.501878 0.495586 0.673431 -0.198498
C24   C     C_R   0.496742 0.512230 0.327438 -0.260813
C25   C     C_R   0.385595 0.527569 0.708690 -0.213212
C26   C     C_R   0.375447 0.478150 0.307157 -0.261693
H3    H     H_    0.297544 0.549254 0.689953 0.235523
H4    H     H_    0.286772 0.449684 0.337238 0.223318
C27   C     C_R   0.379508 0.530757 0.768143 0.324402
C28   C     C_R   0.366200 0.481028 0.248628 0.335923
C29   C     C_R   0.494358 0.505039 0.792786 -0.027395
C30   C     C_R   0.482999 0.513459 0.209605 -0.030158
C31   C     C_2   0.580331 0.874405 0.504451 0.009328
C32   C     C_2   0.420006 0.125169 0.514564 0.013399
C33   C     C_2   0.509691 0.929592 0.550305 0.205652
C34   C     C_2   0.490867 0.068051 0.551658 0.212138
H5    H     H_    0.110033 0.420624 0.463328 0.180670
H6    H     H_    0.889784 0.578667 0.536979 0.191006
N3    N     N_2   0.842710 0.448880 0.476480 -0.172790
N4    N     N_2   0.157290 0.551120 0.523520 -0.171684
C35   C     C_2   0.926783 0.510217 0.505044 -0.053388
C36   C     C_2   0.073109 0.489365 0.495143 -0.065373
H7    H     H_    0.118967 0.615695 0.553400 0.215175
H8    H     H_    0.881120 0.384597 0.446481 0.217951
O13   O     O_3   0.515748 0.861251 0.939151 -0.650763
H9    H     H_    0.523379 0.933505 0.966009 0.328208
O14   O     O_3   0.441647 0.157997 0.064307 -0.653344
H10   H     H_    0.431988 0.085817 0.037574 0.328081
N5    N     N_R   0.729998 0.448719 0.783974 0.257588
O15   O     O_R   0.767101 0.521374 0.824591 -0.318394
O16   O     O_R   0.801819 0.354241 0.766109 -0.226687
N6    N     N_R   0.725133 0.579751 0.188984 0.259469
O17   O     O_R   0.754231 0.509405 0.144031 -0.335475
O18   O     O_R   0.806863 0.677482 0.197778 -0.219977
O19   O     O_3   0.732108 0.432345 0.666211 -0.666960
H11   H     H_    0.707133 0.360707 0.641427 0.393060
O20   O     O_3   0.731374 0.595324 0.306491 -0.638137
H12   H     H_    0.710573 0.646890 0.341449 0.367906
N7    N     N_R   0.256472 0.560288 0.802782 0.252512
O21   O     O_R   0.221774 0.509526 0.853920 -0.328937
O22   O     O_R   0.172205 0.629012 0.781248 -0.261668
N8    N     N_R   0.238402 0.450354 0.229468 0.252447
O23   O     O_R   0.208434 0.503880 0.183141 -0.314052
O24   O     O_R   0.146170 0.378023 0.261264 -0.290214
N9    N     N_R   0.545801 0.140572 0.595837 0.210553
O25   O     O_R   0.470342 0.215425 0.627921 -0.410038
O26   O     O_R   0.656839 0.109199 0.612559 -0.290580
N10   N     N_R   0.454603 0.854652 0.600835 0.224962
O27   O     O_R   0.530252 0.779393 0.624023 -0.387349
O28   O     O_R   0.341888 0.882742 0.630266 -0.271386
N11   N     N_R   0.336316 0.052866 0.479318 0.206994
O29   O     O_R   0.304044 0.106125 0.433348 -0.325451
O30   O     O_R   0.278329 0.941078 0.496537 -0.334894
N12   N     N_R   0.663887 0.948550 0.459316 0.209733
O31   O     O_R   0.695465 0.897746 0.409222 -0.329593
O32   O     O_R   0.722130 0.059582 0.469866 -0.331729

loop_
_geom_bond_atom_site_label_1
_geom_bond_atom_site_label_2
_geom_bond_distance
_ccdc_geom_bond_type
C20   N6    1.440031 S    
C15   C17   1.401503 A    
O19   H11   0.989810 S    
O7    Zn2   2.013135 S    
C17   O13   1.382788 S    
N3    H8    1.030920 S    
C21   C23   1.417751 A    
C33   C34   1.467781 S    
O5    C3    1.295240 A    
O1    C1    1.284195 A    
C7    C9    1.394548 A    
C12   C14   1.417211 A    
N10   O28   1.301143 A    
N3    C35   1.291716 D    
N4    C36   1.291752 D    
O4    Zn1   1.888495 S    
C4    C24   1.461133 S    
C26   H4    1.083665 S    
C11   C12   1.406474 A    
C33   N10   1.438632 S    
N11   O30   1.301531 A    
C8    O12   1.350398 S    
N4    H7    1.030945 S    
C22   C24   1.415320 A    
C9    C15   1.400688 A    
C35   C36   1.496679 S    
C10   C16   1.400545 A    
H5    C36   1.085376 S    
C23   C25   1.402644 A    
C32   N11   1.442831 S    
O2    C2    1.284680 A    
C24   C26   1.399949 A    
C27   C29   1.408235 A    
C34   N9    1.437925 S    
C32   C34   1.360895 D    
N7    O22   1.301640 A    
C6    C14   1.405467 A    
N5    O15   1.301137 A    
N8    O24   1.301615 A    
C7    O11   1.350302 S    
N10   O27   1.299964 A    
Zn1   N4    2.005468 S    
C15   H1    1.083540 S    
N7    O21   1.301061 A    
N5    O16   1.301323 A    
O20   H12   0.990441 S    
C31   N12   1.442669 S    
C19   C29   1.409841 A    
N9    O25   1.300021 A    
O6    C4    1.291763 A    
N12   O32   1.301549 A    
C25   H3    1.082930 S    
N6    O17   1.301189 A    
O3    Zn2   1.888494 S    
O8    C4    1.291314 A    
O4    C2    1.295142 A    
N9    O26   1.301318 A    
C8    C10   1.394089 A    
O7    C3    1.293161 A    
C10   C12   1.408490 A    
O1    Zn1   1.888045 S    
C27   N7    1.442237 S    
C13   C18   1.414598 A    
C5    N1    1.365761 A    
Zn2   N3    2.005467 S    
O6    Zn2   1.997067 S    
N8    O23   1.301187 A    
O3    C1    1.295582 A    
O8    Zn1   2.013138 S    
N1    C30   1.426159 S    
H6    C35   1.085338 S    
C5    O9    1.349499 S    
C20   C30   1.411486 A    
C6    O10   1.349423 S    
C22   O20   1.379857 S    
C2    C32   1.463383 S    
C28   N8    1.441919 S    
C9    C11   1.408390 A    
C16   C18   1.401141 A    
C19   C21   1.400447 A    
C20   C22   1.399847 A    
C19   N5    1.440335 S    
C28   C30   1.409665 A    
N12   O31   1.301699 A    
N1    C7    1.364286 A    
C3    C23   1.471136 S    
N2    C8    1.363926 A    
C21   O19   1.376870 S    
O2    Zn2   1.888046 S    
C18   O14   1.382819 S    
C5    C13   1.405042 A    
O13   H9    0.991084 S    
O5    Zn1   1.997067 S    
C11   C13   1.416992 A    
C16   H2    1.083547 S    
C14   C17   1.414654 A    
C6    N2    1.365401 A    
O14   H10   0.991097 S    
C1    C31   1.463395 S    
N6    O18   1.301281 A    
C31   C33   1.361323 D    
N11   O29   1.301752 A    
C25   C27   1.389830 A    
C26   C28   1.390934 A    
N2    C29   1.425140 S    
