data_mof_unit_62959.cif
_audit_creation_date              2012-12-10T18:00:46-0500
_audit_creation_method            fapswitch 2.2
_symmetry_space_group_name_H-M    P1
_symmetry_Int_Tables_number       1
_space_group_crystal_system       triclinic
_cell_length_a                    38.554007
_cell_length_b                    21.61874
_cell_length_c                    21.629899
_cell_angle_alpha                 89.999889
_cell_angle_beta                  55.765923
_cell_angle_gamma                 89.999778
_cell_volume                      14904.813982

loop_
_atom_site_label
_atom_site_type_symbol
_atom_type_description
_atom_site_fract_x
_atom_site_fract_y
_atom_site_fract_z
_atom_type_partial_charge
C1    C     C_R   0.000411 0.500031 0.379414 0.928211
C2    C     C_3   0.236680 0.528293 0.213536 0.453981
C3    C     C_3   0.736561 0.024818 0.315191 0.063819
C4    C     C_1   0.874345 0.499999 0.625708 -0.150183
C5    C     C_1   0.125655 0.499998 0.374324 -0.150323
C6    C     C_1   0.374345 0.999998 0.625711 -0.150163
C7    C     C_1   0.625655 0.999997 0.374323 -0.150237
C8    C     C_1   0.625662 0.499907 0.874226 -0.172644
C9    C     C_1   0.374338 0.499904 0.125769 -0.172634
C10   C     C_1   0.125662 0.999904 0.874225 -0.172663
C11   C     C_1   0.874338 0.999904 0.125769 -0.172666
C12   C     C_3   0.763395 0.443509 0.725845 0.066053
C13   C     C_3   0.263302 0.027668 0.786841 0.452175
C14   C     C_3   0.236624 0.442496 0.263839 0.064656
C15   C     C_3   0.263378 0.942508 0.735403 0.066050
C16   C     C_3   0.736632 0.942648 0.259261 0.064769
C17   C     C_3   0.791468 0.499878 0.708452 0.130432
C18   C     C_3   0.208532 0.499862 0.291605 0.130805
C19   C     C_3   0.291468 0.999865 0.708462 0.130482
C20   C     C_3   0.708531 0.999855 0.291600 0.130805
C21   C     C_3   0.735529 0.461110 0.809386 -0.224285
C22   C     C_3   0.264498 0.469797 0.184328 -0.278508
C23   C     C_3   0.235515 0.969150 0.815226 -0.225508
C24   C     C_3   0.736678 0.032176 0.215957 0.454086
C25   C     C_3   0.764503 0.973979 0.182091 -0.279206
C26   C     C_3   0.735543 0.558335 0.775294 -0.285513
C27   C     C_3   0.264437 0.559343 0.235341 -0.285357
C28   C     C_3   0.235561 0.059336 0.765390 -0.285401
C29   C     C_3   0.764428 0.059181 0.240085 -0.285281
C30   C     C_1   0.836880 0.499953 0.663142 0.024056
C31   C     C_1   0.163120 0.499948 0.336914 0.023424
C32   C     C_1   0.336879 0.999949 0.663149 0.024014
C33   C     C_R   0.999589 0.500031 0.620586 0.930480
C34   C     C_1   0.663120 0.999945 0.336911 0.023475
C35   C     C_1   0.663131 0.499867 0.836707 -0.013274
C36   C     C_1   0.336869 0.499860 0.163273 -0.013433
C37   C     C_1   0.163131 0.999860 0.836705 -0.013314
C38   C     C_1   0.836869 0.999860 0.163275 -0.013452
C39   C     C_R   0.026840 0.541150 0.254565 0.464540
C40   C     C_R   0.973159 0.541149 0.745436 0.466099
C41   C     C_R   0.526840 0.041150 0.254565 0.464081
C42   C     C_R   0.473159 0.041151 0.745435 0.465423
C43   C     C_R   0.026394 0.539656 0.190751 -0.334279
C44   C     C_R   0.500410 0.000031 0.379414 0.927972
C45   C     C_R   0.973605 0.539655 0.809249 -0.333395
C46   C     C_R   0.526394 0.039656 0.190751 -0.334581
C47   C     C_R   0.473605 0.039656 0.809249 -0.333801
C48   C     C_R   0.999968 0.498408 0.186444 -0.075439
C49   C     C_R   0.000032 0.498408 0.813556 -0.075628
C50   C     C_R   0.499967 0.998408 0.186444 -0.075476
C51   C     C_R   0.500033 0.998409 0.813556 -0.075576
C52   C     C_R   0.974123 0.456886 0.244607 0.122141
C53   C     C_R   0.025878 0.456888 0.755392 0.122033
C54   C     C_R   0.474122 0.956888 0.244609 0.122103
C55   C     C_R   0.499590 0.000031 0.620586 0.930114
C56   C     C_R   0.525878 0.956888 0.755392 0.121956
C57   C     C_R   0.974927 0.457905 0.307941 -0.308445
C58   C     C_R   0.025073 0.457906 0.692059 -0.306173
C59   C     C_R   0.474926 0.957906 0.307942 -0.308258
C60   C     C_R   0.525074 0.957906 0.692059 -0.306281
C61   C     C_R   0.918767 0.500007 0.581288 0.906293
C62   C     C_R   0.081233 0.500007 0.418716 0.905970
C63   C     C_R   0.418767 0.000007 0.581288 0.906040
C64   C     C_R   0.581233 0.000007 0.418716 0.905593
C65   C     C_R   0.000783 0.499977 0.312866 -0.088109
C66   C     C_3   0.708499 0.499869 0.791324 0.080140
C67   C     C_R   0.999217 0.499977 0.687135 -0.088758
C68   C     C_R   0.500782 0.999977 0.312866 -0.088208
C69   C     C_R   0.499217 0.999977 0.687134 -0.088847
C70   C     C_R   0.500000 0.380026 0.000000 0.842483
C71   C     C_R   1.000000 0.880026 0.000000 0.842504
C72   C     C_R   0.581239 0.499976 0.918754 0.888912
C73   C     C_R   0.418761 0.499976 0.081246 0.888854
C74   C     C_R   0.081239 0.999976 0.918754 0.888934
C75   C     C_R   0.918761 0.999976 0.081246 0.888882
C76   C     C_R   0.500000 0.620123 1.000000 0.854500
C77   C     C_3   0.291501 0.499855 0.208630 0.080391
C78   C     C_R   0.000000 0.120123 1.000000 0.854565
C79   C     C_R   0.000000 0.379521 1.000000 0.849169
C80   C     C_R   0.500000 0.879521 1.000000 0.849189
C81   C     C_R   0.999961 0.499225 0.120374 0.903850
C82   C     C_R   0.000039 0.499226 0.879626 0.903931
C83   C     C_R   0.499961 0.999225 0.120374 0.903921
C84   C     C_R   0.500039 0.999226 0.879626 0.903997
C85   C     C_R   1.000000 0.620455 1.000000 0.923836
C86   C     C_R   0.500000 0.120455 1.000000 0.923955
C87   C     C_R   0.462336 0.282410 0.051121 0.417788
C88   C     C_3   0.208500 0.999856 0.791323 0.080192
C89   C     C_R   0.537663 0.282410 0.948879 0.417895
C90   C     C_R   0.962337 0.782410 0.051126 0.417718
C91   C     C_R   0.037662 0.782410 0.948874 0.417847
C92   C     C_R   0.962960 0.718626 0.050509 -0.169953
C93   C     C_R   0.037040 0.718626 0.949491 -0.169991
C94   C     C_R   0.462959 0.218627 0.050504 -0.169945
C95   C     C_R   0.537041 0.218626 0.949496 -0.169871
C96   C     C_R   1.000000 0.686903 1.000000 -0.230838
C97   C     C_R   0.500000 0.186903 1.000000 -0.230862
C98   C     C_3   0.735653 0.480195 0.708094 -0.186887
C99   C     C_3   0.791501 0.999855 0.208632 0.080382
C100  C     C_3   0.264340 0.470442 0.287432 -0.132010
C101  C     C_3   0.235650 0.971104 0.712161 -0.185914
C102  C     C_3   0.764342 0.966419 0.284923 -0.131555
C103  C     C_R   0.500000 0.314339 0.000000 -0.242997
C104  C     C_R   1.000000 0.814339 0.000000 -0.242994
C105  C     C_R   0.526006 0.717938 0.015193 -0.180439
C106  C     C_R   0.473994 0.717938 0.984806 -0.180023
C107  C     C_R   0.026006 0.217938 0.015195 -0.180355
C108  C     C_R   0.973995 0.217938 0.984804 -0.179937
C109  C     C_R   0.026477 0.281858 0.014058 -0.187044
C110  C     C_3   0.763298 0.518917 0.790766 0.451920
C111  C     C_R   0.973523 0.281859 0.985940 -0.186604
C112  C     C_R   0.526478 0.781858 0.014056 -0.187224
C113  C     C_R   0.473523 0.781859 0.985942 -0.186743
C114  C     C_R   0.000000 0.313464 1.000000 -0.007313
C115  C     C_R   0.500000 0.813464 1.000000 -0.007164
C116  C     C_R   0.500000 0.686272 1.000000 -0.008306
C117  C     C_R   0.000000 0.186272 1.000000 -0.008442
C118  C     C_3   0.763436 0.537264 0.692945 0.066493
C119  C     C_3   0.236566 0.528857 0.313038 0.064003
C120  C     C_3   0.263450 0.029476 0.687320 0.066043
H1    H     H_    0.955185 0.426405 0.353731 0.163047
H2    H     H_    0.453732 0.693228 0.973361 0.146330
H3    H     H_    0.046267 0.193227 0.026641 0.145927
H4    H     H_    0.953734 0.193228 0.973357 0.146418
H5    H     H_    0.046826 0.306629 0.025251 0.143704
H6    H     H_    0.953174 0.306630 0.974748 0.144399
H7    H     H_    0.546828 0.806629 0.025248 0.143524
H8    H     H_    0.453173 0.806630 0.974751 0.144222
H9    H     H_    0.724097 0.464167 0.673997 0.152301
H10   H     H_    0.275936 0.446497 0.317866 0.151956
H11   H     H_    0.224089 0.947692 0.681373 0.153003
H12   H     H_    0.044816 0.426407 0.646268 0.164794
H13   H     H_    0.775940 0.939201 0.313316 0.152405
H14   H     H_    0.723876 0.605896 0.795852 0.155457
H15   H     H_    0.276088 0.607731 0.223432 0.155660
H16   H     H_    0.223908 0.107716 0.777888 0.155642
H17   H     H_    0.776073 0.107436 0.232035 0.155731
H18   H     H_    0.723805 0.429551 0.857753 0.159091
H19   H     H_    0.276199 0.445317 0.130907 0.159268
H20   H     H_    0.223780 0.944142 0.868346 0.158370
H21   H     H_    0.776209 0.952902 0.126851 0.158914
H22   H     H_    0.046175 0.571038 0.144831 0.155013
H23   H     H_    0.455184 0.926408 0.353733 0.163198
H24   H     H_    0.953823 0.571037 0.855170 0.154798
H25   H     H_    0.546176 0.071038 0.144830 0.155042
H26   H     H_    0.453824 0.071038 0.855169 0.154862
H27   H     H_    0.753323 0.598684 0.633785 0.194703
H28   H     H_    0.795932 0.613586 0.634098 0.195633
H29   H     H_    0.246701 0.576855 0.382049 0.192541
H30   H     H_    0.204064 0.599203 0.385183 0.195002
H31   H     H_    0.253362 0.078491 0.618873 0.195115
H32   H     H_    0.295972 0.100332 0.616110 0.195234
H33   H     H_    0.746685 0.066357 0.387785 0.192755
H34   H     H_    0.544816 0.926407 0.646268 0.164840
H35   H     H_    0.704046 0.091780 0.392819 0.194749
H36   H     H_    0.426699 0.356170 0.094336 0.331154
H37   H     H_    0.573301 0.356169 0.905665 0.331183
H38   H     H_    0.926700 0.856170 0.094344 0.331128
H39   H     H_    0.073300 0.856169 0.905656 0.331175
H40   H     H_    0.753500 0.547884 0.883020 0.331788
H41   H     H_    0.246428 0.571548 0.127829 0.333432
H42   H     H_    0.253508 0.069971 0.873116 0.331502
H43   H     H_    0.746423 0.081346 0.133938 0.333395
H44   H     H_    0.753197 0.352791 0.717472 0.198621
H45   H     H_    0.934254 0.693903 0.089844 0.193482
H46   H     H_    0.795939 0.382506 0.640446 0.187225
H47   H     H_    0.246860 0.349902 0.252758 0.198605
H48   H     H_    0.204229 0.372482 0.256002 0.193842
H49   H     H_    0.253152 0.849966 0.742417 0.198523
H50   H     H_    0.295908 0.873543 0.660924 0.187945
H51   H     H_    0.746881 0.850416 0.240799 0.198392
H52   H     H_    0.704247 0.876059 0.245966 0.193752
H53   H     H_    0.069036 0.606301 0.214457 0.338083
H54   H     H_    0.930961 0.606298 0.785545 0.337668
H55   H     H_    0.569036 0.106300 0.214457 0.338148
H56   H     H_    0.065746 0.693902 0.910156 0.193333
H57   H     H_    0.430963 0.106301 0.785543 0.338034
H58   H     H_    0.967769 0.381846 0.196345 0.171333
H59   H     H_    0.929683 0.388050 0.287646 0.183705
H60   H     H_    0.032233 0.381848 0.803654 0.171604
H61   H     H_    0.070318 0.388052 0.712353 0.185745
H62   H     H_    0.467766 0.881847 0.196349 0.171212
H63   H     H_    0.429680 0.888054 0.287649 0.183938
H64   H     H_    0.532233 0.881848 0.803654 0.171532
H65   H     H_    0.570319 0.888053 0.712353 0.185736
H66   H     H_    0.434252 0.193903 0.089835 0.193418
H67   H     H_    0.565748 0.193903 0.910165 0.193386
H68   H     H_    0.546268 0.693227 0.026638 0.145829
N1    N     N_3   0.779281 0.578142 0.628950 -0.447487
N2    N     N_3   0.052012 0.413495 0.761741 -0.424371
N3    N     N_3   0.447987 0.913496 0.238260 -0.425060
N4    N     N_3   0.552013 0.913496 0.761741 -0.424437
N5    N     N_3   0.220737 0.560427 0.383582 -0.444794
N6    N     N_3   0.279311 0.061752 0.617177 -0.448210
N7    N     N_3   0.720725 0.051927 0.388080 -0.445046
N8    N     N_3   0.779178 0.381340 0.698761 -0.438725
N9    N     N_3   0.220863 0.379308 0.280394 -0.443030
N10   N     N_3   0.279142 0.879321 0.718852 -0.438513
N11   N     N_3   0.720880 0.879596 0.270773 -0.442641
N12   N     N_3   0.947989 0.413493 0.238258 -0.425189
O1    O     O_R   0.000010 0.448280 0.408380 -0.641059
O2    O     O_R   0.034780 0.499940 0.873570 -0.598687
O3    O     O_R   0.465220 0.999940 0.126430 -0.598579
O4    O     O_R   0.534780 0.999940 0.873570 -0.598657
O5    O     O_R   0.034810 0.591520 0.965270 -0.627868
O6    O     O_R   0.965190 0.591520 0.034730 -0.627883
O7    O     O_R   0.534810 0.091520 0.965270 -0.627832
O8    O     O_R   0.465190 0.091520 0.034730 -0.627897
O9    O     O_R   0.000010 0.551730 0.408430 -0.574786
O10   O     O_R   0.999990 0.551730 0.591570 -0.575425
O11   O     O_R   0.500010 0.051730 0.408430 -0.574665
O12   O     O_R   0.999990 0.448280 0.591620 -0.639093
O13   O     O_R   0.499990 0.051730 0.591570 -0.575126
O14   O     O_R   0.938390 0.448280 0.561610 -0.622280
O15   O     O_R   0.061610 0.448280 0.438390 -0.623679
O16   O     O_R   0.438390 0.948280 0.561610 -0.623327
O17   O     O_R   0.561610 0.948280 0.438390 -0.623687
O18   O     O_R   0.938400 0.551730 0.561660 -0.604825
O19   O     O_R   0.061600 0.551730 0.438340 -0.603357
O20   O     O_R   0.438400 0.051730 0.561660 -0.603545
O21   O     O_R   0.561600 0.051730 0.438340 -0.602833
O22   O     O_R   0.500010 0.408260 0.948350 -0.608908
O23   O     O_R   0.500010 0.948280 0.408380 -0.641191
O24   O     O_R   0.499990 0.408260 0.051650 -0.608612
O25   O     O_R   0.000010 0.908260 0.948350 -0.608981
O26   O     O_R   0.999990 0.908260 0.051650 -0.608635
O27   O     O_R   0.561620 0.499890 0.886700 -0.612417
O28   O     O_R   0.438380 0.499890 0.113300 -0.612677
O29   O     O_R   0.061620 0.999890 0.886700 -0.612397
O30   O     O_R   0.938380 0.999890 0.113300 -0.612664
O31   O     O_R   0.561610 0.499990 0.990150 -0.615599
O32   O     O_R   0.438390 0.499990 0.009850 -0.615342
O33   O     O_R   0.061610 0.999990 0.990150 -0.615619
O34   O     O_R   0.499990 0.948280 0.591620 -0.639303
O35   O     O_R   0.938390 0.999990 0.009850 -0.615393
O36   O     O_R   0.500010 0.591500 0.948260 -0.622429
O37   O     O_R   0.499990 0.591500 0.051740 -0.622807
O38   O     O_R   0.000010 0.091500 0.948260 -0.622419
O39   O     O_R   0.999990 0.091500 0.051740 -0.622794
O40   O     O_R   0.034760 0.408280 0.965230 -0.620846
O41   O     O_R   0.965240 0.408280 0.034770 -0.620767
O42   O     O_R   0.534760 0.908280 0.965230 -0.620947
O43   O     O_R   0.465240 0.908280 0.034770 -0.620826
O44   O     O_3   0.424426 0.310904 0.101932 -0.757701
O45   O     O_R   0.034780 0.499900 0.056880 -0.629355
O46   O     O_3   0.575573 0.310903 0.898068 -0.757784
O47   O     O_3   0.924428 0.810904 0.101942 -0.757680
O48   O     O_3   0.075572 0.810903 0.898058 -0.758030
O49   O     O_3   0.778692 0.538926 0.832431 -0.744603
O50   O     O_3   0.221252 0.558214 0.176436 -0.746581
O51   O     O_3   0.278698 0.056904 0.824378 -0.744161
O52   O     O_3   0.721248 0.066186 0.181405 -0.746345
O53   O     O_3   0.052841 0.581004 0.260595 -0.747654
O54   O     O_3   0.947157 0.581002 0.739407 -0.747555
O55   O     O_3   0.552841 0.081004 0.260595 -0.747659
O56   O     O_R   0.965220 0.499900 0.943120 -0.628803
O57   O     O_3   0.447159 0.081004 0.739405 -0.747010
O58   O     O_R   0.534780 0.999900 0.056880 -0.629504
O59   O     O_R   0.465220 0.999900 0.943120 -0.628991
O60   O     O_R   0.965220 0.499940 0.126430 -0.598630
Zn1   Zn    Zn3+2 0.000000 0.430930 0.500000 0.971430
Zn2   Zn    Zn3+2 0.953550 0.499890 0.046410 0.979209
Zn3   Zn    Zn3+2 0.546450 0.999890 0.953590 0.978301
Zn4   Zn    Zn3+2 0.453550 0.999890 0.046410 0.978833
Zn5   Zn    Zn3+2 0.500000 0.930930 0.500000 0.970600
Zn6   Zn    Zn3+2 0.000000 0.569080 0.500000 1.045310
Zn7   Zn    Zn3+2 0.500000 0.069080 0.500000 1.046903
Zn8   Zn    Zn3+2 0.500010 0.499860 0.930960 0.981716
Zn9   Zn    Zn3+2 0.499990 0.499860 0.069040 0.981295
Zn10  Zn    Zn3+2 0.000010 0.999860 0.930960 0.981555
Zn11  Zn    Zn3+2 0.999990 0.999860 0.069040 0.981207
Zn12  Zn    Zn3+2 0.046450 0.499890 0.953590 0.978638

loop_
_geom_bond_atom_site_label_1
_geom_bond_atom_site_label_2
_ccdc_geom_bond_type
C49   C82   S    
C37   C88   S    
C6    C32   T    
C71   C104  S    
C56   N4    S    
C78   O39   A    
C72   O31   A    
O56   Zn2   S    
C21   C66   S    
C2    C18   S    
O19   Zn6   S    
C71   O25   A    
C62   O15   A    
C14   C18   S    
O14   Zn1   S    
O58   Zn3   S    
C107  H3    S    
C91   C104  A    
C70   O22   A    
C1    O1    A    
C17   C110  S    
C21   C110  S    
C105  C116  A    
C95   H67   S    
O37   Zn9   S    
C113  H8    S    
O40   Zn12  S    
C48   C81   S    
O35   Zn10  S    
C15   C19   S    
O6    Zn2   S    
C50   C54   A    
O42   Zn3   S    
C64   O17   A    
H52   N11   S    
C10   C37   T    
C26   H14   S    
C79   O40   A    
H31   N6    S    
C108  C111  A    
H43   O52   S    
C22   H19   S    
H46   N8    S    
C42   O57   S    
C36   C77   S    
C2    O50   S    
C51   C84   S    
H41   O50   S    
O26   Zn11  S    
C85   C96   S    
C100  H10   S    
O27   Zn8   S    
C5    C31   T    
C46   H25   S    
C91   C93   A    
O30   Zn11  S    
C33   O12   A    
C87   C94   A    
O1    Zn1   S    
C92   C96   A    
C89   O46   S    
C13   C23   S    
C83   O58   A    
O38   Zn10  S    
C51   C56   A    
O29   Zn10  S    
C3    C29   S    
C86   C97   S    
O2    Zn12  S    
C24   C29   S    
C112  H7    S    
H51   N11   S    
H36   O44   S    
O18   Zn6   S    
O24   Zn9   S    
C92   H45   S    
H54   O54   S    
C20   C24   S    
C58   H12   S    
C40   C67   A    
C12   C17   S    
C50   C83   S    
C45   H24   S    
C1    C65   S    
C41   C46   A    
H64   N4    S    
C13   C28   S    
C75   O35   A    
C2    C27   S    
C52   N12   S    
C63   O16   A    
O60   Zn2   S    
C53   N2    S    
C26   C110  S    
C12   C98   S    
C55   O13   A    
C42   C47   A    
H29   N5    S    
C84   O4    A    
C15   C23   S    
C47   H26   S    
C59   H23   S    
C78   O38   A    
C89   C103  A    
C17   C30   S    
C107  C109  A    
H61   N2    S    
C82   O56   A    
C40   C45   A    
C9    C73   S    
C21   H18   S    
C108  H4    S    
C74   O29   A    
C19   C32   S    
H40   O49   S    
C94   H66   S    
O4    Zn3   S    
C25   C99   S    
C85   O6    A    
C98   C118  S    
C41   C68   A    
C60   H34   S    
C54   C59   A    
C110  O49   S    
O9    Zn6   S    
C13   O51   S    
C14   N9    S    
C43   H22   S    
O12   Zn1   S    
C8    C72   S    
O23   Zn5   S    
H48   N9    S    
C29   C99   S    
C106  C113  A    
C85   O5    A    
C26   C66   S    
C81   O45   A    
C23   H20   S    
C24   O52   S    
C78   C117  S    
C24   C25   S    
C83   O3    A    
O59   Zn4   S    
C28   C120  S    
H53   O53   S    
C88   C101  S    
C100  C119  S    
C15   N10   S    
C13   C19   S    
O3    Zn4   S    
O34   Zn5   S    
C39   C43   A    
C15   C101  S    
C35   C66   S    
C1    O9    A    
C4    C61   S    
C72   O27   A    
C42   C69   A    
C3    N7    S    
O32   Zn8   S    
C106  C116  A    
C76   O37   A    
C119  N5    S    
C8    C35   T    
C63   O20   A    
C89   C95   A    
C75   O30   A    
C70   O24   A    
H30   N5    S    
C28   C88   S    
H42   O51   S    
O21   Zn7   S    
C59   C68   A    
C9    C36   T    
C6    C63   S    
O22   Zn8   S    
C33   O10   A    
C12   N8    S    
C90   C92   A    
H33   N7    S    
C80   C115  S    
C45   C49   A    
C16   C20   S    
C43   C48   A    
C76   C116  S    
C90   O47   S    
C106  H2    S    
C111  H6    S    
O11   Zn7   S    
H47   N9    S    
C3    C20   S    
C76   O36   A    
C44   O23   A    
C95   C97   A    
O8    Zn4   S    
C61   O18   A    
C74   O33   A    
C14   C100  S    
C90   C104  A    
C55   C69   S    
C16   N11   S    
C105  H68   S    
C109  C114  A    
C87   C103  A    
O45   Zn12  S    
C101  H11   S    
C3    C102  S    
C16   C102  S    
C105  C112  A    
C19   C120  S    
C93   C96   A    
O17   Zn5   S    
C23   C88   S    
C71   O26   A    
H39   O48   S    
C44   C68   S    
H62   N3    S    
C55   O34   A    
C86   O8    A    
H50   N10   S    
C29   H17   S    
C7    C34   T    
C33   C67   S    
H65   N4    S    
C82   O2    A    
C61   O14   A    
H37   O46   S    
C109  H5    S    
C16   C25   S    
C5    C62   S    
H58   N12   S    
C91   O48   S    
C81   O60   A    
O15   Zn1   S    
C28   H16   S    
C101  C120  S    
C108  C117  A    
C25   H21   S    
C26   C118  S    
C22   C77   S    
C57   C65   A    
C38   C99   S    
C27   C77   S    
H63   N3    S    
C86   O7    A    
O33   Zn11  S    
C73   O28   A    
C47   C51   A    
C53   C58   A    
H44   N8    S    
H55   O55   S    
O43   Zn4   S    
C39   O53   S    
C27   C119  S    
C77   C100  S    
C39   C65   A    
O7    Zn3   S    
C46   C50   A    
C93   H56   S    
C94   C97   A    
C80   O43   A    
O39   Zn11  S    
O41   Zn2   S    
C44   O11   A    
C27   H15   S    
C62   O19   A    
C14   C22   S    
C102  H13   S    
C40   O54   S    
C11   C75   S    
C2    C22   S    
H28   N1    S    
C10   C74   S    
C66   C98   S    
C87   O44   S    
C60   C69   A    
H27   N1    S    
O16   Zn5   S    
C49   C53   A    
O31   Zn9   S    
C98   H9    S    
O13   Zn7   S    
C118  N1    S    
C80   O42   A    
C64   O21   A    
C111  C114  A    
H32   N6    S    
C79   O41   A    
C120  N6    S    
C7    C64   S    
O5    Zn12  S    
H35   N7    S    
C52   C57   A    
C57   H1    S    
C20   C34   S    
C12   C21   S    
O28   Zn9   S    
C56   C60   A    
C58   C67   A    
C48   C52   A    
C99   C102  S    
C54   N3    S    
O10   Zn6   S    
C41   O55   S    
H38   O47   S    
C79   C114  S    
O36   Zn8   S    
C73   O32   A    
C17   C118  S    
H49   N10   S    
C11   C38   T    
H60   N2    S    
C18   C31   S    
C84   O59   A    
C113  C115  A    
O20   Zn7   S    
H57   O57   S    
C18   C119  S    
C107  C117  A    
C112  C115  A    
C4    C30   T    
H59   N12   S    
O25   Zn10  S    
C70   C103  S    
